MODEL 1
REMARK VINA RESULT:      -8.5      0.000      0.000
REMARK  2 active torsions:
REMARK  status: ('A' for Active; 'I' for Inactive)
REMARK    1  A    between atoms: C3_3  and  C4_4 
REMARK       I    between atoms: C4_4  and  N1_6 
REMARK    2  A    between atoms: N1_6  and  C5_7 
ROOT
HETATM    1  C5  UNL     1      24.745   0.595  52.831  1.00  0.00     0.139 A 
HETATM    2  N2  UNL     1      24.332  -0.557  53.358  1.00  0.00    -0.240 NA
HETATM    3  C6  UNL     1      23.066  -0.867  53.554  1.00  0.00     0.151 A 
HETATM    4  C7  UNL     1      22.147   0.088  53.177  1.00  0.00     0.090 A 
HETATM    5  N3  UNL     1      20.883  -0.314  53.404  1.00  0.00    -0.240 NA
HETATM    6  C8  UNL     1      19.847   0.474  53.095  1.00  0.00     0.236 A 
HETATM    7  N4  UNL     1      20.188   1.678  52.548  1.00  0.00    -0.224 NA
HETATM    8  C9  UNL     1      21.452   2.071  52.326  1.00  0.00     0.142 A 
HETATM    9  C10 UNL     1      22.529   1.290  52.632  1.00  0.00     0.052 A 
HETATM   10  C11 UNL     1      23.846   1.571  52.447  1.00  0.00     0.022 A 
HETATM   11  C12 UNL     1      24.440   2.815  51.901  1.00  0.00     0.118 C 
HETATM   12 BR1  UNL     1      23.674   4.426  52.679  1.00  0.00    -0.082 Br
HETATM   13  C13 UNL     1      24.525   2.853  50.445  1.00  0.00    -0.006 C 
HETATM   14  C14 UNL     1      23.650   3.033  49.487  1.00  0.00    -0.001 C 
HETATM   15  C15 UNL     1      22.212   3.272  49.487  1.00  0.00     0.024 C 
HETATM   16  C16 UNL     1      21.179   3.409  50.313  1.00  0.00     0.007 C 
HETATM   17  C17 UNL     1      19.733   3.665  49.958  1.00  0.00     0.068 C 
HETATM   18  N5  UNL     1      21.088   3.348  51.754  1.00  0.00    -0.344 N 
HETATM   19  H16 UNL     1      20.755   4.175  52.335  1.00  0.00     0.167 HD
ENDROOT
BRANCH   1  20
HETATM   20  N1  UNL     1      26.161   0.683  52.709  1.00  0.00    -0.308 N 
HETATM   21  C4  UNL     1      27.031   1.048  53.800  1.00  0.00     0.246 C 
HETATM   22  O1  UNL     1      26.400   1.288  54.897  1.00  0.00    -0.268 OA
HETATM   23  H6  UNL     1      26.769   0.508  51.888  1.00  0.00     0.170 HD
BRANCH  21  24
HETATM   24  C3  UNL     1      28.479   1.148  53.706  1.00  0.00     0.070 C 
HETATM   25  C2  UNL     1      29.583   0.383  53.665  1.00  0.00    -0.026 C 
HETATM   26  C1  UNL     1      30.064  -1.016  53.682  1.00  0.00     0.036 C 
ENDBRANCH  21  24
ENDBRANCH   1  20
TORSDOF 2
ENDMDL
MODEL 2
REMARK VINA RESULT:      -8.1      2.431      4.074
REMARK  2 active torsions:
REMARK  status: ('A' for Active; 'I' for Inactive)
REMARK    1  A    between atoms: C3_3  and  C4_4 
REMARK       I    between atoms: C4_4  and  N1_6 
REMARK    2  A    between atoms: N1_6  and  C5_7 
ROOT
HETATM    1  C5  UNL     1      25.580   2.828  51.661  1.00  0.00     0.139 A 
HETATM    2  N2  UNL     1      26.429   2.013  52.286  1.00  0.00    -0.240 NA
HETATM    3  C6  UNL     1      26.059   0.983  53.021  1.00  0.00     0.151 A 
HETATM    4  C7  UNL     1      24.701   0.774  53.123  1.00  0.00     0.090 A 
HETATM    5  N3  UNL     1      24.414  -0.299  53.882  1.00  0.00    -0.240 NA
HETATM    6  C8  UNL     1      23.146  -0.671  54.093  1.00  0.00     0.236 A 
HETATM    7  N4  UNL     1      22.211   0.116  53.483  1.00  0.00    -0.224 NA
HETATM    8  C9  UNL     1      22.507   1.186  52.728  1.00  0.00     0.142 A 
HETATM    9  C10 UNL     1      23.790   1.590  52.496  1.00  0.00     0.052 A 
HETATM   10  C11 UNL     1      24.214   2.642  51.748  1.00  0.00     0.022 A 
HETATM   11  C12 UNL     1      23.382   3.636  51.027  1.00  0.00     0.118 C 
HETATM   12 BR1  UNL     1      21.920   4.329  52.109  1.00  0.00    -0.082 Br
HETATM   13  C13 UNL     1      22.972   3.221  49.689  1.00  0.00    -0.006 C 
HETATM   14  C14 UNL     1      22.084   2.375  49.231  1.00  0.00    -0.001 C 
HETATM   15  C15 UNL     1      21.128   1.487  49.884  1.00  0.00     0.024 C 
HETATM   16  C16 UNL     1      20.711   1.112  51.089  1.00  0.00     0.007 C 
HETATM   17  C17 UNL     1      19.634   0.107  51.428  1.00  0.00     0.068 C 
HETATM   18  N5  UNL     1      21.131   1.503  52.415  1.00  0.00    -0.344 N 
HETATM   19  H16 UNL     1      20.466   1.964  53.105  1.00  0.00     0.167 HD
ENDROOT
BRANCH   1  20
HETATM   20  N1  UNL     1      26.228   3.855  50.919  1.00  0.00    -0.308 N 
HETATM   21  C4  UNL     1      26.755   3.664  49.590  1.00  0.00     0.246 C 
HETATM   22  O1  UNL     1      26.583   2.469  49.140  1.00  0.00    -0.268 OA
HETATM   23  H6  UNL     1      26.413   4.842  51.174  1.00  0.00     0.170 HD
BRANCH  21  24
HETATM   24  C3  UNL     1      27.421   4.693  48.808  1.00  0.00     0.070 C 
HETATM   25  C2  UNL     1      27.314   5.989  48.470  1.00  0.00    -0.026 C 
HETATM   26  C1  UNL     1      26.488   7.203  48.652  1.00  0.00     0.036 C 
ENDBRANCH  21  24
ENDBRANCH   1  20
TORSDOF 2
ENDMDL
MODEL 3
REMARK VINA RESULT:      -7.9      2.490      4.115
REMARK  2 active torsions:
REMARK  status: ('A' for Active; 'I' for Inactive)
REMARK    1  A    between atoms: C3_3  and  C4_4 
REMARK       I    between atoms: C4_4  and  N1_6 
REMARK    2  A    between atoms: N1_6  and  C5_7 
ROOT
HETATM    1  C5  UNL     1      24.044   1.873  51.435  1.00  0.00     0.139 A 
HETATM    2  N2  UNL     1      25.025   1.175  52.005  1.00  0.00    -0.240 NA
HETATM    3  C6  UNL     1      24.837   0.272  52.947  1.00  0.00     0.151 A 
HETATM    4  C7  UNL     1      23.531   0.071  53.337  1.00  0.00     0.090 A 
HETATM    5  N3  UNL     1      23.431  -0.870  54.294  1.00  0.00    -0.240 NA
HETATM    6  C8  UNL     1      22.239  -1.213  54.796  1.00  0.00     0.236 A 
HETATM    7  N4  UNL     1      21.179  -0.540  54.262  1.00  0.00    -0.224 NA
HETATM    8  C9  UNL     1      21.288   0.398  53.307  1.00  0.00     0.142 A 
HETATM    9  C10 UNL     1      22.489   0.770  52.776  1.00  0.00     0.052 A 
HETATM   10  C11 UNL     1      22.726   1.693  51.807  1.00  0.00     0.022 A 
HETATM   11  C12 UNL     1      21.737   2.553  51.113  1.00  0.00     0.118 C 
HETATM   12 BR1  UNL     1      20.478   3.398  52.333  1.00  0.00    -0.082 Br
HETATM   13  C13 UNL     1      21.101   1.928  49.958  1.00  0.00    -0.006 C 
HETATM   14  C14 UNL     1      20.176   1.012  49.814  1.00  0.00    -0.001 C 
HETATM   15  C15 UNL     1      19.393   0.232  50.765  1.00  0.00     0.024 C 
HETATM   16  C16 UNL     1      19.222   0.051  52.071  1.00  0.00     0.007 C 
HETATM   17  C17 UNL     1      18.266  -0.896  52.760  1.00  0.00     0.068 C 
HETATM   18  N5  UNL     1      19.867   0.651  53.217  1.00  0.00    -0.344 N 
HETATM   19  H16 UNL     1      19.325   1.211  53.941  1.00  0.00     0.167 HD
ENDROOT
BRANCH   1  20
HETATM   20  N1  UNL     1      24.503   2.774  50.433  1.00  0.00    -0.308 N 
HETATM   21  C4  UNL     1      24.739   4.177  50.675  1.00  0.00     0.246 C 
HETATM   22  O1  UNL     1      24.492   4.534  51.888  1.00  0.00    -0.268 OA
HETATM   23  H6  UNL     1      24.737   2.599  49.439  1.00  0.00     0.170 HD
BRANCH  21  24
HETATM   24  C3  UNL     1      25.206   5.122  49.673  1.00  0.00     0.070 C 
HETATM   25  C2  UNL     1      26.278   5.401  48.912  1.00  0.00    -0.026 C 
HETATM   26  C1  UNL     1      27.651   4.961  48.583  1.00  0.00     0.036 C 
ENDBRANCH  21  24
ENDBRANCH   1  20
TORSDOF 2
ENDMDL
MODEL 4
REMARK VINA RESULT:      -7.9      2.935      5.391
REMARK  2 active torsions:
REMARK  status: ('A' for Active; 'I' for Inactive)
REMARK    1  A    between atoms: C3_3  and  C4_4 
REMARK       I    between atoms: C4_4  and  N1_6 
REMARK    2  A    between atoms: N1_6  and  C5_7 
ROOT
HETATM    1  C5  UNL     1      21.970   1.181  50.588  1.00  0.00     0.139 A 
HETATM    2  N2  UNL     1      21.138   0.952  49.573  1.00  0.00    -0.240 NA
HETATM    3  C6  UNL     1      21.035   1.730  48.514  1.00  0.00     0.151 A 
HETATM    4  C7  UNL     1      21.855   2.837  48.497  1.00  0.00     0.090 A 
HETATM    5  N3  UNL     1      21.690   3.568  47.380  1.00  0.00    -0.240 NA
HETATM    6  C8  UNL     1      22.406   4.680  47.176  1.00  0.00     0.236 A 
HETATM    7  N4  UNL     1      23.285   4.984  48.175  1.00  0.00    -0.224 NA
HETATM    8  C9  UNL     1      23.443   4.249  49.287  1.00  0.00     0.142 A 
HETATM    9  C10 UNL     1      22.726   3.112  49.524  1.00  0.00     0.052 A 
HETATM   10  C11 UNL     1      22.802   2.284  50.599  1.00  0.00     0.022 A 
HETATM   11  C12 UNL     1      23.657   2.434  51.801  1.00  0.00     0.118 C 
HETATM   12 BR1  UNL     1      23.618   4.234  52.539  1.00  0.00    -0.082 Br
HETATM   13  C13 UNL     1      25.004   1.892  51.653  1.00  0.00    -0.006 C 
HETATM   14  C14 UNL     1      26.081   2.292  51.026  1.00  0.00    -0.001 C 
HETATM   15  C15 UNL     1      26.378   3.461  50.206  1.00  0.00     0.024 C 
HETATM   16  C16 UNL     1      25.814   4.565  49.725  1.00  0.00     0.007 C 
HETATM   17  C17 UNL     1      26.446   5.626  48.854  1.00  0.00     0.068 C 
HETATM   18  N5  UNL     1      24.474   5.092  49.849  1.00  0.00    -0.344 N 
HETATM   19  H16 UNL     1      24.278   6.036  50.299  1.00  0.00     0.167 HD
ENDROOT
BRANCH   1  20
HETATM   20  N1  UNL     1      21.905   0.186  51.605  1.00  0.00    -0.308 N 
HETATM   21  C4  UNL     1      20.976   0.236  52.707  1.00  0.00     0.246 C 
HETATM   22  O1  UNL     1      20.210   1.272  52.681  1.00  0.00    -0.268 OA
HETATM   23  H6  UNL     1      22.460  -0.681  51.721  1.00  0.00     0.170 HD
BRANCH  21  24
HETATM   24  C3  UNL     1      20.887  -0.763  53.760  1.00  0.00     0.070 C 
HETATM   25  C2  UNL     1      21.623  -1.341  54.723  1.00  0.00    -0.026 C 
HETATM   26  C1  UNL     1      22.963  -1.358  55.349  1.00  0.00     0.036 C 
ENDBRANCH  21  24
ENDBRANCH   1  20
TORSDOF 2
ENDMDL
MODEL 5
REMARK VINA RESULT:      -7.5      3.252      5.103
REMARK  2 active torsions:
REMARK  status: ('A' for Active; 'I' for Inactive)
REMARK    1  A    between atoms: C3_3  and  C4_4 
REMARK       I    between atoms: C4_4  and  N1_6 
REMARK    2  A    between atoms: N1_6  and  C5_7 
ROOT
HETATM    1  C5  UNL     1      26.180   2.985  49.984  1.00  0.00     0.139 A 
HETATM    2  N2  UNL     1      27.285   3.580  49.536  1.00  0.00    -0.240 NA
HETATM    3  C6  UNL     1      27.308   4.779  48.991  1.00  0.00     0.151 A 
HETATM    4  C7  UNL     1      26.092   5.422  48.897  1.00  0.00     0.090 A 
HETATM    5  N3  UNL     1      26.210   6.640  48.338  1.00  0.00    -0.240 NA
HETATM    6  C8  UNL     1      25.137   7.423  48.169  1.00  0.00     0.236 A 
HETATM    7  N4  UNL     1      23.962   6.884  48.605  1.00  0.00    -0.224 NA
HETATM    8  C9  UNL     1      23.854   5.667  49.162  1.00  0.00     0.142 A 
HETATM    9  C10 UNL     1      24.928   4.845  49.346  1.00  0.00     0.052 A 
HETATM   10  C11 UNL     1      24.948   3.605  49.902  1.00  0.00     0.022 A 
HETATM   11  C12 UNL     1      23.797   2.822  50.412  1.00  0.00     0.118 C 
HETATM   12 BR1  UNL     1      22.283   2.814  49.190  1.00  0.00    -0.082 Br
HETATM   13  C13 UNL     1      23.432   3.119  51.793  1.00  0.00    -0.006 C 
HETATM   14  C14 UNL     1      22.814   4.116  52.376  1.00  0.00    -0.001 C 
HETATM   15  C15 UNL     1      22.232   5.355  51.874  1.00  0.00     0.024 C 
HETATM   16  C16 UNL     1      22.046   6.035  50.746  1.00  0.00     0.007 C 
HETATM   17  C17 UNL     1      21.360   7.371  50.570  1.00  0.00     0.068 C 
HETATM   18  N5  UNL     1      22.428   5.755  49.381  1.00  0.00    -0.344 N 
HETATM   19  H16 UNL     1      21.709   5.647  48.604  1.00  0.00     0.167 HD
ENDROOT
BRANCH   1  20
HETATM   20  N1  UNL     1      26.420   1.698  50.543  1.00  0.00    -0.308 N 
HETATM   21  C4  UNL     1      26.822   1.489  51.913  1.00  0.00     0.246 C 
HETATM   22  O1  UNL     1      26.943   2.584  52.581  1.00  0.00    -0.268 OA
HETATM   23  H6  UNL     1      26.348   0.761  50.107  1.00  0.00     0.170 HD
BRANCH  21  24
HETATM   24  C3  UNL     1      27.075   0.188  52.512  1.00  0.00     0.070 C 
HETATM   25  C2  UNL     1      28.037  -0.510  53.138  1.00  0.00    -0.026 C 
HETATM   26  C1  UNL     1      29.430  -0.440  53.630  1.00  0.00     0.036 C 
ENDBRANCH  21  24
ENDBRANCH   1  20
TORSDOF 2
ENDMDL
MODEL 6
REMARK VINA RESULT:      -7.5      2.495      5.743
REMARK  2 active torsions:
REMARK  status: ('A' for Active; 'I' for Inactive)
REMARK    1  A    between atoms: C3_3  and  C4_4 
REMARK       I    between atoms: C4_4  and  N1_6 
REMARK    2  A    between atoms: N1_6  and  C5_7 
ROOT
HETATM    1  C5  UNL     1      22.523   0.128  52.278  1.00  0.00     0.139 A 
HETATM    2  N2  UNL     1      23.417  -0.504  53.037  1.00  0.00    -0.240 NA
HETATM    3  C6  UNL     1      24.677  -0.136  53.155  1.00  0.00     0.151 A 
HETATM    4  C7  UNL     1      25.051   0.975  52.431  1.00  0.00     0.090 A 
HETATM    5  N3  UNL     1      26.347   1.284  52.617  1.00  0.00    -0.240 NA
HETATM    6  C8  UNL     1      26.895   2.339  52.003  1.00  0.00     0.236 A 
HETATM    7  N4  UNL     1      26.041   3.042  51.203  1.00  0.00    -0.224 NA
HETATM    8  C9  UNL     1      24.748   2.727  51.023  1.00  0.00     0.142 A 
HETATM    9  C10 UNL     1      24.161   1.656  51.634  1.00  0.00     0.052 A 
HETATM   10  C11 UNL     1      22.870   1.242  51.540  1.00  0.00     0.022 A 
HETATM   11  C12 UNL     1      21.787   1.833  50.716  1.00  0.00     0.118 C 
HETATM   12 BR1  UNL     1      22.342   2.210  48.890  1.00  0.00    -0.082 Br
HETATM   13  C13 UNL     1      21.083   2.941  51.354  1.00  0.00    -0.006 C 
HETATM   14  C14 UNL     1      21.380   4.195  51.585  1.00  0.00    -0.001 C 
HETATM   15  C15 UNL     1      22.556   5.007  51.297  1.00  0.00     0.024 C 
HETATM   16  C16 UNL     1      23.762   4.932  50.741  1.00  0.00     0.007 C 
HETATM   17  C17 UNL     1      24.789   6.032  50.600  1.00  0.00     0.068 C 
HETATM   18  N5  UNL     1      24.472   3.831  50.132  1.00  0.00    -0.344 N 
HETATM   19  H16 UNL     1      24.782   3.853  49.114  1.00  0.00     0.167 HD
ENDROOT
BRANCH   1  20
HETATM   20  N1  UNL     1      21.226  -0.456  52.331  1.00  0.00    -0.308 N 
HETATM   21  C4  UNL     1      20.289  -0.214  53.400  1.00  0.00     0.246 C 
HETATM   22  O1  UNL     1      20.743   0.583  54.305  1.00  0.00    -0.268 OA
HETATM   23  H6  UNL     1      20.759  -1.097  51.664  1.00  0.00     0.170 HD
BRANCH  21  24
HETATM   24  C3  UNL     1      18.959  -0.795  53.483  1.00  0.00     0.070 C 
HETATM   25  C2  UNL     1      17.816  -0.904  52.784  1.00  0.00    -0.026 C 
HETATM   26  C1  UNL     1      17.156  -0.530  51.514  1.00  0.00     0.036 C 
ENDBRANCH  21  24
ENDBRANCH   1  20
TORSDOF 2
ENDMDL
MODEL 7
REMARK VINA RESULT:      -7.4      2.934      5.475
REMARK  2 active torsions:
REMARK  status: ('A' for Active; 'I' for Inactive)
REMARK    1  A    between atoms: C3_3  and  C4_4 
REMARK       I    between atoms: C4_4  and  N1_6 
REMARK    2  A    between atoms: N1_6  and  C5_7 
ROOT
HETATM    1  C5  UNL     1      25.050   3.309  50.180  1.00  0.00     0.139 A 
HETATM    2  N2  UNL     1      26.336   3.014  50.369  1.00  0.00    -0.240 NA
HETATM    3  C6  UNL     1      26.774   2.184  51.294  1.00  0.00     0.151 A 
HETATM    4  C7  UNL     1      25.810   1.608  52.093  1.00  0.00     0.090 A 
HETATM    5  N3  UNL     1      26.344   0.771  53.001  1.00  0.00    -0.240 NA
HETATM    6  C8  UNL     1      25.564   0.109  53.865  1.00  0.00     0.236 A 
HETATM    7  N4  UNL     1      24.229   0.358  53.735  1.00  0.00    -0.224 NA
HETATM    8  C9  UNL     1      23.705   1.196  52.826  1.00  0.00     0.142 A 
HETATM    9  C10 UNL     1      24.473   1.886  51.934  1.00  0.00     0.052 A 
HETATM   10  C11 UNL     1      24.063   2.749  50.968  1.00  0.00     0.022 A 
HETATM   11  C12 UNL     1      22.677   3.184  50.670  1.00  0.00     0.118 C 
HETATM   12 BR1  UNL     1      21.679   3.683  52.264  1.00  0.00    -0.082 Br
HETATM   13  C13 UNL     1      21.945   2.291  49.777  1.00  0.00    -0.006 C 
HETATM   14  C14 UNL     1      21.381   1.118  49.926  1.00  0.00    -0.001 C 
HETATM   15  C15 UNL     1      21.254   0.213  51.063  1.00  0.00     0.024 C 
HETATM   16  C16 UNL     1      21.587   0.100  52.345  1.00  0.00     0.007 C 
HETATM   17  C17 UNL     1      21.277  -1.040  53.287  1.00  0.00     0.068 C 
HETATM   18  N5  UNL     1      22.333   0.971  53.224  1.00  0.00    -0.344 N 
HETATM   19  H16 UNL     1      21.903   1.388  54.103  1.00  0.00     0.167 HD
ENDROOT
BRANCH   1  20
HETATM   20  N1  UNL     1      24.833   4.220  49.108  1.00  0.00    -0.308 N 
HETATM   21  C4  UNL     1      24.899   5.654  49.259  1.00  0.00     0.246 C 
HETATM   22  O1  UNL     1      25.173   6.028  50.460  1.00  0.00    -0.268 OA
HETATM   23  H6  UNL     1      24.615   4.034  48.113  1.00  0.00     0.170 HD
BRANCH  21  24
HETATM   24  C3  UNL     1      24.681   6.609  48.184  1.00  0.00     0.070 C 
HETATM   25  C2  UNL     1      25.335   7.511  47.433  1.00  0.00    -0.026 C 
HETATM   26  C1  UNL     1      26.660   8.122  47.190  1.00  0.00     0.036 C 
ENDBRANCH  21  24
ENDBRANCH   1  20
TORSDOF 2
ENDMDL
MODEL 8
REMARK VINA RESULT:      -7.2      2.437      4.185
REMARK  2 active torsions:
REMARK  status: ('A' for Active; 'I' for Inactive)
REMARK    1  A    between atoms: C3_3  and  C4_4 
REMARK       I    between atoms: C4_4  and  N1_6 
REMARK    2  A    between atoms: N1_6  and  C5_7 
ROOT
HETATM    1  C5  UNL     1      24.472   3.415  50.752  1.00  0.00     0.139 A 
HETATM    2  N2  UNL     1      24.901   4.676  50.748  1.00  0.00    -0.240 NA
HETATM    3  C6  UNL     1      24.114   5.724  50.605  1.00  0.00     0.151 A 
HETATM    4  C7  UNL     1      22.772   5.452  50.452  1.00  0.00     0.090 A 
HETATM    5  N3  UNL     1      22.044   6.575  50.321  1.00  0.00    -0.240 NA
HETATM    6  C8  UNL     1      20.715   6.517  50.170  1.00  0.00     0.236 A 
HETATM    7  N4  UNL     1      20.195   5.255  50.164  1.00  0.00    -0.224 NA
HETATM    8  C9  UNL     1      20.930   4.139  50.295  1.00  0.00     0.142 A 
HETATM    9  C10 UNL     1      22.286   4.166  50.448  1.00  0.00     0.052 A 
HETATM   10  C11 UNL     1      23.133   3.113  50.598  1.00  0.00     0.022 A 
HETATM   11  C12 UNL     1      22.794   1.669  50.593  1.00  0.00     0.118 C 
HETATM   12 BR1  UNL     1      21.608   1.174  49.132  1.00  0.00    -0.082 Br
HETATM   13  C13 UNL     1      22.375   1.145  51.889  1.00  0.00    -0.006 C 
HETATM   14  C14 UNL     1      21.278   1.243  52.598  1.00  0.00    -0.001 C 
HETATM   15  C15 UNL     1      20.009   1.927  52.378  1.00  0.00     0.024 C 
HETATM   16  C16 UNL     1      19.382   2.696  51.493  1.00  0.00     0.007 C 
HETATM   17  C17 UNL     1      17.984   3.265  51.583  1.00  0.00     0.068 C 
HETATM   18  N5  UNL     1      19.802   3.237  50.221  1.00  0.00    -0.344 N 
HETATM   19  H16 UNL     1      19.300   3.001  49.313  1.00  0.00     0.167 HD
ENDROOT
BRANCH   1  20
HETATM   20  N1  UNL     1      25.516   2.465  50.938  1.00  0.00    -0.308 N 
HETATM   21  C4  UNL     1      25.965   2.022  52.235  1.00  0.00     0.246 C 
HETATM   22  O1  UNL     1      25.329   2.573  53.210  1.00  0.00    -0.268 OA
HETATM   23  H6  UNL     1      26.085   1.958  50.235  1.00  0.00     0.170 HD
BRANCH  21  24
HETATM   24  C3  UNL     1      27.028   1.055  52.456  1.00  0.00     0.070 C 
HETATM   25  C2  UNL     1      27.238  -0.268  52.562  1.00  0.00    -0.026 C 
HETATM   26  C1  UNL     1      26.569  -1.587  52.526  1.00  0.00     0.036 C 
ENDBRANCH  21  24
ENDBRANCH   1  20
TORSDOF 2
ENDMDL
MODEL 9
REMARK VINA RESULT:      -7.2      4.016      6.437
REMARK  2 active torsions:
REMARK  status: ('A' for Active; 'I' for Inactive)
REMARK    1  A    between atoms: C3_3  and  C4_4 
REMARK       I    between atoms: C4_4  and  N1_6 
REMARK    2  A    between atoms: N1_6  and  C5_7 
ROOT
HETATM    1  C5  UNL     1      24.427   3.184  50.211  1.00  0.00     0.139 A 
HETATM    2  N2  UNL     1      25.616   2.598  50.345  1.00  0.00    -0.240 NA
HETATM    3  C6  UNL     1      26.749   3.124  49.924  1.00  0.00     0.151 A 
HETATM    4  C7  UNL     1      26.652   4.355  49.312  1.00  0.00     0.090 A 
HETATM    5  N3  UNL     1      27.853   4.819  48.923  1.00  0.00    -0.240 NA
HETATM    6  C8  UNL     1      27.965   6.006  48.316  1.00  0.00     0.236 A 
HETATM    7  N4  UNL     1      26.786   6.672  48.140  1.00  0.00    -0.224 NA
HETATM    8  C9  UNL     1      25.592   6.201  48.532  1.00  0.00     0.142 A 
HETATM    9  C10 UNL     1      25.445   4.993  49.152  1.00  0.00     0.052 A 
HETATM   10  C11 UNL     1      24.299   4.416  49.600  1.00  0.00     0.022 A 
HETATM   11  C12 UNL     1      22.917   4.941  49.491  1.00  0.00     0.118 C 
HETATM   12 BR1  UNL     1      22.496   5.608  47.712  1.00  0.00    -0.082 Br
HETATM   13  C13 UNL     1      22.534   5.855  50.563  1.00  0.00    -0.006 C 
HETATM   14  C14 UNL     1      22.822   7.102  50.841  1.00  0.00    -0.001 C 
HETATM   15  C15 UNL     1      23.656   8.101  50.182  1.00  0.00     0.024 C 
HETATM   16  C16 UNL     1      24.446   8.263  49.125  1.00  0.00     0.007 C 
HETATM   17  C17 UNL     1      25.202   9.505  48.713  1.00  0.00     0.068 C 
HETATM   18  N5  UNL     1      24.847   7.353  48.077  1.00  0.00    -0.344 N 
HETATM   19  H16 UNL     1      24.625   7.539  47.053  1.00  0.00     0.167 HD
ENDROOT
BRANCH   1  20
HETATM   20  N1  UNL     1      23.358   2.421  50.761  1.00  0.00    -0.308 N 
HETATM   21  C4  UNL     1      23.020   2.423  52.163  1.00  0.00     0.246 C 
HETATM   22  O1  UNL     1      23.782   3.185  52.870  1.00  0.00    -0.268 OA
HETATM   23  H6  UNL     1      22.685   1.788  50.292  1.00  0.00     0.170 HD
BRANCH  21  24
HETATM   24  C3  UNL     1      21.936   1.655  52.754  1.00  0.00     0.070 C 
HETATM   25  C2  UNL     1      21.637   0.416  53.178  1.00  0.00    -0.026 C 
HETATM   26  C1  UNL     1      22.177  -0.953  53.331  1.00  0.00     0.036 C 
ENDBRANCH  21  24
ENDBRANCH   1  20
TORSDOF 2
ENDMDL
