MODEL 1
REMARK VINA RESULT:      -8.3      0.000      0.000
REMARK  7 active torsions:
REMARK  status: ('A' for Active; 'I' for Inactive)
REMARK    1  A    between atoms: O1_2  and  C2_3 
REMARK    2  A    between atoms: C7_8  and  O2_9 
REMARK    3  A    between atoms: O2_9  and  C8_10 
REMARK    4  A    between atoms: N2_17  and  C13_18 
REMARK    5  A    between atoms: C13_18  and  N3_19 
REMARK    6  A    between atoms: N3_19  and  C14_20 
REMARK    7  A    between atoms: C14_20  and  C15_21 
ROOT
HETATM    1  C2  UNL     1      20.727  -0.052  52.852  1.00  0.00     0.103 A 
HETATM    2  C3  UNL     1      21.160  -0.797  53.928  1.00  0.00     0.072 A 
HETATM    3  C4  UNL     1      22.496  -0.912  54.154  1.00  0.00     0.073 A 
HETATM    4  C5  UNL     1      23.265  -0.197  53.180  1.00  0.00     0.020 A 
HETATM    5  C6  UNL     1      22.967   0.580  52.067  1.00  0.00     0.055 A 
HETATM    6  C7  UNL     1      21.536   0.612  51.953  1.00  0.00     0.104 A 
HETATM    7  C9  UNL     1      24.590  -0.128  53.164  1.00  0.00     0.041 C 
HETATM    8  C10 UNL     1      25.801  -1.058  53.365  1.00  0.00     0.202 C 
HETATM    9  N1  UNL     1      26.022  -0.413  54.707  1.00  0.00    -0.297 N 
HETATM   10  C11 UNL     1      26.803   0.720  54.326  1.00  0.00     0.165 C 
HETATM   11  C12 UNL     1      26.310   1.417  53.021  1.00  0.00     0.146 C 
HETATM   12  N2  UNL     1      24.806   1.326  53.007  1.00  0.00    -0.355 N 
HETATM   13  N4  UNL     1      25.388  -0.993  55.844  1.00  0.00    -0.170 NA
HETATM   14  C21 UNL     1      24.073  -1.212  56.068  1.00  0.00     0.255 C 
HETATM   15  N5  UNL     1      22.893  -1.610  55.223  1.00  0.00    -0.239 NA
ENDROOT
BRANCH  12  16
HETATM   16  C13 UNL     1      23.590   2.158  52.949  1.00  0.00     0.395 C 
BRANCH  16  17
HETATM   17  N3  UNL     1      24.312   3.492  52.775  1.00  0.00     0.104 NA
HETATM   18  H15 UNL     1      25.300   3.357  52.877  1.00  0.00     0.318 HD
BRANCH  17  19
HETATM   19  C14 UNL     1      23.964   4.040  51.516  1.00  0.00     0.310 C 
BRANCH  19  20
HETATM   20  C15 UNL     1      24.988   4.435  50.586  1.00  0.00    -0.030 A 
HETATM   21  C16 UNL     1      25.137   5.731  50.098  1.00  0.00     0.009 A 
HETATM   22  C17 UNL     1      26.112   6.106  49.212  1.00  0.00     0.001 A 
HETATM   23  C18 UNL     1      27.009   5.149  48.769  1.00  0.00     0.000 A 
HETATM   24  C19 UNL     1      26.897   3.835  49.233  1.00  0.00     0.001 A 
HETATM   25  C20 UNL     1      25.900   3.504  50.125  1.00  0.00     0.009 A 
ENDBRANCH  19  20
ENDBRANCH  17  19
ENDBRANCH  16  17
ENDBRANCH  12  16
BRANCH   6  26
HETATM   26  O2  UNL     1      21.062   1.342  50.893  1.00  0.00    -0.328 OA
BRANCH  26  27
HETATM   27  C8  UNL     1      21.514   1.080  49.617  1.00  0.00     0.348 C 
HETATM   28  S1  UNL     1      22.216   2.157  48.599  1.00  0.00    -0.165 SA
ENDBRANCH  26  27
ENDBRANCH   6  26
BRANCH   1  29
HETATM   29  O1  UNL     1      19.355   0.026  52.677  1.00  0.00    -0.353 OA
HETATM   30  C1  UNL     1      18.518  -0.995  53.155  1.00  0.00     0.210 C 
ENDBRANCH   1  29
TORSDOF 7
ENDMDL
MODEL 2
REMARK VINA RESULT:      -7.9      3.171      5.041
REMARK  7 active torsions:
REMARK  status: ('A' for Active; 'I' for Inactive)
REMARK    1  A    between atoms: O1_2  and  C2_3 
REMARK    2  A    between atoms: C7_8  and  O2_9 
REMARK    3  A    between atoms: O2_9  and  C8_10 
REMARK    4  A    between atoms: N2_17  and  C13_18 
REMARK    5  A    between atoms: C13_18  and  N3_19 
REMARK    6  A    between atoms: N3_19  and  C14_20 
REMARK    7  A    between atoms: C14_20  and  C15_21 
ROOT
HETATM    1  C2  UNL     1      24.771   0.217  53.475  1.00  0.00     0.103 A 
HETATM    2  C3  UNL     1      23.578  -0.267  52.980  1.00  0.00     0.072 A 
HETATM    3  C4  UNL     1      22.672   0.610  52.473  1.00  0.00     0.073 A 
HETATM    4  C5  UNL     1      23.142   1.962  52.543  1.00  0.00     0.020 A 
HETATM    5  C6  UNL     1      24.297   2.581  53.005  1.00  0.00     0.055 A 
HETATM    6  C7  UNL     1      25.152   1.542  53.507  1.00  0.00     0.104 A 
HETATM    7  C9  UNL     1      22.468   3.020  52.112  1.00  0.00     0.041 C 
HETATM    8  C10 UNL     1      21.030   3.570  52.144  1.00  0.00     0.202 C 
HETATM    9  N1  UNL     1      20.897   3.192  50.693  1.00  0.00    -0.297 N 
HETATM   10  C11 UNL     1      21.453   4.350  50.069  1.00  0.00     0.165 C 
HETATM   11  C12 UNL     1      22.727   4.899  50.781  1.00  0.00     0.146 C 
HETATM   12  N2  UNL     1      23.494   3.711  51.303  1.00  0.00    -0.355 N 
HETATM   13  N4  UNL     1      20.394   1.895  50.380  1.00  0.00    -0.170 NA
HETATM   14  C21 UNL     1      20.872   0.685  50.742  1.00  0.00     0.255 C 
HETATM   15  N5  UNL     1      21.538   0.117  51.967  1.00  0.00    -0.239 NA
ENDROOT
BRANCH  12  16
HETATM   16  C13 UNL     1      24.809   3.049  51.224  1.00  0.00     0.395 C 
BRANCH  16  17
HETATM   17  N3  UNL     1      25.074   3.384  49.759  1.00  0.00     0.104 NA
HETATM   18  H15 UNL     1      24.512   4.167  49.484  1.00  0.00     0.318 HD
BRANCH  17  19
HETATM   19  C14 UNL     1      26.460   3.622  49.587  1.00  0.00     0.310 C 
BRANCH  19  20
HETATM   20  C15 UNL     1      26.918   4.834  48.961  1.00  0.00    -0.030 A 
HETATM   21  C16 UNL     1      28.229   5.043  48.537  1.00  0.00     0.009 A 
HETATM   22  C17 UNL     1      28.664   6.197  47.942  1.00  0.00     0.001 A 
HETATM   23  C18 UNL     1      27.757   7.224  47.744  1.00  0.00     0.000 A 
HETATM   24  C19 UNL     1      26.431   7.058  48.154  1.00  0.00     0.001 A 
HETATM   25  C20 UNL     1      26.038   5.878  48.748  1.00  0.00     0.009 A 
ENDBRANCH  19  20
ENDBRANCH  17  19
ENDBRANCH  16  17
ENDBRANCH  12  16
BRANCH   6  26
HETATM   26  O2  UNL     1      26.350   1.981  54.011  1.00  0.00    -0.328 OA
BRANCH  26  27
HETATM   27  C8  UNL     1      27.485   1.940  53.231  1.00  0.00     0.348 C 
HETATM   28  S1  UNL     1      28.999   2.360  53.700  1.00  0.00    -0.165 SA
ENDBRANCH  26  27
ENDBRANCH   6  26
BRANCH   1  29
HETATM   29  O1  UNL     1      25.651  -0.728  53.977  1.00  0.00    -0.353 OA
HETATM   30  C1  UNL     1      26.461  -1.478  53.108  1.00  0.00     0.210 C 
ENDBRANCH   1  29
TORSDOF 7
ENDMDL
MODEL 3
REMARK VINA RESULT:      -7.6      2.812      5.937
REMARK  7 active torsions:
REMARK  status: ('A' for Active; 'I' for Inactive)
REMARK    1  A    between atoms: O1_2  and  C2_3 
REMARK    2  A    between atoms: C7_8  and  O2_9 
REMARK    3  A    between atoms: O2_9  and  C8_10 
REMARK    4  A    between atoms: N2_17  and  C13_18 
REMARK    5  A    between atoms: C13_18  and  N3_19 
REMARK    6  A    between atoms: N3_19  and  C14_20 
REMARK    7  A    between atoms: C14_20  and  C15_21 
ROOT
HETATM    1  C2  UNL     1      23.992   4.882  50.577  1.00  0.00     0.103 A 
HETATM    2  C3  UNL     1      22.623   4.831  50.736  1.00  0.00     0.072 A 
HETATM    3  C4  UNL     1      22.045   3.652  51.086  1.00  0.00     0.073 A 
HETATM    4  C5  UNL     1      23.014   2.608  51.240  1.00  0.00     0.020 A 
HETATM    5  C6  UNL     1      24.395   2.520  51.115  1.00  0.00     0.055 A 
HETATM    6  C7  UNL     1      24.863   3.826  50.744  1.00  0.00     0.104 A 
HETATM    7  C9  UNL     1      22.731   1.359  51.587  1.00  0.00     0.041 C 
HETATM    8  C10 UNL     1      21.687   0.275  51.264  1.00  0.00     0.202 C 
HETATM    9  N1  UNL     1      21.059   0.537  52.606  1.00  0.00    -0.297 N 
HETATM   10  C11 UNL     1      21.856  -0.309  53.437  1.00  0.00     0.165 C 
HETATM   11  C12 UNL     1      23.377  -0.280  53.091  1.00  0.00     0.146 C 
HETATM   12  N2  UNL     1      23.712   1.126  52.668  1.00  0.00    -0.355 N 
HETATM   13  N4  UNL     1      20.022   1.512  52.685  1.00  0.00    -0.170 NA
HETATM   14  C21 UNL     1      20.055   2.820  52.347  1.00  0.00     0.255 C 
HETATM   15  N5  UNL     1      20.721   3.633  51.270  1.00  0.00    -0.239 NA
ENDROOT
BRANCH  12  16
HETATM   16  C13 UNL     1      24.592   2.263  52.999  1.00  0.00     0.395 C 
BRANCH  16  17
HETATM   17  N3  UNL     1      25.447   1.517  54.020  1.00  0.00     0.104 NA
HETATM   18  H15 UNL     1      25.153   0.560  54.071  1.00  0.00     0.318 HD
BRANCH  17  19
HETATM   19  C14 UNL     1      26.810   1.650  53.661  1.00  0.00     0.310 C 
BRANCH  19  20
HETATM   20  C15 UNL     1      27.639   0.484  53.504  1.00  0.00    -0.030 A 
HETATM   21  C16 UNL     1      27.163  -0.755  53.083  1.00  0.00     0.009 A 
HETATM   22  C17 UNL     1      27.952  -1.865  52.935  1.00  0.00     0.001 A 
HETATM   23  C18 UNL     1      29.303  -1.761  53.216  1.00  0.00     0.000 A 
HETATM   24  C19 UNL     1      29.824  -0.535  53.641  1.00  0.00     0.001 A 
HETATM   25  C20 UNL     1      28.992   0.555  53.776  1.00  0.00     0.009 A 
ENDBRANCH  19  20
ENDBRANCH  17  19
ENDBRANCH  16  17
ENDBRANCH  12  16
BRANCH   6  26
HETATM   26  O2  UNL     1      26.221   3.920  50.573  1.00  0.00    -0.328 OA
BRANCH  26  27
HETATM   27  C8  UNL     1      26.761   3.893  49.306  1.00  0.00     0.348 C 
HETATM   28  S1  UNL     1      27.642   5.084  48.603  1.00  0.00    -0.165 SA
ENDBRANCH  26  27
ENDBRANCH   6  26
BRANCH   1  29
HETATM   29  O1  UNL     1      24.519   6.112  50.219  1.00  0.00    -0.353 OA
HETATM   30  C1  UNL     1      24.268   7.250  51.005  1.00  0.00     0.210 C 
ENDBRANCH   1  29
TORSDOF 7
ENDMDL
MODEL 4
REMARK VINA RESULT:      -6.9      2.715      4.865
REMARK  7 active torsions:
REMARK  status: ('A' for Active; 'I' for Inactive)
REMARK    1  A    between atoms: O1_2  and  C2_3 
REMARK    2  A    between atoms: C7_8  and  O2_9 
REMARK    3  A    between atoms: O2_9  and  C8_10 
REMARK    4  A    between atoms: N2_17  and  C13_18 
REMARK    5  A    between atoms: C13_18  and  N3_19 
REMARK    6  A    between atoms: N3_19  and  C14_20 
REMARK    7  A    between atoms: C14_20  and  C15_21 
ROOT
HETATM    1  C2  UNL     1      25.177   1.165  52.125  1.00  0.00     0.103 A 
HETATM    2  C3  UNL     1      24.975   0.227  53.115  1.00  0.00     0.072 A 
HETATM    3  C4  UNL     1      23.711   0.008  53.566  1.00  0.00     0.073 A 
HETATM    4  C5  UNL     1      22.754   0.836  52.894  1.00  0.00     0.020 A 
HETATM    5  C6  UNL     1      22.815   1.803  51.899  1.00  0.00     0.055 A 
HETATM    6  C7  UNL     1      24.196   1.928  51.524  1.00  0.00     0.104 A 
HETATM    7  C9  UNL     1      21.448   0.823  53.126  1.00  0.00     0.041 C 
HETATM    8  C10 UNL     1      20.485   0.770  54.327  1.00  0.00     0.202 C 
HETATM    9  N1  UNL     1      20.195  -0.665  53.978  1.00  0.00    -0.297 N 
HETATM   10  C11 UNL     1      19.163  -0.494  53.005  1.00  0.00     0.165 C 
HETATM   11  C12 UNL     1      19.423   0.679  52.010  1.00  0.00     0.146 C 
HETATM   12  N2  UNL     1      20.907   0.727  51.754  1.00  0.00    -0.355 N 
HETATM   13  N4  UNL     1      20.999  -1.679  54.577  1.00  0.00    -0.170 NA
HETATM   14  C21 UNL     1      22.338  -1.846  54.526  1.00  0.00     0.255 C 
HETATM   15  N5  UNL     1      23.533  -0.931  54.500  1.00  0.00    -0.239 NA
ENDROOT
BRANCH  12  16
HETATM   16  C13 UNL     1      21.904   0.657  50.670  1.00  0.00     0.395 C 
BRANCH  16  17
HETATM   17  N3  UNL     1      20.901   0.711  49.520  1.00  0.00     0.104 NA
HETATM   18  H15 UNL     1      20.049   1.135  49.836  1.00  0.00     0.318 HD
BRANCH  17  19
HETATM   19  C14 UNL     1      21.485   1.407  48.434  1.00  0.00     0.310 C 
BRANCH  19  20
HETATM   20  C15 UNL     1      21.554   2.845  48.444  1.00  0.00    -0.030 A 
HETATM   21  C16 UNL     1      20.802   3.653  49.293  1.00  0.00     0.009 A 
HETATM   22  C17 UNL     1      20.867   5.021  49.301  1.00  0.00     0.001 A 
HETATM   23  C18 UNL     1      21.729   5.649  48.418  1.00  0.00     0.000 A 
HETATM   24  C19 UNL     1      22.503   4.877  47.547  1.00  0.00     0.001 A 
HETATM   25  C20 UNL     1      22.404   3.502  47.575  1.00  0.00     0.009 A 
ENDBRANCH  19  20
ENDBRANCH  17  19
ENDBRANCH  16  17
ENDBRANCH  12  16
BRANCH   6  26
HETATM   26  O2  UNL     1      24.442   2.853  50.542  1.00  0.00    -0.328 OA
BRANCH  26  27
HETATM   27  C8  UNL     1      24.398   4.199  50.835  1.00  0.00     0.348 C 
HETATM   28  S1  UNL     1      25.219   5.387  50.058  1.00  0.00    -0.165 SA
ENDBRANCH  26  27
ENDBRANCH   6  26
BRANCH   1  29
HETATM   29  O1  UNL     1      26.486   1.342  51.710  1.00  0.00    -0.353 OA
HETATM   30  C1  UNL     1      27.544   1.242  52.629  1.00  0.00     0.210 C 
ENDBRANCH   1  29
TORSDOF 7
ENDMDL
MODEL 5
REMARK VINA RESULT:      -6.9      3.582      8.129
REMARK  7 active torsions:
REMARK  status: ('A' for Active; 'I' for Inactive)
REMARK    1  A    between atoms: O1_2  and  C2_3 
REMARK    2  A    between atoms: C7_8  and  O2_9 
REMARK    3  A    between atoms: O2_9  and  C8_10 
REMARK    4  A    between atoms: N2_17  and  C13_18 
REMARK    5  A    between atoms: C13_18  and  N3_19 
REMARK    6  A    between atoms: N3_19  and  C14_20 
REMARK    7  A    between atoms: C14_20  and  C15_21 
ROOT
HETATM    1  C2  UNL     1      26.974   5.087  48.881  1.00  0.00     0.103 A 
HETATM    2  C3  UNL     1      26.685   6.377  48.488  1.00  0.00     0.072 A 
HETATM    3  C4  UNL     1      25.399   6.812  48.551  1.00  0.00     0.073 A 
HETATM    4  C5  UNL     1      24.517   5.797  49.045  1.00  0.00     0.020 A 
HETATM    5  C6  UNL     1      24.667   4.482  49.470  1.00  0.00     0.055 A 
HETATM    6  C7  UNL     1      26.062   4.164  49.349  1.00  0.00     0.104 A 
HETATM    7  C9  UNL     1      23.211   5.949  49.220  1.00  0.00     0.041 C 
HETATM    8  C10 UNL     1      22.007   6.567  48.483  1.00  0.00     0.202 C 
HETATM    9  N1  UNL     1      22.030   7.696  49.477  1.00  0.00    -0.297 N 
HETATM   10  C11 UNL     1      21.248   7.133  50.531  1.00  0.00     0.165 C 
HETATM   11  C12 UNL     1      21.558   5.630  50.812  1.00  0.00     0.146 C 
HETATM   12  N2  UNL     1      23.035   5.430  50.592  1.00  0.00    -0.355 N 
HETATM   13  N4  UNL     1      22.811   8.848  49.168  1.00  0.00    -0.170 NA
HETATM   14  C21 UNL     1      24.133   8.937  48.905  1.00  0.00     0.255 C 
HETATM   15  N5  UNL     1      25.146   8.076  48.199  1.00  0.00    -0.239 NA
ENDROOT
BRANCH  12  16
HETATM   16  C13 UNL     1      24.262   4.975  51.273  1.00  0.00     0.395 C 
BRANCH  16  17
HETATM   17  N3  UNL     1      23.578   4.523  52.560  1.00  0.00     0.104 NA
HETATM   18  H15 UNL     1      22.599   4.737  52.516  1.00  0.00     0.318 HD
BRANCH  17  19
HETATM   19  C14 UNL     1      23.825   3.141  52.751  1.00  0.00     0.310 C 
BRANCH  19  20
HETATM   20  C15 UNL     1      22.916   2.160  52.220  1.00  0.00    -0.030 A 
HETATM   21  C16 UNL     1      22.774   1.887  50.862  1.00  0.00     0.009 A 
HETATM   22  C17 UNL     1      21.908   0.953  50.357  1.00  0.00     0.001 A 
HETATM   23  C18 UNL     1      21.122   0.232  51.240  1.00  0.00     0.000 A 
HETATM   24  C19 UNL     1      21.231   0.474  52.612  1.00  0.00     0.001 A 
HETATM   25  C20 UNL     1      22.117   1.424  53.074  1.00  0.00     0.009 A 
ENDBRANCH  19  20
ENDBRANCH  17  19
ENDBRANCH  16  17
ENDBRANCH  12  16
BRANCH   6  26
HETATM   26  O2  UNL     1      26.393   2.887  49.728  1.00  0.00    -0.328 OA
BRANCH  26  27
HETATM   27  C8  UNL     1      26.791   2.632  51.022  1.00  0.00     0.348 C 
HETATM   28  S1  UNL     1      26.797   1.170  51.764  1.00  0.00    -0.165 SA
ENDBRANCH  26  27
ENDBRANCH   6  26
BRANCH   1  29
HETATM   29  O1  UNL     1      28.303   4.706  48.793  1.00  0.00    -0.353 OA
HETATM   30  C1  UNL     1      29.251   5.561  48.207  1.00  0.00     0.210 C 
ENDBRANCH   1  29
TORSDOF 7
ENDMDL
MODEL 6
REMARK VINA RESULT:      -6.9      2.576      6.417
REMARK  7 active torsions:
REMARK  status: ('A' for Active; 'I' for Inactive)
REMARK    1  A    between atoms: O1_2  and  C2_3 
REMARK    2  A    between atoms: C7_8  and  O2_9 
REMARK    3  A    between atoms: O2_9  and  C8_10 
REMARK    4  A    between atoms: N2_17  and  C13_18 
REMARK    5  A    between atoms: C13_18  and  N3_19 
REMARK    6  A    between atoms: N3_19  and  C14_20 
REMARK    7  A    between atoms: C14_20  and  C15_21 
ROOT
HETATM    1  C2  UNL     1      25.535   3.950  50.051  1.00  0.00     0.103 A 
HETATM    2  C3  UNL     1      26.466   2.979  50.353  1.00  0.00     0.072 A 
HETATM    3  C4  UNL     1      26.185   2.081  51.335  1.00  0.00     0.073 A 
HETATM    4  C5  UNL     1      24.897   2.314  51.917  1.00  0.00     0.020 A 
HETATM    5  C6  UNL     1      23.877   3.235  51.716  1.00  0.00     0.055 A 
HETATM    6  C7  UNL     1      24.308   4.110  50.662  1.00  0.00     0.104 A 
HETATM    7  C9  UNL     1      24.363   1.584  52.888  1.00  0.00     0.041 C 
HETATM    8  C10 UNL     1      24.791   0.931  54.216  1.00  0.00     0.202 C 
HETATM    9  N1  UNL     1      24.760  -0.404  53.521  1.00  0.00    -0.297 N 
HETATM   10  C11 UNL     1      23.380  -0.740  53.662  1.00  0.00     0.165 C 
HETATM   11  C12 UNL     1      22.411   0.460  53.429  1.00  0.00     0.146 C 
HETATM   12  N2  UNL     1      23.014   1.317  52.346  1.00  0.00    -0.355 N 
HETATM   13  N4  UNL     1      25.959  -0.869  52.905  1.00  0.00    -0.170 NA
HETATM   14  C21 UNL     1      26.704  -0.286  51.941  1.00  0.00     0.255 C 
HETATM   15  N5  UNL     1      27.085   1.127  51.587  1.00  0.00    -0.239 NA
ENDROOT
BRANCH  12  16
HETATM   16  C13 UNL     1      22.731   1.876  51.011  1.00  0.00     0.395 C 
BRANCH  16  17
HETATM   17  N3  UNL     1      21.809   0.749  50.554  1.00  0.00     0.104 NA
HETATM   18  H15 UNL     1      21.756   0.046  51.265  1.00  0.00     0.318 HD
BRANCH  17  19
HETATM   19  C14 UNL     1      20.541   1.296  50.234  1.00  0.00     0.310 C 
BRANCH  19  20
HETATM   20  C15 UNL     1      19.337   0.671  50.713  1.00  0.00    -0.030 A 
HETATM   21  C16 UNL     1      19.255  -0.046  51.904  1.00  0.00     0.009 A 
HETATM   22  C17 UNL     1      18.109  -0.642  52.359  1.00  0.00     0.001 A 
HETATM   23  C18 UNL     1      16.958  -0.532  51.599  1.00  0.00     0.000 A 
HETATM   24  C19 UNL     1      16.994   0.179  50.395  1.00  0.00     0.001 A 
HETATM   25  C20 UNL     1      18.171   0.762  49.978  1.00  0.00     0.009 A 
ENDBRANCH  19  20
ENDBRANCH  17  19
ENDBRANCH  16  17
ENDBRANCH  12  16
BRANCH   6  26
HETATM   26  O2  UNL     1      23.412   5.094  50.331  1.00  0.00    -0.328 OA
BRANCH  26  27
HETATM   27  C8  UNL     1      23.347   6.249  51.080  1.00  0.00     0.348 C 
HETATM   28  S1  UNL     1      23.759   7.754  50.577  1.00  0.00    -0.165 SA
ENDBRANCH  26  27
ENDBRANCH   6  26
BRANCH   1  29
HETATM   29  O1  UNL     1      25.881   4.834  49.042  1.00  0.00    -0.353 OA
HETATM   30  C1  UNL     1      27.232   5.064  48.729  1.00  0.00     0.210 C 
ENDBRANCH   1  29
TORSDOF 7
ENDMDL
MODEL 7
REMARK VINA RESULT:      -6.8      3.381      5.805
REMARK  7 active torsions:
REMARK  status: ('A' for Active; 'I' for Inactive)
REMARK    1  A    between atoms: O1_2  and  C2_3 
REMARK    2  A    between atoms: C7_8  and  O2_9 
REMARK    3  A    between atoms: O2_9  and  C8_10 
REMARK    4  A    between atoms: N2_17  and  C13_18 
REMARK    5  A    between atoms: C13_18  and  N3_19 
REMARK    6  A    between atoms: N3_19  and  C14_20 
REMARK    7  A    between atoms: C14_20  and  C15_21 
ROOT
HETATM    1  C2  UNL     1      24.936   1.606  52.539  1.00  0.00     0.103 A 
HETATM    2  C3  UNL     1      25.360   2.417  51.509  1.00  0.00     0.072 A 
HETATM    3  C4  UNL     1      24.521   2.646  50.464  1.00  0.00     0.073 A 
HETATM    4  C5  UNL     1      23.270   1.967  50.625  1.00  0.00     0.020 A 
HETATM    5  C6  UNL     1      22.719   1.135  51.592  1.00  0.00     0.055 A 
HETATM    6  C7  UNL     1      23.707   0.983  52.623  1.00  0.00     0.104 A 
HETATM    7  C9  UNL     1      22.263   2.022  49.764  1.00  0.00     0.041 C 
HETATM    8  C10 UNL     1      22.036   1.973  48.241  1.00  0.00     0.202 C 
HETATM    9  N1  UNL     1      21.775   3.455  48.274  1.00  0.00    -0.297 N 
HETATM   10  C11 UNL     1      20.385   3.468  48.601  1.00  0.00     0.165 C 
HETATM   11  C12 UNL     1      19.982   2.422  49.685  1.00  0.00     0.146 C 
HETATM   12  N2  UNL     1      21.127   2.325  50.660  1.00  0.00    -0.355 N 
HETATM   13  N4  UNL     1      22.879   4.336  48.081  1.00  0.00    -0.170 NA
HETATM   14  C21 UNL     1      24.026   4.434  48.790  1.00  0.00     0.255 C 
HETATM   15  N5  UNL     1      24.938   3.464  49.493  1.00  0.00    -0.239 NA
ENDROOT
BRANCH  12  16
HETATM   16  C13 UNL     1      21.454   2.479  52.089  1.00  0.00     0.395 C 
BRANCH  16  17
HETATM   17  N3  UNL     1      21.000   3.932  52.206  1.00  0.00     0.104 NA
HETATM   18  H15 UNL     1      20.324   4.016  52.942  1.00  0.00     0.318 HD
BRANCH  17  19
HETATM   19  C14 UNL     1      22.136   4.752  52.413  1.00  0.00     0.310 C 
BRANCH  19  20
HETATM   20  C15 UNL     1      22.381   5.883  51.558  1.00  0.00    -0.030 A 
HETATM   21  C16 UNL     1      21.431   6.428  50.698  1.00  0.00     0.009 A 
HETATM   22  C17 UNL     1      21.665   7.504  49.883  1.00  0.00     0.001 A 
HETATM   23  C18 UNL     1      22.918   8.094  49.908  1.00  0.00     0.000 A 
HETATM   24  C19 UNL     1      23.903   7.580  50.756  1.00  0.00     0.001 A 
HETATM   25  C20 UNL     1      23.620   6.495  51.559  1.00  0.00     0.009 A 
ENDBRANCH  19  20
ENDBRANCH  17  19
ENDBRANCH  16  17
ENDBRANCH  12  16
BRANCH   6  26
HETATM   26  O2  UNL     1      23.327   0.180  53.668  1.00  0.00    -0.328 OA
BRANCH  26  27
HETATM   27  C8  UNL     1      22.580  -0.954  53.431  1.00  0.00     0.348 C 
HETATM   28  S1  UNL     1      21.277  -1.452  54.292  1.00  0.00    -0.165 SA
ENDBRANCH  26  27
ENDBRANCH   6  26
BRANCH   1  29
HETATM   29  O1  UNL     1      25.837   1.412  53.573  1.00  0.00    -0.353 OA
HETATM   30  C1  UNL     1      26.879   0.479  53.444  1.00  0.00     0.210 C 
ENDBRANCH   1  29
TORSDOF 7
ENDMDL
MODEL 8
REMARK VINA RESULT:      -6.8      4.819      8.041
REMARK  7 active torsions:
REMARK  status: ('A' for Active; 'I' for Inactive)
REMARK    1  A    between atoms: O1_2  and  C2_3 
REMARK    2  A    between atoms: C7_8  and  O2_9 
REMARK    3  A    between atoms: O2_9  and  C8_10 
REMARK    4  A    between atoms: N2_17  and  C13_18 
REMARK    5  A    between atoms: C13_18  and  N3_19 
REMARK    6  A    between atoms: N3_19  and  C14_20 
REMARK    7  A    between atoms: C14_20  and  C15_21 
ROOT
HETATM    1  C2  UNL     1      26.196   7.899  49.916  1.00  0.00     0.103 A 
HETATM    2  C3  UNL     1      24.931   8.177  50.390  1.00  0.00     0.072 A 
HETATM    3  C4  UNL     1      23.919   7.315  50.109  1.00  0.00     0.073 A 
HETATM    4  C5  UNL     1      24.368   6.203  49.325  1.00  0.00     0.020 A 
HETATM    5  C6  UNL     1      25.586   5.804  48.789  1.00  0.00     0.055 A 
HETATM    6  C7  UNL     1      26.551   6.800  49.163  1.00  0.00     0.104 A 
HETATM    7  C9  UNL     1      23.596   5.205  48.915  1.00  0.00     0.041 C 
HETATM    8  C10 UNL     1      22.192   4.996  48.317  1.00  0.00     0.202 C 
HETATM    9  N1  UNL     1      21.743   4.478  49.657  1.00  0.00    -0.297 N 
HETATM   10  C11 UNL     1      22.125   3.106  49.547  1.00  0.00     0.165 C 
HETATM   11  C12 UNL     1      23.516   2.890  48.877  1.00  0.00     0.146 C 
HETATM   12  N2  UNL     1      24.402   4.030  49.309  1.00  0.00    -0.355 N 
HETATM   13  N4  UNL     1      21.206   5.410  50.593  1.00  0.00    -0.170 NA
HETATM   14  C21 UNL     1      21.775   6.518  51.115  1.00  0.00     0.255 C 
HETATM   15  N5  UNL     1      22.709   7.585  50.607  1.00  0.00    -0.239 NA
ENDROOT
BRANCH  12  16
HETATM   16  C13 UNL     1      25.677   4.320  49.991  1.00  0.00     0.395 C 
BRANCH  16  17
HETATM   17  N3  UNL     1      26.097   2.865  50.179  1.00  0.00     0.104 NA
HETATM   18  H15 UNL     1      27.055   2.752  49.907  1.00  0.00     0.318 HD
BRANCH  17  19
HETATM   19  C14 UNL     1      25.866   2.492  51.526  1.00  0.00     0.310 C 
BRANCH  19  20
HETATM   20  C15 UNL     1      26.777   1.607  52.203  1.00  0.00    -0.030 A 
HETATM   21  C16 UNL     1      27.874   2.040  52.944  1.00  0.00     0.009 A 
HETATM   22  C17 UNL     1      28.741   1.196  53.587  1.00  0.00     0.001 A 
HETATM   23  C18 UNL     1      28.524  -0.168  53.502  1.00  0.00     0.000 A 
HETATM   24  C19 UNL     1      27.435  -0.647  52.769  1.00  0.00     0.001 A 
HETATM   25  C20 UNL     1      26.588   0.240  52.139  1.00  0.00     0.009 A 
ENDBRANCH  19  20
ENDBRANCH  17  19
ENDBRANCH  16  17
ENDBRANCH  12  16
BRANCH   6  26
HETATM   26  O2  UNL     1      27.824   6.563  48.709  1.00  0.00    -0.328 OA
BRANCH  26  27
HETATM   27  C8  UNL     1      28.218   7.039  47.477  1.00  0.00     0.348 C 
HETATM   28  S1  UNL     1      29.680   7.682  47.110  1.00  0.00    -0.165 SA
ENDBRANCH  26  27
ENDBRANCH   6  26
BRANCH   1  29
HETATM   29  O1  UNL     1      27.183   8.817  50.238  1.00  0.00    -0.353 OA
HETATM   30  C1  UNL     1      27.341   9.988  49.478  1.00  0.00     0.210 C 
ENDBRANCH   1  29
TORSDOF 7
ENDMDL
MODEL 9
REMARK VINA RESULT:      -6.7      2.912      5.442
REMARK  7 active torsions:
REMARK  status: ('A' for Active; 'I' for Inactive)
REMARK    1  A    between atoms: O1_2  and  C2_3 
REMARK    2  A    between atoms: C7_8  and  O2_9 
REMARK    3  A    between atoms: O2_9  and  C8_10 
REMARK    4  A    between atoms: N2_17  and  C13_18 
REMARK    5  A    between atoms: C13_18  and  N3_19 
REMARK    6  A    between atoms: N3_19  and  C14_20 
REMARK    7  A    between atoms: C14_20  and  C15_21 
ROOT
HETATM    1  C2  UNL     1      25.673   4.102  49.842  1.00  0.00     0.103 A 
HETATM    2  C3  UNL     1      26.610   3.214  50.327  1.00  0.00     0.072 A 
HETATM    3  C4  UNL     1      26.234   2.312  51.273  1.00  0.00     0.073 A 
HETATM    4  C5  UNL     1      24.851   2.449  51.619  1.00  0.00     0.020 A 
HETATM    5  C6  UNL     1      23.812   3.281  51.219  1.00  0.00     0.055 A 
HETATM    6  C7  UNL     1      24.351   4.171  50.229  1.00  0.00     0.104 A 
HETATM    7  C9  UNL     1      24.215   1.694  52.506  1.00  0.00     0.041 C 
HETATM    8  C10 UNL     1      24.456   1.098  53.906  1.00  0.00     0.202 C 
HETATM    9  N1  UNL     1      24.649  -0.245  53.256  1.00  0.00    -0.297 N 
HETATM   10  C11 UNL     1      23.295  -0.690  53.168  1.00  0.00     0.165 C 
HETATM   11  C12 UNL     1      22.292   0.423  52.738  1.00  0.00     0.146 C 
HETATM   12  N2  UNL     1      23.005   1.309  51.749  1.00  0.00    -0.355 N 
HETATM   13  N4  UNL     1      25.969  -0.622  52.868  1.00  0.00    -0.170 NA
HETATM   14  C21 UNL     1      26.822   0.005  52.029  1.00  0.00     0.255 C 
HETATM   15  N5  UNL     1      27.148   1.438  51.703  1.00  0.00    -0.239 NA
ENDROOT
BRANCH  12  16
HETATM   16  C13 UNL     1      22.915   1.822  50.370  1.00  0.00     0.395 C 
BRANCH  16  17
HETATM   17  N3  UNL     1      21.708   0.981  49.960  1.00  0.00     0.104 NA
HETATM   18  H15 UNL     1      20.931   1.192  50.557  1.00  0.00     0.318 HD
BRANCH  17  19
HETATM   19  C14 UNL     1      21.426   1.220  48.593  1.00  0.00     0.310 C 
BRANCH  19  20
HETATM   20  C15 UNL     1      21.283   2.565  48.104  1.00  0.00    -0.030 A 
HETATM   21  C16 UNL     1      20.363   3.481  48.608  1.00  0.00     0.009 A 
HETATM   22  C17 UNL     1      20.227   4.762  48.141  1.00  0.00     0.001 A 
HETATM   23  C18 UNL     1      21.047   5.182  47.108  1.00  0.00     0.000 A 
HETATM   24  C19 UNL     1      21.984   4.295  46.571  1.00  0.00     0.001 A 
HETATM   25  C20 UNL     1      22.086   3.015  47.073  1.00  0.00     0.009 A 
ENDBRANCH  19  20
ENDBRANCH  17  19
ENDBRANCH  16  17
ENDBRANCH  12  16
BRANCH   6  26
HETATM   26  O2  UNL     1      23.452   5.074  49.721  1.00  0.00    -0.328 OA
BRANCH  26  27
HETATM   27  C8  UNL     1      23.053   6.153  50.479  1.00  0.00     0.348 C 
HETATM   28  S1  UNL     1      23.936   7.499  50.787  1.00  0.00    -0.165 SA
ENDBRANCH  26  27
ENDBRANCH   6  26
BRANCH   1  29
HETATM   29  O1  UNL     1      26.119   4.994  48.881  1.00  0.00    -0.353 OA
HETATM   30  C1  UNL     1      27.492   5.120  48.608  1.00  0.00     0.210 C 
ENDBRANCH   1  29
TORSDOF 7
ENDMDL
