MODEL 1
REMARK VINA RESULT:      -6.8      0.000      0.000
REMARK  9 active torsions:
REMARK  status: ('A' for Active; 'I' for Inactive)
REMARK    1  A    between atoms: N1_2  and  C3_4 
REMARK    2  A    between atoms: C3_4  and  C4_5 
REMARK    3  A    between atoms: C4_5  and  C5_6 
REMARK    4  A    between atoms: C5_6  and  C6_7 
REMARK    5  A    between atoms: C6_7  and  C7_9 
REMARK    6  A    between atoms: C10_12  and  O2_13 
REMARK    7  A    between atoms: O2_13  and  C11_14 
REMARK    8  A    between atoms: C11_14  and  C12_15 
REMARK    9  A    between atoms: C17_20  and  S1_21 
ROOT
HETATM    1  C7  UNL     1      23.916   1.257  52.564  1.00  0.00     0.010 A 
HETATM    2  C8  UNL     1      24.318   2.403  53.251  1.00  0.00     0.018 A 
HETATM    3  C9  UNL     1      24.317   3.651  52.688  1.00  0.00     0.037 A 
HETATM    4  C10 UNL     1      23.910   3.838  51.386  1.00  0.00     0.069 A 
HETATM    5  C18 UNL     1      23.509   2.736  50.684  1.00  0.00     0.037 A 
HETATM    6  C19 UNL     1      23.514   1.489  51.258  1.00  0.00     0.018 A 
ENDROOT
BRANCH   4   7
HETATM    7  O2  UNL     1      23.871   5.051  50.724  1.00  0.00    -0.347 OA
BRANCH   7   8
HETATM    8  C11 UNL     1      24.034   5.017  49.308  1.00  0.00     0.215 C 
BRANCH   8   9
HETATM    9  C12 UNL     1      25.401   5.443  48.929  1.00  0.00    -0.018 A 
HETATM   10  C13 UNL     1      26.465   4.580  49.042  1.00  0.00     0.011 A 
HETATM   11  C14 UNL     1      27.755   4.892  48.712  1.00  0.00     0.001 A 
HETATM   12  C15 UNL     1      28.045   6.157  48.226  1.00  0.00     0.001 A 
HETATM   13  C16 UNL     1      26.968   7.024  48.114  1.00  0.00     0.019 A 
HETATM   14  C17 UNL     1      25.672   6.701  48.449  1.00  0.00     0.006 A 
BRANCH  14  15
HETATM   15  S1  UNL     1      24.324   7.869  48.279  1.00  0.00    -0.142 SA
HETATM   16  H21 UNL     1      24.222   8.722  49.399  1.00  0.00     0.107 HD
ENDBRANCH  14  15
ENDBRANCH   8   9
ENDBRANCH   7   8
ENDBRANCH   4   7
BRANCH   1  17
HETATM   17  C6  UNL     1      23.917  -0.089  53.179  1.00  0.00     0.159 C 
HETATM   18  O1  UNL     1      22.763  -0.638  53.189  1.00  0.00    -0.292 OA
BRANCH  17  19
HETATM   19  C5  UNL     1      25.244  -0.540  53.663  1.00  0.00     0.085 C 
BRANCH  19  20
HETATM   20  C4  UNL     1      26.196  -0.764  52.517  1.00  0.00     0.038 C 
BRANCH  20  21
HETATM   21  C3  UNL     1      27.635  -0.609  52.936  1.00  0.00     0.271 C 
BRANCH  21  22
HETATM   22  N1  UNL     1      27.744   0.540  53.803  1.00  0.00     0.080 N 
HETATM   23  C1  UNL     1      28.674   0.334  54.885  1.00  0.00     0.309 C 
HETATM   24  C2  UNL     1      27.986   1.763  53.078  1.00  0.00     0.309 C 
ENDBRANCH  21  22
ENDBRANCH  20  21
ENDBRANCH  19  20
ENDBRANCH  17  19
ENDBRANCH   1  17
TORSDOF 9
ENDMDL
MODEL 2
REMARK VINA RESULT:      -6.7      2.696      4.133
REMARK  9 active torsions:
REMARK  status: ('A' for Active; 'I' for Inactive)
REMARK    1  A    between atoms: N1_2  and  C3_4 
REMARK    2  A    between atoms: C3_4  and  C4_5 
REMARK    3  A    between atoms: C4_5  and  C5_6 
REMARK    4  A    between atoms: C5_6  and  C6_7 
REMARK    5  A    between atoms: C6_7  and  C7_9 
REMARK    6  A    between atoms: C10_12  and  O2_13 
REMARK    7  A    between atoms: O2_13  and  C11_14 
REMARK    8  A    between atoms: C11_14  and  C12_15 
REMARK    9  A    between atoms: C17_20  and  S1_21 
ROOT
HETATM    1  C7  UNL     1      25.080   0.263  53.469  1.00  0.00     0.010 A 
HETATM    2  C8  UNL     1      24.779   1.626  53.467  1.00  0.00     0.018 A 
HETATM    3  C9  UNL     1      25.407   2.529  52.650  1.00  0.00     0.037 A 
HETATM    4  C10 UNL     1      26.389   2.123  51.773  1.00  0.00     0.069 A 
HETATM    5  C18 UNL     1      26.707   0.794  51.750  1.00  0.00     0.037 A 
HETATM    6  C19 UNL     1      26.072  -0.102  52.571  1.00  0.00     0.018 A 
ENDROOT
BRANCH   4   7
HETATM    7  O2  UNL     1      27.083   2.949  50.909  1.00  0.00    -0.347 OA
BRANCH   7   8
HETATM    8  C11 UNL     1      26.539   3.117  49.603  1.00  0.00     0.215 C 
BRANCH   8   9
HETATM    9  C12 UNL     1      26.734   4.507  49.130  1.00  0.00    -0.018 A 
HETATM   10  C13 UNL     1      27.941   4.911  48.609  1.00  0.00     0.011 A 
HETATM   11  C14 UNL     1      28.204   6.172  48.148  1.00  0.00     0.001 A 
HETATM   12  C15 UNL     1      27.206   7.133  48.193  1.00  0.00     0.001 A 
HETATM   13  C16 UNL     1      25.991   6.721  48.719  1.00  0.00     0.019 A 
HETATM   14  C17 UNL     1      25.736   5.448  49.181  1.00  0.00     0.006 A 
BRANCH  14  15
HETATM   15  S1  UNL     1      24.141   4.979  49.848  1.00  0.00    -0.142 SA
HETATM   16  H21 UNL     1      23.085   5.319  48.976  1.00  0.00     0.107 HD
ENDBRANCH  14  15
ENDBRANCH   8   9
ENDBRANCH   7   8
ENDBRANCH   4   7
BRANCH   1  17
HETATM   17  C6  UNL     1      24.395  -0.708  54.351  1.00  0.00     0.159 C 
HETATM   18  O1  UNL     1      25.041  -0.950  55.427  1.00  0.00    -0.292 OA
BRANCH  17  19
HETATM   19  C5  UNL     1      23.103  -1.209  53.825  1.00  0.00     0.085 C 
BRANCH  19  20
HETATM   20  C4  UNL     1      21.945  -0.417  54.373  1.00  0.00     0.038 C 
BRANCH  20  21
HETATM   21  C3  UNL     1      20.622  -0.905  53.845  1.00  0.00     0.271 C 
BRANCH  21  22
HETATM   22  N1  UNL     1      19.891   0.222  53.316  1.00  0.00     0.080 N 
HETATM   23  C1  UNL     1      20.743   1.345  53.015  1.00  0.00     0.309 C 
HETATM   24  C2  UNL     1      19.028  -0.139  52.219  1.00  0.00     0.309 C 
ENDBRANCH  21  22
ENDBRANCH  20  21
ENDBRANCH  19  20
ENDBRANCH  17  19
ENDBRANCH   1  17
TORSDOF 9
ENDMDL
MODEL 3
REMARK VINA RESULT:      -6.6      5.116      8.366
REMARK  9 active torsions:
REMARK  status: ('A' for Active; 'I' for Inactive)
REMARK    1  A    between atoms: N1_2  and  C3_4 
REMARK    2  A    between atoms: C3_4  and  C4_5 
REMARK    3  A    between atoms: C4_5  and  C5_6 
REMARK    4  A    between atoms: C5_6  and  C6_7 
REMARK    5  A    between atoms: C6_7  and  C7_9 
REMARK    6  A    between atoms: C10_12  and  O2_13 
REMARK    7  A    between atoms: O2_13  and  C11_14 
REMARK    8  A    between atoms: C11_14  and  C12_15 
REMARK    9  A    between atoms: C17_20  and  S1_21 
ROOT
HETATM    1  C7  UNL     1      23.291   1.031  52.989  1.00  0.00     0.010 A 
HETATM    2  C8  UNL     1      23.381  -0.300  53.400  1.00  0.00     0.018 A 
HETATM    3  C9  UNL     1      22.284  -1.073  53.674  1.00  0.00     0.037 A 
HETATM    4  C10 UNL     1      21.011  -0.560  53.555  1.00  0.00     0.069 A 
HETATM    5  C18 UNL     1      20.888   0.740  53.154  1.00  0.00     0.037 A 
HETATM    6  C19 UNL     1      21.993   1.506  52.882  1.00  0.00     0.018 A 
ENDROOT
BRANCH   4   7
HETATM    7  O2  UNL     1      19.841  -1.252  53.806  1.00  0.00    -0.347 OA
BRANCH   7   8
HETATM    8  C11 UNL     1      18.647  -0.730  53.230  1.00  0.00     0.215 C 
BRANCH   8   9
HETATM    9  C12 UNL     1      17.621  -1.789  53.102  1.00  0.00    -0.018 A 
HETATM   10  C13 UNL     1      17.820  -3.033  53.653  1.00  0.00     0.011 A 
HETATM   11  C14 UNL     1      16.924  -4.064  53.584  1.00  0.00     0.001 A 
HETATM   12  C15 UNL     1      15.722  -3.876  52.921  1.00  0.00     0.001 A 
HETATM   13  C16 UNL     1      15.525  -2.620  52.367  1.00  0.00     0.019 A 
HETATM   14  C17 UNL     1      16.434  -1.587  52.442  1.00  0.00     0.006 A 
BRANCH  14  15
HETATM   15  S1  UNL     1      16.118   0.015  51.705  1.00  0.00    -0.142 SA
HETATM   16  H21 UNL     1      16.897   1.031  52.300  1.00  0.00     0.107 HD
ENDBRANCH  14  15
ENDBRANCH   8   9
ENDBRANCH   7   8
ENDBRANCH   4   7
BRANCH   1  17
HETATM   17  C6  UNL     1      24.480   1.860  52.692  1.00  0.00     0.159 C 
HETATM   18  O1  UNL     1      24.591   2.874  53.463  1.00  0.00    -0.292 OA
BRANCH  17  19
HETATM   19  C5  UNL     1      25.309   1.362  51.568  1.00  0.00     0.085 C 
BRANCH  19  20
HETATM   20  C4  UNL     1      26.767   1.315  51.943  1.00  0.00     0.038 C 
BRANCH  20  21
HETATM   21  C3  UNL     1      27.101   0.098  52.767  1.00  0.00     0.271 C 
BRANCH  21  22
HETATM   22  N1  UNL     1      27.524   0.530  54.078  1.00  0.00     0.080 N 
HETATM   23  C1  UNL     1      26.596   0.150  55.114  1.00  0.00     0.309 C 
HETATM   24  C2  UNL     1      28.884   0.153  54.377  1.00  0.00     0.309 C 
ENDBRANCH  21  22
ENDBRANCH  20  21
ENDBRANCH  19  20
ENDBRANCH  17  19
ENDBRANCH   1  17
TORSDOF 9
ENDMDL
MODEL 4
REMARK VINA RESULT:      -6.4      4.250      6.951
REMARK  9 active torsions:
REMARK  status: ('A' for Active; 'I' for Inactive)
REMARK    1  A    between atoms: N1_2  and  C3_4 
REMARK    2  A    between atoms: C3_4  and  C4_5 
REMARK    3  A    between atoms: C4_5  and  C5_6 
REMARK    4  A    between atoms: C5_6  and  C6_7 
REMARK    5  A    between atoms: C6_7  and  C7_9 
REMARK    6  A    between atoms: C10_12  and  O2_13 
REMARK    7  A    between atoms: O2_13  and  C11_14 
REMARK    8  A    between atoms: C11_14  and  C12_15 
REMARK    9  A    between atoms: C17_20  and  S1_21 
ROOT
HETATM    1  C7  UNL     1      24.067  -0.228  53.529  1.00  0.00     0.010 A 
HETATM    2  C8  UNL     1      23.989   1.018  52.905  1.00  0.00     0.018 A 
HETATM    3  C9  UNL     1      22.804   1.588  52.520  1.00  0.00     0.037 A 
HETATM    4  C10 UNL     1      21.607   0.942  52.735  1.00  0.00     0.069 A 
HETATM    5  C18 UNL     1      21.648  -0.280  53.345  1.00  0.00     0.037 A 
HETATM    6  C19 UNL     1      22.840  -0.842  53.727  1.00  0.00     0.018 A 
ENDROOT
BRANCH   4   7
HETATM    7  O2  UNL     1      20.360   1.427  52.386  1.00  0.00    -0.347 OA
BRANCH   7   8
HETATM    8  C11 UNL     1      19.684   0.758  51.324  1.00  0.00     0.215 C 
BRANCH   8   9
HETATM    9  C12 UNL     1      18.323   0.354  51.744  1.00  0.00    -0.018 A 
HETATM   10  C13 UNL     1      18.112  -0.834  52.402  1.00  0.00     0.011 A 
HETATM   11  C14 UNL     1      16.890  -1.281  52.826  1.00  0.00     0.001 A 
HETATM   12  C15 UNL     1      15.766  -0.505  52.593  1.00  0.00     0.001 A 
HETATM   13  C16 UNL     1      15.983   0.693  51.929  1.00  0.00     0.019 A 
HETATM   14  C17 UNL     1      17.218   1.134  51.506  1.00  0.00     0.006 A 
BRANCH  14  15
HETATM   15  S1  UNL     1      17.431   2.696  50.653  1.00  0.00    -0.142 SA
HETATM   16  H21 UNL     1      17.922   2.517  49.342  1.00  0.00     0.107 HD
ENDBRANCH  14  15
ENDBRANCH   8   9
ENDBRANCH   7   8
ENDBRANCH   4   7
BRANCH   1  17
HETATM   17  C6  UNL     1      25.350  -0.837  53.945  1.00  0.00     0.159 C 
HETATM   18  O1  UNL     1      25.535  -0.802  55.209  1.00  0.00    -0.292 OA
BRANCH  17  19
HETATM   19  C5  UNL     1      26.168  -1.365  52.827  1.00  0.00     0.085 C 
BRANCH  19  20
HETATM   20  C4  UNL     1      27.593  -0.887  52.920  1.00  0.00     0.038 C 
BRANCH  20  21
HETATM   21  C3  UNL     1      27.706   0.603  52.731  1.00  0.00     0.271 C 
BRANCH  21  22
HETATM   22  N1  UNL     1      28.773   1.096  53.570  1.00  0.00     0.080 N 
HETATM   23  C1  UNL     1      28.777   2.534  53.674  1.00  0.00     0.309 C 
HETATM   24  C2  UNL     1      28.820   0.440  54.853  1.00  0.00     0.309 C 
ENDBRANCH  21  22
ENDBRANCH  20  21
ENDBRANCH  19  20
ENDBRANCH  17  19
ENDBRANCH   1  17
TORSDOF 9
ENDMDL
MODEL 5
REMARK VINA RESULT:      -6.4      3.518      7.850
REMARK  9 active torsions:
REMARK  status: ('A' for Active; 'I' for Inactive)
REMARK    1  A    between atoms: N1_2  and  C3_4 
REMARK    2  A    between atoms: C3_4  and  C4_5 
REMARK    3  A    between atoms: C4_5  and  C5_6 
REMARK    4  A    between atoms: C5_6  and  C6_7 
REMARK    5  A    between atoms: C6_7  and  C7_9 
REMARK    6  A    between atoms: C10_12  and  O2_13 
REMARK    7  A    between atoms: O2_13  and  C11_14 
REMARK    8  A    between atoms: C11_14  and  C12_15 
REMARK    9  A    between atoms: C17_20  and  S1_21 
ROOT
HETATM    1  C7  UNL     1      26.348   4.775  49.473  1.00  0.00     0.010 A 
HETATM    2  C8  UNL     1      25.249   5.446  50.013  1.00  0.00     0.018 A 
HETATM    3  C9  UNL     1      24.319   4.835  50.811  1.00  0.00     0.037 A 
HETATM    4  C10 UNL     1      24.426   3.498  51.123  1.00  0.00     0.069 A 
HETATM    5  C18 UNL     1      25.491   2.811  50.610  1.00  0.00     0.037 A 
HETATM    6  C19 UNL     1      26.417   3.433  49.812  1.00  0.00     0.018 A 
ENDROOT
BRANCH   4   7
HETATM    7  O2  UNL     1      23.545   2.786  51.916  1.00  0.00    -0.347 OA
BRANCH   7   8
HETATM    8  C11 UNL     1      23.302   1.430  51.552  1.00  0.00     0.215 C 
BRANCH   8   9
HETATM    9  C12 UNL     1      22.803   0.658  52.712  1.00  0.00    -0.018 A 
HETATM   10  C13 UNL     1      21.479   0.716  53.081  1.00  0.00     0.011 A 
HETATM   11  C14 UNL     1      20.937   0.034  54.135  1.00  0.00     0.001 A 
HETATM   12  C15 UNL     1      21.749  -0.782  54.906  1.00  0.00     0.001 A 
HETATM   13  C16 UNL     1      23.083  -0.838  54.531  1.00  0.00     0.019 A 
HETATM   14  C17 UNL     1      23.620  -0.147  53.467  1.00  0.00     0.006 A 
BRANCH  14  15
HETATM   15  S1  UNL     1      25.355  -0.264  53.033  1.00  0.00    -0.142 SA
HETATM   16  H21 UNL     1      26.178   0.401  53.968  1.00  0.00     0.107 HD
ENDBRANCH  14  15
ENDBRANCH   8   9
ENDBRANCH   7   8
ENDBRANCH   4   7
BRANCH   1  17
HETATM   17  C6  UNL     1      27.351   5.443  48.613  1.00  0.00     0.159 C 
HETATM   18  O1  UNL     1      28.412   4.751  48.450  1.00  0.00    -0.292 OA
BRANCH  17  19
HETATM   19  C5  UNL     1      26.937   6.775  48.110  1.00  0.00     0.085 C 
BRANCH  19  20
HETATM   20  C4  UNL     1      28.125   7.576  47.645  1.00  0.00     0.038 C 
BRANCH  20  21
HETATM   21  C3  UNL     1      28.663   8.475  48.729  1.00  0.00     0.271 C 
BRANCH  21  22
HETATM   22  N1  UNL     1      30.061   8.175  48.926  1.00  0.00     0.080 N 
HETATM   23  C1  UNL     1      30.649   7.498  47.796  1.00  0.00     0.309 C 
HETATM   24  C2  UNL     1      30.822   9.323  49.351  1.00  0.00     0.309 C 
ENDBRANCH  21  22
ENDBRANCH  20  21
ENDBRANCH  19  20
ENDBRANCH  17  19
ENDBRANCH   1  17
TORSDOF 9
ENDMDL
MODEL 6
REMARK VINA RESULT:      -6.4      3.369      7.558
REMARK  9 active torsions:
REMARK  status: ('A' for Active; 'I' for Inactive)
REMARK    1  A    between atoms: N1_2  and  C3_4 
REMARK    2  A    between atoms: C3_4  and  C4_5 
REMARK    3  A    between atoms: C4_5  and  C5_6 
REMARK    4  A    between atoms: C5_6  and  C6_7 
REMARK    5  A    between atoms: C6_7  and  C7_9 
REMARK    6  A    between atoms: C10_12  and  O2_13 
REMARK    7  A    between atoms: O2_13  and  C11_14 
REMARK    8  A    between atoms: C11_14  and  C12_15 
REMARK    9  A    between atoms: C17_20  and  S1_21 
ROOT
HETATM    1  C7  UNL     1      26.935   5.131  49.014  1.00  0.00     0.010 A 
HETATM    2  C8  UNL     1      26.822   3.780  49.344  1.00  0.00     0.018 A 
HETATM    3  C9  UNL     1      25.739   3.259  50.002  1.00  0.00     0.037 A 
HETATM    4  C10 UNL     1      24.688   4.065  50.378  1.00  0.00     0.069 A 
HETATM    5  C18 UNL     1      24.766   5.394  50.069  1.00  0.00     0.037 A 
HETATM    6  C19 UNL     1      25.855   5.905  49.410  1.00  0.00     0.018 A 
ENDROOT
BRANCH   4   7
HETATM    7  O2  UNL     1      23.552   3.642  51.044  1.00  0.00    -0.347 OA
BRANCH   7   8
HETATM    8  C11 UNL     1      23.680   3.398  52.442  1.00  0.00     0.215 C 
BRANCH   8   9
HETATM    9  C12 UNL     1      23.507   1.957  52.739  1.00  0.00    -0.018 A 
HETATM   10  C13 UNL     1      22.309   1.327  52.501  1.00  0.00     0.011 A 
HETATM   11  C14 UNL     1      22.067   0.003  52.742  1.00  0.00     0.001 A 
HETATM   12  C15 UNL     1      23.079  -0.788  53.263  1.00  0.00     0.001 A 
HETATM   13  C16 UNL     1      24.286  -0.149  53.501  1.00  0.00     0.019 A 
HETATM   14  C17 UNL     1      24.520   1.186  53.254  1.00  0.00     0.006 A 
BRANCH  14  15
HETATM   15  S1  UNL     1      26.106   1.952  53.583  1.00  0.00    -0.142 SA
HETATM   16  H21 UNL     1      26.237   2.331  54.937  1.00  0.00     0.107 HD
ENDBRANCH  14  15
ENDBRANCH   8   9
ENDBRANCH   7   8
ENDBRANCH   4   7
BRANCH   1  17
HETATM   17  C6  UNL     1      28.106   5.687  48.300  1.00  0.00     0.159 C 
HETATM   18  O1  UNL     1      29.104   4.889  48.276  1.00  0.00    -0.292 OA
BRANCH  17  19
HETATM   19  C5  UNL     1      27.901   7.051  47.755  1.00  0.00     0.085 C 
BRANCH  19  20
HETATM   20  C4  UNL     1      29.191   7.631  47.236  1.00  0.00     0.038 C 
BRANCH  20  21
HETATM   21  C3  UNL     1      29.994   8.294  48.324  1.00  0.00     0.271 C 
BRANCH  21  22
HETATM   22  N1  UNL     1      31.348   7.796  48.269  1.00  0.00     0.080 N 
HETATM   23  C1  UNL     1      31.719   7.064  49.454  1.00  0.00     0.309 C 
HETATM   24  C2  UNL     1      31.626   7.074  47.053  1.00  0.00     0.309 C 
ENDBRANCH  21  22
ENDBRANCH  20  21
ENDBRANCH  19  20
ENDBRANCH  17  19
ENDBRANCH   1  17
TORSDOF 9
ENDMDL
MODEL 7
REMARK VINA RESULT:      -6.4      3.408      7.613
REMARK  9 active torsions:
REMARK  status: ('A' for Active; 'I' for Inactive)
REMARK    1  A    between atoms: N1_2  and  C3_4 
REMARK    2  A    between atoms: C3_4  and  C4_5 
REMARK    3  A    between atoms: C4_5  and  C5_6 
REMARK    4  A    between atoms: C5_6  and  C6_7 
REMARK    5  A    between atoms: C6_7  and  C7_9 
REMARK    6  A    between atoms: C10_12  and  O2_13 
REMARK    7  A    between atoms: O2_13  and  C11_14 
REMARK    8  A    between atoms: C11_14  and  C12_15 
REMARK    9  A    between atoms: C17_20  and  S1_21 
ROOT
HETATM    1  C7  UNL     1      26.839   5.105  48.880  1.00  0.00     0.010 A 
HETATM    2  C8  UNL     1      25.606   5.757  48.939  1.00  0.00     0.018 A 
HETATM    3  C9  UNL     1      24.471   5.166  49.426  1.00  0.00     0.037 A 
HETATM    4  C10 UNL     1      24.493   3.869  49.890  1.00  0.00     0.069 A 
HETATM    5  C18 UNL     1      25.685   3.202  49.846  1.00  0.00     0.037 A 
HETATM    6  C19 UNL     1      26.816   3.803  49.356  1.00  0.00     0.018 A 
ENDROOT
BRANCH   4   7
HETATM    7  O2  UNL     1      23.408   3.181  50.399  1.00  0.00    -0.347 OA
BRANCH   7   8
HETATM    8  C11 UNL     1      23.185   3.279  51.803  1.00  0.00     0.215 C 
BRANCH   8   9
HETATM    9  C12 UNL     1      23.134   1.934  52.419  1.00  0.00    -0.018 A 
HETATM   10  C13 UNL     1      24.287   1.221  52.652  1.00  0.00     0.011 A 
HETATM   11  C14 UNL     1      24.330  -0.023  53.218  1.00  0.00     0.001 A 
HETATM   12  C15 UNL     1      23.147  -0.637  53.597  1.00  0.00     0.001 A 
HETATM   13  C16 UNL     1      21.987   0.085  53.361  1.00  0.00     0.019 A 
HETATM   14  C17 UNL     1      21.954   1.338  52.790  1.00  0.00     0.006 A 
BRANCH  14  15
HETATM   15  S1  UNL     1      20.418   2.219  52.513  1.00  0.00    -0.142 SA
HETATM   16  H21 UNL     1      20.085   2.279  51.143  1.00  0.00     0.107 HD
ENDBRANCH  14  15
ENDBRANCH   8   9
ENDBRANCH   7   8
ENDBRANCH   4   7
BRANCH   1  17
HETATM   17  C6  UNL     1      28.063   5.750  48.355  1.00  0.00     0.159 C 
HETATM   18  O1  UNL     1      29.108   5.028  48.488  1.00  0.00    -0.292 OA
BRANCH  17  19
HETATM   19  C5  UNL     1      27.845   7.099  47.779  1.00  0.00     0.085 C 
BRANCH  19  20
HETATM   20  C4  UNL     1      29.031   7.543  46.964  1.00  0.00     0.038 C 
BRANCH  20  21
HETATM   21  C3  UNL     1      29.844   8.596  47.670  1.00  0.00     0.271 C 
BRANCH  21  22
HETATM   22  N1  UNL     1      31.175   8.081  47.892  1.00  0.00     0.080 N 
HETATM   23  C1  UNL     1      31.392   7.673  49.258  1.00  0.00     0.309 C 
HETATM   24  C2  UNL     1      31.545   7.066  46.937  1.00  0.00     0.309 C 
ENDBRANCH  21  22
ENDBRANCH  20  21
ENDBRANCH  19  20
ENDBRANCH  17  19
ENDBRANCH   1  17
TORSDOF 9
ENDMDL
MODEL 8
REMARK VINA RESULT:      -6.3      3.345      7.561
REMARK  9 active torsions:
REMARK  status: ('A' for Active; 'I' for Inactive)
REMARK    1  A    between atoms: N1_2  and  C3_4 
REMARK    2  A    between atoms: C3_4  and  C4_5 
REMARK    3  A    between atoms: C4_5  and  C5_6 
REMARK    4  A    between atoms: C5_6  and  C6_7 
REMARK    5  A    between atoms: C6_7  and  C7_9 
REMARK    6  A    between atoms: C10_12  and  O2_13 
REMARK    7  A    between atoms: O2_13  and  C11_14 
REMARK    8  A    between atoms: C11_14  and  C12_15 
REMARK    9  A    between atoms: C17_20  and  S1_21 
ROOT
HETATM    1  C7  UNL     1      25.642   4.556  49.622  1.00  0.00     0.010 A 
HETATM    2  C8  UNL     1      26.668   3.621  49.770  1.00  0.00     0.018 A 
HETATM    3  C9  UNL     1      26.541   2.486  50.525  1.00  0.00     0.037 A 
HETATM    4  C10 UNL     1      25.368   2.208  51.191  1.00  0.00     0.069 A 
HETATM    5  C18 UNL     1      24.343   3.103  51.068  1.00  0.00     0.037 A 
HETATM    6  C19 UNL     1      24.480   4.238  50.308  1.00  0.00     0.018 A 
ENDROOT
BRANCH   4   7
HETATM    7  O2  UNL     1      25.137   1.095  51.977  1.00  0.00    -0.347 OA
BRANCH   7   8
HETATM    8  C11 UNL     1      25.834   1.028  53.218  1.00  0.00     0.215 C 
BRANCH   8   9
HETATM    9  C12 UNL     1      26.897  -0.003  53.166  1.00  0.00    -0.018 A 
HETATM   10  C13 UNL     1      26.593  -1.314  52.885  1.00  0.00     0.011 A 
HETATM   11  C14 UNL     1      27.512  -2.325  52.815  1.00  0.00     0.001 A 
HETATM   12  C15 UNL     1      28.850  -2.042  53.036  1.00  0.00     0.001 A 
HETATM   13  C16 UNL     1      29.152  -0.719  53.319  1.00  0.00     0.019 A 
HETATM   14  C17 UNL     1      28.219   0.293  53.388  1.00  0.00     0.006 A 
BRANCH  14  15
HETATM   15  S1  UNL     1      28.675   1.986  53.757  1.00  0.00    -0.142 SA
HETATM   16  H21 UNL     1      28.944   2.726  52.585  1.00  0.00     0.107 HD
ENDBRANCH  14  15
ENDBRANCH   8   9
ENDBRANCH   7   8
ENDBRANCH   4   7
BRANCH   1  17
HETATM   17  C6  UNL     1      25.784   5.780  48.803  1.00  0.00     0.159 C 
HETATM   18  O1  UNL     1      24.664   6.321  48.509  1.00  0.00    -0.292 OA
BRANCH  17  19
HETATM   19  C5  UNL     1      27.185   6.142  48.480  1.00  0.00     0.085 C 
BRANCH  19  20
HETATM   20  C4  UNL     1      27.326   7.622  48.242  1.00  0.00     0.038 C 
BRANCH  20  21
HETATM   21  C3  UNL     1      27.250   8.414  49.521  1.00  0.00     0.271 C 
BRANCH  21  22
HETATM   22  N1  UNL     1      28.357   9.340  49.559  1.00  0.00     0.080 N 
HETATM   23  C1  UNL     1      29.570   8.777  49.019  1.00  0.00     0.309 C 
HETATM   24  C2  UNL     1      28.029  10.622  48.987  1.00  0.00     0.309 C 
ENDBRANCH  21  22
ENDBRANCH  20  21
ENDBRANCH  19  20
ENDBRANCH  17  19
ENDBRANCH   1  17
TORSDOF 9
ENDMDL
MODEL 9
REMARK VINA RESULT:      -6.2      3.388      7.446
REMARK  9 active torsions:
REMARK  status: ('A' for Active; 'I' for Inactive)
REMARK    1  A    between atoms: N1_2  and  C3_4 
REMARK    2  A    between atoms: C3_4  and  C4_5 
REMARK    3  A    between atoms: C4_5  and  C5_6 
REMARK    4  A    between atoms: C5_6  and  C6_7 
REMARK    5  A    between atoms: C6_7  and  C7_9 
REMARK    6  A    between atoms: C10_12  and  O2_13 
REMARK    7  A    between atoms: O2_13  and  C11_14 
REMARK    8  A    between atoms: C11_14  and  C12_15 
REMARK    9  A    between atoms: C17_20  and  S1_21 
ROOT
HETATM    1  C7  UNL     1      26.874   6.010  48.858  1.00  0.00     0.010 A 
HETATM    2  C8  UNL     1      25.568   6.160  49.327  1.00  0.00     0.018 A 
HETATM    3  C9  UNL     1      24.807   5.110  49.767  1.00  0.00     0.037 A 
HETATM    4  C10 UNL     1      25.306   3.827  49.766  1.00  0.00     0.069 A 
HETATM    5  C18 UNL     1      26.582   3.645  49.313  1.00  0.00     0.037 A 
HETATM    6  C19 UNL     1      27.337   4.703  48.875  1.00  0.00     0.018 A 
ENDROOT
BRANCH   4   7
HETATM    7  O2  UNL     1      24.624   2.700  50.187  1.00  0.00    -0.347 OA
BRANCH   7   8
HETATM    8  C11 UNL     1      24.384   2.578  51.586  1.00  0.00     0.215 C 
BRANCH   8   9
HETATM    9  C12 UNL     1      24.986   1.332  52.113  1.00  0.00    -0.018 A 
HETATM   10  C13 UNL     1      26.306   1.029  51.870  1.00  0.00     0.011 A 
HETATM   11  C14 UNL     1      26.939  -0.096  52.321  1.00  0.00     0.001 A 
HETATM   12  C15 UNL     1      26.232  -1.016  53.079  1.00  0.00     0.001 A 
HETATM   13  C16 UNL     1      24.902  -0.707  53.321  1.00  0.00     0.019 A 
HETATM   14  C17 UNL     1      24.272   0.430  52.862  1.00  0.00     0.006 A 
BRANCH  14  15
HETATM   15  S1  UNL     1      22.549   0.772  53.213  1.00  0.00    -0.142 SA
HETATM   16  H21 UNL     1      22.090   1.918  52.529  1.00  0.00     0.107 HD
ENDBRANCH  14  15
ENDBRANCH   8   9
ENDBRANCH   7   8
ENDBRANCH   4   7
BRANCH   1  17
HETATM   17  C6  UNL     1      27.692   7.149  48.386  1.00  0.00     0.159 C 
HETATM   18  O1  UNL     1      27.311   8.272  48.862  1.00  0.00    -0.292 OA
BRANCH  17  19
HETATM   19  C5  UNL     1      28.788   6.774  47.460  1.00  0.00     0.085 C 
BRANCH  19  20
HETATM   20  C4  UNL     1      30.136   7.104  48.047  1.00  0.00     0.038 C 
BRANCH  20  21
HETATM   21  C3  UNL     1      30.846   5.879  48.561  1.00  0.00     0.271 C 
BRANCH  21  22
HETATM   22  N1  UNL     1      31.680   5.351  47.507  1.00  0.00     0.080 N 
HETATM   23  C1  UNL     1      32.431   6.377  46.827  1.00  0.00     0.309 C 
HETATM   24  C2  UNL     1      32.502   4.251  47.946  1.00  0.00     0.309 C 
ENDBRANCH  21  22
ENDBRANCH  20  21
ENDBRANCH  19  20
ENDBRANCH  17  19
ENDBRANCH   1  17
TORSDOF 9
ENDMDL
