MODEL 1
REMARK VINA RESULT:      -8.8      0.000      0.000
REMARK  6 active torsions:
REMARK  status: ('A' for Active; 'I' for Inactive)
REMARK    1  A    between atoms: C1_2  and  N1_3 
REMARK    2  A    between atoms: C1_2  and  N3_12 
REMARK    3  A    between atoms: N1_3  and  C2_4 
REMARK    4  A    between atoms: C2_4  and  C3_5 
REMARK    5  A    between atoms: C3_5  and  N2_6 
REMARK    6  A    between atoms: C12_19  and  N6_20 
ROOT
HETATM    1  N3  UNL     1      25.268   5.513  49.961  1.00  0.00    -0.350 N 
HETATM    2  C8  UNL     1      26.045   4.818  48.954  1.00  0.00     0.155 C 
HETATM    3  C9  UNL     1      26.761   3.696  49.664  1.00  0.00     0.025 C 
HETATM    4  C10 UNL     1      26.231   2.976  50.633  1.00  0.00     0.064 C 
HETATM    5  N4  UNL     1      26.994   1.945  51.232  1.00  0.00    -0.242 NA
HETATM    6  C11 UNL     1      26.590   1.004  52.026  1.00  0.00     0.235 C 
HETATM    7  N5  UNL     1      25.284   0.706  52.545  1.00  0.00    -0.225 NA
HETATM    8  C12 UNL     1      24.189   1.394  52.439  1.00  0.00     0.128 C 
HETATM    9  C19 UNL     1      24.009   2.677  51.746  1.00  0.00     0.061 C 
HETATM   10  C20 UNL     1      24.874   3.339  50.985  1.00  0.00    -0.008 C 
HETATM   11  C21 UNL     1      24.289   4.594  50.474  1.00  0.00     0.166 C 
ENDROOT
BRANCH   1  12
HETATM   12  C1  UNL     1      25.308   6.866  50.469  1.00  0.00     0.170 C 
HETATM   13  S1  UNL     1      23.813   7.481  50.844  1.00  0.00    -0.041 SA
BRANCH  12  14
HETATM   14  N1  UNL     1      26.426   7.721  50.688  1.00  0.00    -0.366 N 
HETATM   15  H1  UNL     1      27.121   7.346  51.405  1.00  0.00     0.161 HD
BRANCH  14  16
HETATM   16  C2  UNL     1      26.788   8.999  50.120  1.00  0.00     0.141 C 
BRANCH  16  17
HETATM   17  C3  UNL     1      27.376   8.769  48.751  1.00  0.00     0.136 C 
BRANCH  17  18
HETATM   18  N2  UNL     1      28.536   7.968  48.695  1.00  0.00    -0.407 N 
HETATM   19  C4  UNL     1      29.779   8.608  48.987  1.00  0.00     0.143 C 
HETATM   20  C5  UNL     1      30.928   7.673  48.704  1.00  0.00     0.187 C 
HETATM   21  O1  UNL     1      30.608   6.343  48.930  1.00  0.00    -0.388 OA
HETATM   22  C6  UNL     1      29.555   5.872  48.178  1.00  0.00     0.187 C 
HETATM   23  C7  UNL     1      28.634   6.983  47.684  1.00  0.00     0.143 C 
ENDBRANCH  17  18
ENDBRANCH  16  17
ENDBRANCH  14  16
ENDBRANCH  12  14
ENDBRANCH   1  12
BRANCH   8  24
HETATM   24  N6  UNL     1      23.027   0.822  53.076  1.00  0.00    -0.359 N 
HETATM   25  C13 UNL     1      23.385  -0.435  53.683  1.00  0.00     0.152 C 
HETATM   26  C14 UNL     1      22.319  -1.064  54.476  1.00  0.00    -0.005 C 
HETATM   27  C15 UNL     1      21.005  -1.048  54.409  1.00  0.00     0.021 C 
HETATM   28  C16 UNL     1      20.227  -0.309  53.405  1.00  0.00     0.031 C 
HETATM   29 CL1  UNL     1      18.663  -1.005  52.979  1.00  0.00    -0.085 Cl
HETATM   30  C17 UNL     1      20.602   0.814  52.809  1.00  0.00     0.017 C 
HETATM   31  C18 UNL     1      21.839   1.637  52.945  1.00  0.00     0.153 C 
ENDBRANCH   8  24
TORSDOF 6
ENDMDL
MODEL 2
REMARK VINA RESULT:      -8.5      4.764      9.549
REMARK  6 active torsions:
REMARK  status: ('A' for Active; 'I' for Inactive)
REMARK    1  A    between atoms: C1_2  and  N1_3 
REMARK    2  A    between atoms: C1_2  and  N3_12 
REMARK    3  A    between atoms: N1_3  and  C2_4 
REMARK    4  A    between atoms: C2_4  and  C3_5 
REMARK    5  A    between atoms: C3_5  and  N2_6 
REMARK    6  A    between atoms: C12_19  and  N6_20 
ROOT
HETATM    1  N3  UNL     1      25.968   5.232  49.095  1.00  0.00    -0.350 N 
HETATM    2  C8  UNL     1      25.502   6.342  48.289  1.00  0.00     0.155 C 
HETATM    3  C9  UNL     1      26.469   7.476  48.522  1.00  0.00     0.025 C 
HETATM    4  C10 UNL     1      27.771   7.322  48.659  1.00  0.00     0.064 C 
HETATM    5  N4  UNL     1      28.587   8.459  48.874  1.00  0.00    -0.242 NA
HETATM    6  C11 UNL     1      29.880   8.543  48.814  1.00  0.00     0.235 C 
HETATM    7  N5  UNL     1      30.875   7.550  48.520  1.00  0.00    -0.225 NA
HETATM    8  C12 UNL     1      30.727   6.271  48.360  1.00  0.00     0.128 C 
HETATM    9  C19 UNL     1      29.476   5.503  48.441  1.00  0.00     0.061 C 
HETATM   10  C20 UNL     1      28.232   5.953  48.566  1.00  0.00    -0.008 C 
HETATM   11  C21 UNL     1      27.261   4.842  48.605  1.00  0.00     0.166 C 
ENDROOT
BRANCH   1  12
HETATM   12  C1  UNL     1      25.381   4.510  50.202  1.00  0.00     0.170 C 
HETATM   13  S1  UNL     1      23.726   4.618  50.267  1.00  0.00    -0.041 SA
BRANCH  12  14
HETATM   14  N1  UNL     1      26.012   3.736  51.219  1.00  0.00    -0.366 N 
HETATM   15  H1  UNL     1      26.962   4.114  51.520  1.00  0.00     0.161 HD
BRANCH  14  16
HETATM   16  C2  UNL     1      25.601   2.537  51.913  1.00  0.00     0.141 C 
BRANCH  16  17
HETATM   17  C3  UNL     1      26.694   1.507  51.787  1.00  0.00     0.136 C 
BRANCH  17  18
HETATM   18  N2  UNL     1      27.505   1.314  52.925  1.00  0.00    -0.407 N 
HETATM   19  C4  UNL     1      28.424   2.358  53.249  1.00  0.00     0.143 C 
HETATM   20  C5  UNL     1      29.337   1.923  54.367  1.00  0.00     0.187 C 
HETATM   21  O1  UNL     1      28.724   1.053  55.257  1.00  0.00    -0.388 OA
HETATM   22  C6  UNL     1      28.255  -0.110  54.688  1.00  0.00     0.187 C 
HETATM   23  C7  UNL     1      28.009   0.018  53.188  1.00  0.00     0.143 C 
ENDBRANCH  17  18
ENDBRANCH  16  17
ENDBRANCH  14  16
ENDBRANCH  12  14
ENDBRANCH   1  12
BRANCH   8  24
HETATM   24  N6  UNL     1      31.933   5.534  48.070  1.00  0.00    -0.359 N 
HETATM   25  C13 UNL     1      33.059   6.203  48.671  1.00  0.00     0.152 C 
HETATM   26  C14 UNL     1      34.337   5.486  48.557  1.00  0.00    -0.005 C 
HETATM   27  C15 UNL     1      34.836   4.650  47.673  1.00  0.00     0.021 C 
HETATM   28  C16 UNL     1      34.137   4.197  46.461  1.00  0.00     0.031 C 
HETATM   29 CL1  UNL     1      35.166   3.785  45.089  1.00  0.00    -0.085 Cl
HETATM   30  C17 UNL     1      32.824   4.081  46.325  1.00  0.00     0.017 C 
HETATM   31  C18 UNL     1      31.706   4.346  47.275  1.00  0.00     0.153 C 
ENDBRANCH   8  24
TORSDOF 6
ENDMDL
MODEL 3
REMARK VINA RESULT:      -8.4      3.198      5.585
REMARK  6 active torsions:
REMARK  status: ('A' for Active; 'I' for Inactive)
REMARK    1  A    between atoms: C1_2  and  N1_3 
REMARK    2  A    between atoms: C1_2  and  N3_12 
REMARK    3  A    between atoms: N1_3  and  C2_4 
REMARK    4  A    between atoms: C2_4  and  C3_5 
REMARK    5  A    between atoms: C3_5  and  N2_6 
REMARK    6  A    between atoms: C12_19  and  N6_20 
ROOT
HETATM    1  N3  UNL     1      21.098   3.759  51.232  1.00  0.00    -0.350 N 
HETATM    2  C8  UNL     1      20.061   3.383  52.171  1.00  0.00     0.155 C 
HETATM    3  C9  UNL     1      20.269   1.920  52.476  1.00  0.00     0.025 C 
HETATM    4  C10 UNL     1      21.451   1.352  52.608  1.00  0.00     0.064 C 
HETATM    5  N4  UNL     1      21.530  -0.032  52.895  1.00  0.00    -0.242 NA
HETATM    6  C11 UNL     1      22.564  -0.717  53.272  1.00  0.00     0.235 C 
HETATM    7  N5  UNL     1      23.921  -0.315  53.515  1.00  0.00    -0.225 NA
HETATM    8  C12 UNL     1      24.483   0.834  53.294  1.00  0.00     0.128 C 
HETATM    9  C19 UNL     1      23.856   2.036  52.727  1.00  0.00     0.061 C 
HETATM   10  C20 UNL     1      22.576   2.248  52.441  1.00  0.00    -0.008 C 
HETATM   11  C21 UNL     1      22.366   3.601  51.888  1.00  0.00     0.166 C 
ENDROOT
BRANCH   1  12
HETATM   12  C1  UNL     1      21.058   4.242  49.869  1.00  0.00     0.170 C 
HETATM   13  S1  UNL     1      19.798   5.279  49.565  1.00  0.00    -0.041 SA
BRANCH  12  14
HETATM   14  N1  UNL     1      21.931   3.958  48.779  1.00  0.00    -0.366 N 
HETATM   15  H1  UNL     1      21.975   2.924  48.521  1.00  0.00     0.161 HD
BRANCH  14  16
HETATM   16  C2  UNL     1      22.763   4.812  47.963  1.00  0.00     0.141 C 
BRANCH  16  17
HETATM   17  C3  UNL     1      23.673   5.604  48.866  1.00  0.00     0.136 C 
BRANCH  17  18
HETATM   18  N2  UNL     1      25.010   5.162  48.950  1.00  0.00    -0.407 N 
HETATM   19  C4  UNL     1      25.238   3.913  49.605  1.00  0.00     0.143 C 
HETATM   20  C5  UNL     1      26.717   3.675  49.776  1.00  0.00     0.187 C 
HETATM   21  O1  UNL     1      27.474   4.223  48.751  1.00  0.00    -0.388 OA
HETATM   22  C6  UNL     1      27.333   5.585  48.602  1.00  0.00     0.187 C 
HETATM   23  C7  UNL     1      26.028   6.116  49.186  1.00  0.00     0.143 C 
ENDBRANCH  17  18
ENDBRANCH  16  17
ENDBRANCH  14  16
ENDBRANCH  12  14
ENDBRANCH   1  12
BRANCH   8  24
HETATM   24  N6  UNL     1      25.878   0.926  53.650  1.00  0.00    -0.359 N 
HETATM   25  C13 UNL     1      26.458   2.083  53.016  1.00  0.00     0.152 C 
HETATM   26  C14 UNL     1      27.849   2.364  53.398  1.00  0.00    -0.005 C 
HETATM   27  C15 UNL     1      28.857   1.612  53.783  1.00  0.00     0.021 C 
HETATM   28  C16 UNL     1      28.802   0.151  53.933  1.00  0.00     0.031 C 
HETATM   29 CL1  UNL     1      30.320  -0.707  53.665  1.00  0.00    -0.085 Cl
HETATM   30  C17 UNL     1      27.724  -0.554  54.245  1.00  0.00     0.017 C 
HETATM   31  C18 UNL     1      26.320  -0.137  54.527  1.00  0.00     0.153 C 
ENDBRANCH   8  24
TORSDOF 6
ENDMDL
MODEL 4
REMARK VINA RESULT:      -8.2      1.757      2.194
REMARK  6 active torsions:
REMARK  status: ('A' for Active; 'I' for Inactive)
REMARK    1  A    between atoms: C1_2  and  N1_3 
REMARK    2  A    between atoms: C1_2  and  N3_12 
REMARK    3  A    between atoms: N1_3  and  C2_4 
REMARK    4  A    between atoms: C2_4  and  C3_5 
REMARK    5  A    between atoms: C3_5  and  N2_6 
REMARK    6  A    between atoms: C12_19  and  N6_20 
ROOT
HETATM    1  N3  UNL     1      25.407   5.861  49.828  1.00  0.00    -0.350 N 
HETATM    2  C8  UNL     1      26.207   5.158  48.846  1.00  0.00     0.155 C 
HETATM    3  C9  UNL     1      26.862   4.008  49.570  1.00  0.00     0.025 C 
HETATM    4  C10 UNL     1      26.273   3.292  50.506  1.00  0.00     0.064 C 
HETATM    5  N4  UNL     1      26.983   2.232  51.122  1.00  0.00    -0.242 NA
HETATM    6  C11 UNL     1      26.520   1.293  51.886  1.00  0.00     0.235 C 
HETATM    7  N5  UNL     1      25.186   1.024  52.346  1.00  0.00    -0.225 NA
HETATM    8  C12 UNL     1      24.116   1.743  52.203  1.00  0.00     0.128 C 
HETATM    9  C19 UNL     1      23.999   3.040  51.521  1.00  0.00     0.061 C 
HETATM   10  C20 UNL     1      24.913   3.687  50.806  1.00  0.00    -0.008 C 
HETATM   11  C21 UNL     1      24.383   4.964  50.288  1.00  0.00     0.166 C 
ENDROOT
BRANCH   1  12
HETATM   12  C1  UNL     1      25.462   7.207  50.356  1.00  0.00     0.170 C 
HETATM   13  S1  UNL     1      23.974   7.830  50.748  1.00  0.00    -0.041 SA
BRANCH  12  14
HETATM   14  N1  UNL     1      26.589   8.049  50.582  1.00  0.00    -0.366 N 
HETATM   15  H1  UNL     1      27.261   7.679  51.322  1.00  0.00     0.161 HD
BRANCH  14  16
HETATM   16  C2  UNL     1      26.985   9.308  49.992  1.00  0.00     0.141 C 
BRANCH  16  17
HETATM   17  C3  UNL     1      28.410   9.190  49.515  1.00  0.00     0.136 C 
BRANCH  17  18
HETATM   18  N2  UNL     1      28.998  10.368  49.009  1.00  0.00    -0.407 N 
HETATM   19  C4  UNL     1      28.450  10.896  47.800  1.00  0.00     0.143 C 
HETATM   20  C5  UNL     1      29.300  12.035  47.295  1.00  0.00     0.187 C 
HETATM   21  O1  UNL     1      29.899  12.755  48.317  1.00  0.00    -0.388 OA
HETATM   22  C6  UNL     1      30.724  12.013  49.132  1.00  0.00     0.187 C 
HETATM   23  C7  UNL     1      30.402  10.522  49.105  1.00  0.00     0.143 C 
ENDBRANCH  17  18
ENDBRANCH  16  17
ENDBRANCH  14  16
ENDBRANCH  12  14
ENDBRANCH   1  12
BRANCH   8  24
HETATM   24  N6  UNL     1      22.913   1.195  52.784  1.00  0.00    -0.359 N 
HETATM   25  C13 UNL     1      23.226  -0.043  53.452  1.00  0.00     0.152 C 
HETATM   26  C14 UNL     1      22.109  -0.642  54.196  1.00  0.00    -0.005 C 
HETATM   27  C15 UNL     1      20.803  -0.625  54.046  1.00  0.00     0.021 C 
HETATM   28  C16 UNL     1      20.092   0.084  52.972  1.00  0.00     0.031 C 
HETATM   29 CL1  UNL     1      18.555  -0.622  52.471  1.00  0.00    -0.085 Cl
HETATM   30  C17 UNL     1      20.510   1.185  52.365  1.00  0.00     0.017 C 
HETATM   31  C18 UNL     1      21.739   2.009  52.553  1.00  0.00     0.153 C 
ENDBRANCH   8  24
TORSDOF 6
ENDMDL
MODEL 5
REMARK VINA RESULT:      -8.0      4.583      9.626
REMARK  6 active torsions:
REMARK  status: ('A' for Active; 'I' for Inactive)
REMARK    1  A    between atoms: C1_2  and  N1_3 
REMARK    2  A    between atoms: C1_2  and  N3_12 
REMARK    3  A    between atoms: N1_3  and  C2_4 
REMARK    4  A    between atoms: C2_4  and  C3_5 
REMARK    5  A    between atoms: C3_5  and  N2_6 
REMARK    6  A    between atoms: C12_19  and  N6_20 
ROOT
HETATM    1  N3  UNL     1      25.481   5.304  49.211  1.00  0.00    -0.350 N 
HETATM    2  C8  UNL     1      24.809   6.191  48.283  1.00  0.00     0.155 C 
HETATM    3  C9  UNL     1      25.552   7.502  48.330  1.00  0.00     0.025 C 
HETATM    4  C10 UNL     1      26.862   7.607  48.438  1.00  0.00     0.064 C 
HETATM    5  N4  UNL     1      27.457   8.892  48.473  1.00  0.00    -0.242 NA
HETATM    6  C11 UNL     1      28.711   9.200  48.355  1.00  0.00     0.235 C 
HETATM    7  N5  UNL     1      29.869   8.374  48.159  1.00  0.00    -0.225 NA
HETATM    8  C12 UNL     1      29.958   7.080  48.174  1.00  0.00     0.128 C 
HETATM    9  C19 UNL     1      28.872   6.116  48.400  1.00  0.00     0.061 C 
HETATM   10  C20 UNL     1      27.568   6.345  48.510  1.00  0.00    -0.008 C 
HETATM   11  C21 UNL     1      26.819   5.092  48.729  1.00  0.00     0.166 C 
ENDROOT
BRANCH   1  12
HETATM   12  C1  UNL     1      25.051   4.644  50.424  1.00  0.00     0.170 C 
HETATM   13  S1  UNL     1      23.549   5.121  50.945  1.00  0.00    -0.041 SA
BRANCH  12  14
HETATM   14  N1  UNL     1      25.721   3.664  51.212  1.00  0.00    -0.366 N 
HETATM   15  H1  UNL     1      26.678   3.976  51.564  1.00  0.00     0.161 HD
BRANCH  14  16
HETATM   16  C2  UNL     1      25.341   2.331  51.620  1.00  0.00     0.141 C 
BRANCH  16  17
HETATM   17  C3  UNL     1      26.570   1.458  51.619  1.00  0.00     0.136 C 
BRANCH  17  18
HETATM   18  N2  UNL     1      26.984   0.960  52.872  1.00  0.00    -0.407 N 
HETATM   19  C4  UNL     1      25.967   0.442  53.731  1.00  0.00     0.143 C 
HETATM   20  C5  UNL     1      26.540   0.127  55.090  1.00  0.00     0.187 C 
HETATM   21  O1  UNL     1      27.864  -0.281  55.035  1.00  0.00    -0.388 OA
HETATM   22  C6  UNL     1      28.723   0.639  54.476  1.00  0.00     0.187 C 
HETATM   23  C7  UNL     1      28.015   1.638  53.566  1.00  0.00     0.143 C 
ENDBRANCH  17  18
ENDBRANCH  16  17
ENDBRANCH  14  16
ENDBRANCH  12  14
ENDBRANCH   1  12
BRANCH   8  24
HETATM   24  N6  UNL     1      31.276   6.541  47.940  1.00  0.00    -0.359 N 
HETATM   25  C13 UNL     1      31.184   5.116  47.749  1.00  0.00     0.152 C 
HETATM   26  C14 UNL     1      32.445   4.460  47.375  1.00  0.00    -0.005 C 
HETATM   27  C15 UNL     1      33.712   4.716  47.620  1.00  0.00     0.021 C 
HETATM   28  C16 UNL     1      34.197   5.853  48.417  1.00  0.00     0.031 C 
HETATM   29 CL1  UNL     1      35.718   5.599  49.272  1.00  0.00    -0.085 Cl
HETATM   30  C17 UNL     1      33.591   7.025  48.539  1.00  0.00     0.017 C 
HETATM   31  C18 UNL     1      32.319   7.544  47.958  1.00  0.00     0.153 C 
ENDBRANCH   8  24
TORSDOF 6
ENDMDL
MODEL 6
REMARK VINA RESULT:      -7.7      4.432      9.272
REMARK  6 active torsions:
REMARK  status: ('A' for Active; 'I' for Inactive)
REMARK    1  A    between atoms: C1_2  and  N1_3 
REMARK    2  A    between atoms: C1_2  and  N3_12 
REMARK    3  A    between atoms: N1_3  and  C2_4 
REMARK    4  A    between atoms: C2_4  and  C3_5 
REMARK    5  A    between atoms: C3_5  and  N2_6 
REMARK    6  A    between atoms: C12_19  and  N6_20 
ROOT
HETATM    1  N3  UNL     1      24.684   4.804  49.679  1.00  0.00    -0.350 N 
HETATM    2  C8  UNL     1      23.822   5.220  48.592  1.00  0.00     0.155 C 
HETATM    3  C9  UNL     1      24.288   6.592  48.176  1.00  0.00     0.025 C 
HETATM    4  C10 UNL     1      25.552   6.962  48.130  1.00  0.00     0.064 C 
HETATM    5  N4  UNL     1      25.878   8.279  47.724  1.00  0.00    -0.242 NA
HETATM    6  C11 UNL     1      27.041   8.758  47.408  1.00  0.00     0.235 C 
HETATM    7  N5  UNL     1      28.335   8.136  47.366  1.00  0.00    -0.225 NA
HETATM    8  C12 UNL     1      28.682   6.950  47.761  1.00  0.00     0.128 C 
HETATM    9  C19 UNL     1      27.818   5.924  48.362  1.00  0.00     0.061 C 
HETATM   10  C20 UNL     1      26.498   5.936  48.514  1.00  0.00    -0.008 C 
HETATM   11  C21 UNL     1      26.022   4.699  49.165  1.00  0.00     0.166 C 
ENDROOT
BRANCH   1  12
HETATM   12  C1  UNL     1      24.430   4.488  51.067  1.00  0.00     0.170 C 
HETATM   13  S1  UNL     1      23.221   5.400  51.748  1.00  0.00    -0.041 SA
BRANCH  12  14
HETATM   14  N1  UNL     1      25.057   3.526  51.910  1.00  0.00    -0.366 N 
HETATM   15  H1  UNL     1      25.381   3.920  52.847  1.00  0.00     0.161 HD
BRANCH  14  16
HETATM   16  C2  UNL     1      25.334   2.119  51.727  1.00  0.00     0.141 C 
BRANCH  16  17
HETATM   17  C3  UNL     1      26.828   1.918  51.719  1.00  0.00     0.136 C 
BRANCH  17  18
HETATM   18  N2  UNL     1      27.373   1.235  52.826  1.00  0.00    -0.407 N 
HETATM   19  C4  UNL     1      26.448   0.676  53.760  1.00  0.00     0.143 C 
HETATM   20  C5  UNL     1      27.180   0.149  54.969  1.00  0.00     0.187 C 
HETATM   21  O1  UNL     1      28.445  -0.333  54.665  1.00  0.00    -0.388 OA
HETATM   22  C6  UNL     1      29.289   0.595  54.097  1.00  0.00     0.187 C 
HETATM   23  C7  UNL     1      28.545   1.747  53.431  1.00  0.00     0.143 C 
ENDBRANCH  17  18
ENDBRANCH  16  17
ENDBRANCH  14  16
ENDBRANCH  12  14
ENDBRANCH   1  12
BRANCH   8  24
HETATM   24  N6  UNL     1      30.074   6.615  47.582  1.00  0.00    -0.359 N 
HETATM   25  C13 UNL     1      30.707   7.619  46.765  1.00  0.00     0.152 C 
HETATM   26  C14 UNL     1      32.161   7.463  46.610  1.00  0.00    -0.005 C 
HETATM   27  C15 UNL     1      32.970   6.426  46.612  1.00  0.00     0.021 C 
HETATM   28  C16 UNL     1      32.543   5.031  46.791  1.00  0.00     0.031 C 
HETATM   29 CL1  UNL     1      33.544   3.813  45.999  1.00  0.00    -0.085 Cl
HETATM   30  C17 UNL     1      31.488   4.629  47.484  1.00  0.00     0.017 C 
HETATM   31  C18 UNL     1      30.463   5.392  48.252  1.00  0.00     0.153 C 
ENDBRANCH   8  24
TORSDOF 6
ENDMDL
MODEL 7
REMARK VINA RESULT:      -7.7      2.557      4.393
REMARK  6 active torsions:
REMARK  status: ('A' for Active; 'I' for Inactive)
REMARK    1  A    between atoms: C1_2  and  N1_3 
REMARK    2  A    between atoms: C1_2  and  N3_12 
REMARK    3  A    between atoms: N1_3  and  C2_4 
REMARK    4  A    between atoms: C2_4  and  C3_5 
REMARK    5  A    between atoms: C3_5  and  N2_6 
REMARK    6  A    between atoms: C12_19  and  N6_20 
ROOT
HETATM    1  N3  UNL     1      24.549   1.788  51.586  1.00  0.00    -0.350 N 
HETATM    2  C8  UNL     1      25.284   0.606  51.987  1.00  0.00     0.155 C 
HETATM    3  C9  UNL     1      24.585   0.059  53.206  1.00  0.00     0.025 C 
HETATM    4  C10 UNL     1      23.277   0.051  53.368  1.00  0.00     0.064 C 
HETATM    5  N4  UNL     1      22.726  -0.488  54.556  1.00  0.00    -0.242 NA
HETATM    6  C11 UNL     1      21.488  -0.783  54.805  1.00  0.00     0.235 C 
HETATM    7  N5  UNL     1      20.310  -0.667  53.991  1.00  0.00    -0.225 NA
HETATM    8  C12 UNL     1      20.176  -0.112  52.826  1.00  0.00     0.128 C 
HETATM    9  C19 UNL     1      21.220   0.551  52.032  1.00  0.00     0.061 C 
HETATM   10  C20 UNL     1      22.526   0.615  52.266  1.00  0.00    -0.008 C 
HETATM   11  C21 UNL     1      23.224   1.378  51.212  1.00  0.00     0.166 C 
ENDROOT
BRANCH   1  12
HETATM   12  C1  UNL     1      24.913   3.185  51.495  1.00  0.00     0.170 C 
HETATM   13  S1  UNL     1      23.762   4.215  52.104  1.00  0.00    -0.041 SA
BRANCH  12  14
HETATM   14  N1  UNL     1      26.094   3.784  50.969  1.00  0.00    -0.366 N 
HETATM   15  H1  UNL     1      26.724   4.218  51.711  1.00  0.00     0.161 HD
BRANCH  14  16
HETATM   16  C2  UNL     1      26.591   3.909  49.618  1.00  0.00     0.141 C 
BRANCH  16  17
HETATM   17  C3  UNL     1      26.198   5.262  49.082  1.00  0.00     0.136 C 
BRANCH  17  18
HETATM   18  N2  UNL     1      27.210   5.994  48.428  1.00  0.00    -0.407 N 
HETATM   19  C4  UNL     1      28.509   5.402  48.382  1.00  0.00     0.143 C 
HETATM   20  C5  UNL     1      29.511   6.381  47.821  1.00  0.00     0.187 C 
HETATM   21  O1  UNL     1      28.957   7.239  46.882  1.00  0.00    -0.388 OA
HETATM   22  C6  UNL     1      27.915   8.005  47.352  1.00  0.00     0.187 C 
HETATM   23  C7  UNL     1      27.237   7.401  48.578  1.00  0.00     0.143 C 
ENDBRANCH  17  18
ENDBRANCH  16  17
ENDBRANCH  14  16
ENDBRANCH  12  14
ENDBRANCH   1  12
BRANCH   8  24
HETATM   24  N6  UNL     1      18.849  -0.159  52.260  1.00  0.00    -0.359 N 
HETATM   25  C13 UNL     1      18.076  -1.169  52.937  1.00  0.00     0.152 C 
HETATM   26  C14 UNL     1      16.663  -1.234  52.540  1.00  0.00    -0.005 C 
HETATM   27  C15 UNL     1      16.016  -0.959  51.428  1.00  0.00     0.021 C 
HETATM   28  C16 UNL     1      16.645  -0.468  50.193  1.00  0.00     0.031 C 
HETATM   29 CL1  UNL     1      15.837  -0.914  48.690  1.00  0.00    -0.085 Cl
HETATM   30  C17 UNL     1      17.746   0.265  50.126  1.00  0.00     0.017 C 
HETATM   31  C18 UNL     1      18.645   0.795  51.192  1.00  0.00     0.153 C 
ENDBRANCH   8  24
TORSDOF 6
ENDMDL
MODEL 8
REMARK VINA RESULT:      -7.6      2.857      4.519
REMARK  6 active torsions:
REMARK  status: ('A' for Active; 'I' for Inactive)
REMARK    1  A    between atoms: C1_2  and  N1_3 
REMARK    2  A    between atoms: C1_2  and  N3_12 
REMARK    3  A    between atoms: N1_3  and  C2_4 
REMARK    4  A    between atoms: C2_4  and  C3_5 
REMARK    5  A    between atoms: C3_5  and  N2_6 
REMARK    6  A    between atoms: C12_19  and  N6_20 
ROOT
HETATM    1  N3  UNL     1      22.969   5.638  50.361  1.00  0.00    -0.350 N 
HETATM    2  C8  UNL     1      21.831   5.813  51.240  1.00  0.00     0.155 C 
HETATM    3  C9  UNL     1      21.399   4.432  51.664  1.00  0.00     0.025 C 
HETATM    4  C10 UNL     1      22.232   3.445  51.930  1.00  0.00     0.064 C 
HETATM    5  N4  UNL     1      21.717   2.185  52.320  1.00  0.00    -0.242 NA
HETATM    6  C11 UNL     1      22.357   1.178  52.826  1.00  0.00     0.235 C 
HETATM    7  N5  UNL     1      23.746   1.010  53.147  1.00  0.00    -0.225 NA
HETATM    8  C12 UNL     1      24.743   1.800  52.890  1.00  0.00     0.128 C 
HETATM    9  C19 UNL     1      24.697   3.091  52.191  1.00  0.00     0.061 C 
HETATM   10  C20 UNL     1      23.634   3.780  51.789  1.00  0.00    -0.008 C 
HETATM   11  C21 UNL     1      24.029   5.039  51.125  1.00  0.00     0.166 C 
ENDROOT
BRANCH   1  12
HETATM   12  C1  UNL     1      23.192   5.958  48.969  1.00  0.00     0.170 C 
HETATM   13  S1  UNL     1      22.251   5.077  47.923  1.00  0.00    -0.041 SA
BRANCH  12  14
HETATM   14  N1  UNL     1      24.084   6.904  48.385  1.00  0.00    -0.366 N 
HETATM   15  H1  UNL     1      23.600   7.775  48.007  1.00  0.00     0.161 HD
BRANCH  14  16
HETATM   16  C2  UNL     1      25.518   6.898  48.215  1.00  0.00     0.141 C 
BRANCH  16  17
HETATM   17  C3  UNL     1      26.152   7.532  49.427  1.00  0.00     0.136 C 
BRANCH  17  18
HETATM   18  N2  UNL     1      27.485   7.966  49.281  1.00  0.00    -0.407 N 
HETATM   19  C4  UNL     1      27.792   9.280  49.750  1.00  0.00     0.143 C 
HETATM   20  C5  UNL     1      29.197   9.662  49.355  1.00  0.00     0.187 C 
HETATM   21  O1  UNL     1      30.058   8.575  49.311  1.00  0.00    -0.388 OA
HETATM   22  C6  UNL     1      29.683   7.584  48.432  1.00  0.00     0.187 C 
HETATM   23  C7  UNL     1      28.193   7.607  48.109  1.00  0.00     0.143 C 
ENDBRANCH  17  18
ENDBRANCH  16  17
ENDBRANCH  14  16
ENDBRANCH  12  14
ENDBRANCH   1  12
BRANCH   8  24
HETATM   24  N6  UNL     1      26.035   1.347  53.348  1.00  0.00    -0.359 N 
HETATM   25  C13 UNL     1      27.032   2.334  53.020  1.00  0.00     0.152 C 
HETATM   26  C14 UNL     1      28.376   2.052  53.544  1.00  0.00    -0.005 C 
HETATM   27  C15 UNL     1      29.031   0.946  53.822  1.00  0.00     0.021 C 
HETATM   28  C16 UNL     1      28.494  -0.412  53.646  1.00  0.00     0.031 C 
HETATM   29 CL1  UNL     1      29.681  -1.669  53.298  1.00  0.00    -0.085 Cl
HETATM   30  C17 UNL     1      27.216  -0.754  53.727  1.00  0.00     0.017 C 
HETATM   31  C18 UNL     1      25.994   0.056  54.000  1.00  0.00     0.153 C 
ENDBRANCH   8  24
TORSDOF 6
ENDMDL
MODEL 9
REMARK VINA RESULT:      -7.5      4.429      9.933
REMARK  6 active torsions:
REMARK  status: ('A' for Active; 'I' for Inactive)
REMARK    1  A    between atoms: C1_2  and  N1_3 
REMARK    2  A    between atoms: C1_2  and  N3_12 
REMARK    3  A    between atoms: N1_3  and  C2_4 
REMARK    4  A    between atoms: C2_4  and  C3_5 
REMARK    5  A    between atoms: C3_5  and  N2_6 
REMARK    6  A    between atoms: C12_19  and  N6_20 
ROOT
HETATM    1  N3  UNL     1      25.322   4.712  49.508  1.00  0.00    -0.350 N 
HETATM    2  C8  UNL     1      24.549   5.473  48.548  1.00  0.00     0.155 C 
HETATM    3  C9  UNL     1      25.194   6.833  48.460  1.00  0.00     0.025 C 
HETATM    4  C10 UNL     1      26.496   7.039  48.499  1.00  0.00     0.064 C 
HETATM    5  N4  UNL     1      26.995   8.361  48.408  1.00  0.00    -0.242 NA
HETATM    6  C11 UNL     1      28.217   8.746  48.208  1.00  0.00     0.235 C 
HETATM    7  N5  UNL     1      29.423   7.991  48.021  1.00  0.00    -0.225 NA
HETATM    8  C12 UNL     1      29.608   6.711  48.131  1.00  0.00     0.128 C 
HETATM    9  C19 UNL     1      28.607   5.694  48.480  1.00  0.00     0.061 C 
HETATM   10  C20 UNL     1      27.295   5.839  48.633  1.00  0.00    -0.008 C 
HETATM   11  C21 UNL     1      26.650   4.558  48.982  1.00  0.00     0.166 C 
ENDROOT
BRANCH   1  12
HETATM   12  C1  UNL     1      24.992   4.122  50.787  1.00  0.00     0.170 C 
HETATM   13  S1  UNL     1      23.534   4.627  51.398  1.00  0.00    -0.041 SA
BRANCH  12  14
HETATM   14  N1  UNL     1      25.727   3.188  51.573  1.00  0.00    -0.366 N 
HETATM   15  H1  UNL     1      26.710   2.997  51.208  1.00  0.00     0.161 HD
BRANCH  14  16
HETATM   16  C2  UNL     1      25.383   2.455  52.770  1.00  0.00     0.141 C 
BRANCH  16  17
HETATM   17  C3  UNL     1      24.901   1.083  52.375  1.00  0.00     0.136 C 
BRANCH  17  18
HETATM   18  N2  UNL     1      23.702   0.645  52.974  1.00  0.00    -0.407 N 
HETATM   19  C4  UNL     1      23.764  -0.559  53.741  1.00  0.00     0.143 C 
HETATM   20  C5  UNL     1      22.378  -0.989  54.153  1.00  0.00     0.187 C 
HETATM   21  O1  UNL     1      21.522   0.082  54.361  1.00  0.00    -0.388 OA
HETATM   22  C6  UNL     1      21.345   0.893  53.263  1.00  0.00     0.187 C 
HETATM   23  C7  UNL     1      22.490   0.795  52.260  1.00  0.00     0.143 C 
ENDBRANCH  17  18
ENDBRANCH  16  17
ENDBRANCH  14  16
ENDBRANCH  12  14
ENDBRANCH   1  12
BRANCH   8  24
HETATM   24  N6  UNL     1      30.952   6.250  47.877  1.00  0.00    -0.359 N 
HETATM   25  C13 UNL     1      30.923   4.846  47.554  1.00  0.00     0.152 C 
HETATM   26  C14 UNL     1      32.217   4.278  47.149  1.00  0.00    -0.005 C 
HETATM   27  C15 UNL     1      33.467   4.562  47.444  1.00  0.00     0.021 C 
HETATM   28  C16 UNL     1      33.890   5.638  48.351  1.00  0.00     0.031 C 
HETATM   29 CL1  UNL     1      35.406   5.368  49.212  1.00  0.00    -0.085 Cl
HETATM   30  C17 UNL     1      33.234   6.769  48.567  1.00  0.00     0.017 C 
HETATM   31  C18 UNL     1      31.952   7.288  48.009  1.00  0.00     0.153 C 
ENDBRANCH   8  24
TORSDOF 6
ENDMDL
