MODEL 1
REMARK VINA RESULT:      -8.6      0.000      0.000
REMARK  9 active torsions:
REMARK  status: ('A' for Active; 'I' for Inactive)
REMARK    1  A    between atoms: C3_3  and  C4_4 
REMARK    2  A    between atoms: C4_4  and  C5_5 
REMARK    3  A    between atoms: C4_4  and  C23_29 
REMARK    4  A    between atoms: C5_5  and  C6_6 
REMARK       I    between atoms: C6_6  and  N1_8 
REMARK    5  A    between atoms: N1_8  and  C7_9 
REMARK    6  A    between atoms: C9_11  and  N2_12 
REMARK    7  A    between atoms: C11_15  and  C12_16 
REMARK    8  A    between atoms: C11_15  and  C15_19 
REMARK    9  A    between atoms: C15_19  and  C16_20 
ROOT
HETATM    1  C7  UNL     1      22.164   1.831  52.115  1.00  0.00     0.116 C 
HETATM    2  C8  UNL     1      21.919   3.319  52.111  1.00  0.00     0.025 C 
HETATM    3  C9  UNL     1      22.809   4.182  52.565  1.00  0.00     0.025 C 
HETATM    4  C10 UNL     1      24.175   3.926  53.151  1.00  0.00     0.225 C 
HETATM    5  O2  UNL     1      24.631   2.691  52.877  1.00  0.00    -0.369 OA
HETATM    6  C11 UNL     1      24.631   2.151  51.657  1.00  0.00     0.088 C 
HETATM    7  C21 UNL     1      23.304   1.612  51.147  1.00  0.00     0.047 C 
HETATM    8  C22 UNL     1      22.914   2.243  49.815  1.00  0.00     0.016 C 
ENDROOT
BRANCH   1   9
HETATM    9  N1  UNL     1      20.991   1.185  51.625  1.00  0.00    -0.353 N 
HETATM   10  C6  UNL     1      20.084   0.382  52.415  1.00  0.00     0.219 C 
HETATM   11  O1  UNL     1      20.572   0.405  53.573  1.00  0.00    -0.274 OA
HETATM   12  H9  UNL     1      20.935   1.417  50.587  1.00  0.00     0.163 HD
BRANCH  10  13
HETATM   13  C5  UNL     1      18.995  -0.110  51.539  1.00  0.00     0.120 C 
BRANCH  13  14
HETATM   14  C4  UNL     1      17.635  -0.084  52.159  1.00  0.00     0.124 C 
BRANCH  14  15
HETATM   15  C3  UNL     1      17.221  -1.442  52.640  1.00  0.00    -0.017 C 
HETATM   16  C2  UNL     1      17.874  -2.294  53.404  1.00  0.00    -0.034 C 
HETATM   17  C1  UNL     1      17.272  -3.614  53.770  1.00  0.00     0.036 C 
ENDBRANCH  14  15
BRANCH  14  18
HETATM   18  C23 UNL     1      16.556   0.408  51.190  1.00  0.00     0.395 C 
HETATM   19  F1  UNL     1      16.588   1.752  50.990  1.00  0.00    -0.170 F 
HETATM   20  F2  UNL     1      15.311   0.071  51.637  1.00  0.00    -0.170 F 
HETATM   21  F3  UNL     1      16.784  -0.249  50.003  1.00  0.00    -0.170 F 
ENDBRANCH  14  18
ENDBRANCH  13  14
ENDBRANCH  10  13
ENDBRANCH   1   9
BRANCH   3  22
HETATM   22  N2  UNL     1      22.434   5.545  52.494  1.00  0.00    -0.401 N 
HETATM   23  H12 UNL     1      21.964   6.426  52.179  1.00  0.00     0.156 HD
HETATM   24  H13 UNL     1      23.028   5.889  53.293  1.00  0.00     0.156 HD
ENDBRANCH   3  22
BRANCH   6  25
HETATM   25  C12 UNL     1      25.238   2.876  50.538  1.00  0.00     0.007 C 
HETATM   26  C13 UNL     1      26.192   3.687  50.183  1.00  0.00    -0.032 C 
HETATM   27  C14 UNL     1      26.803   4.421  49.039  1.00  0.00     0.036 C 
ENDBRANCH   6  25
BRANCH   6  28
HETATM   28  C15 UNL     1      25.525   0.899  51.807  1.00  0.00     0.082 C 
BRANCH  28  29
HETATM   29  C16 UNL     1      26.512   1.013  52.877  1.00  0.00    -0.038 C 
HETATM   30  C17 UNL     1      26.441   0.050  53.811  1.00  0.00     0.096 C 
HETATM   31  N3  UNL     1      27.231  -0.172  54.998  1.00  0.00    -0.360 N 
HETATM   32  C18 UNL     1      28.591   0.270  55.146  1.00  0.00     0.206 C 
HETATM   33  H24 UNL     1      26.835  -0.670  55.803  1.00  0.00     0.166 HD
HETATM   34  N4  UNL     1      29.135   1.291  54.537  1.00  0.00    -0.256 NA
HETATM   35  C19 UNL     1      28.582   2.209  53.606  1.00  0.00     0.118 C 
HETATM   36  C20 UNL     1      27.478   2.099  52.903  1.00  0.00     0.028 C 
ENDBRANCH  28  29
ENDBRANCH   6  28
TORSDOF 9
ENDMDL
MODEL 2
REMARK VINA RESULT:      -8.2      3.709      6.097
REMARK  9 active torsions:
REMARK  status: ('A' for Active; 'I' for Inactive)
REMARK    1  A    between atoms: C3_3  and  C4_4 
REMARK    2  A    between atoms: C4_4  and  C5_5 
REMARK    3  A    between atoms: C4_4  and  C23_29 
REMARK    4  A    between atoms: C5_5  and  C6_6 
REMARK       I    between atoms: C6_6  and  N1_8 
REMARK    5  A    between atoms: N1_8  and  C7_9 
REMARK    6  A    between atoms: C9_11  and  N2_12 
REMARK    7  A    between atoms: C11_15  and  C12_16 
REMARK    8  A    between atoms: C11_15  and  C15_19 
REMARK    9  A    between atoms: C15_19  and  C16_20 
ROOT
HETATM    1  C7  UNL     1      22.019   2.919  51.038  1.00  0.00     0.116 C 
HETATM    2  C8  UNL     1      22.218   2.131  49.768  1.00  0.00     0.025 C 
HETATM    3  C9  UNL     1      22.457   2.712  48.607  1.00  0.00     0.025 C 
HETATM    4  C10 UNL     1      22.581   4.179  48.281  1.00  0.00     0.225 C 
HETATM    5  O2  UNL     1      22.775   4.937  49.375  1.00  0.00    -0.369 OA
HETATM    6  C11 UNL     1      23.689   4.674  50.310  1.00  0.00     0.088 C 
HETATM    7  C21 UNL     1      23.351   3.580  51.310  1.00  0.00     0.047 C 
HETATM    8  C22 UNL     1      24.416   2.490  51.335  1.00  0.00     0.016 C 
ENDROOT
BRANCH   1   9
HETATM    9  N1  UNL     1      21.716   2.003  52.089  1.00  0.00    -0.353 N 
HETATM   10  C6  UNL     1      20.572   2.086  52.969  1.00  0.00     0.219 C 
HETATM   11  O1  UNL     1      19.955   3.112  52.587  1.00  0.00    -0.274 OA
HETATM   12  H9  UNL     1      22.492   1.274  52.079  1.00  0.00     0.163 HD
BRANCH  10  13
HETATM   13  C5  UNL     1      20.620   0.951  53.921  1.00  0.00     0.120 C 
BRANCH  13  14
HETATM   14  C4  UNL     1      20.868  -0.381  53.291  1.00  0.00     0.124 C 
BRANCH  14  15
HETATM   15  C3  UNL     1      19.702  -1.306  53.475  1.00  0.00    -0.017 C 
HETATM   16  C2  UNL     1      18.448  -1.155  53.104  1.00  0.00    -0.034 C 
HETATM   17  C1  UNL     1      17.429  -2.213  53.390  1.00  0.00     0.036 C 
ENDBRANCH  14  15
BRANCH  14  18
HETATM   18  C23 UNL     1      22.105  -1.082  53.863  1.00  0.00     0.395 C 
HETATM   19  F1  UNL     1      22.502  -0.574  55.060  1.00  0.00    -0.170 F 
HETATM   20  F2  UNL     1      23.154  -1.004  52.994  1.00  0.00    -0.170 F 
HETATM   21  F3  UNL     1      21.758  -2.405  54.007  1.00  0.00    -0.170 F 
ENDBRANCH  14  18
ENDBRANCH  13  14
ENDBRANCH  10  13
ENDBRANCH   1   9
BRANCH   3  22
HETATM   22  N2  UNL     1      22.622   1.838  47.505  1.00  0.00    -0.401 N 
HETATM   23  H12 UNL     1      22.693   0.956  46.945  1.00  0.00     0.156 HD
HETATM   24  H13 UNL     1      22.770   2.576  46.769  1.00  0.00     0.156 HD
ENDBRANCH   3  22
BRANCH   6  25
HETATM   25  C12 UNL     1      25.087   4.462  49.924  1.00  0.00     0.007 C 
HETATM   26  C13 UNL     1      26.064   4.883  49.176  1.00  0.00    -0.032 C 
HETATM   27  C14 UNL     1      27.486   4.660  48.791  1.00  0.00     0.036 C 
ENDBRANCH   6  25
BRANCH   6  28
HETATM   28  C15 UNL     1      23.737   5.968  51.154  1.00  0.00     0.082 C 
BRANCH  28  29
HETATM   29  C16 UNL     1      23.021   7.086  50.546  1.00  0.00    -0.038 C 
HETATM   30  C17 UNL     1      23.776   7.879  49.766  1.00  0.00     0.096 C 
HETATM   31  N3  UNL     1      23.434   9.059  49.010  1.00  0.00    -0.360 N 
HETATM   32  C18 UNL     1      22.117   9.324  48.497  1.00  0.00     0.206 C 
HETATM   33  H24 UNL     1      24.143   9.771  48.806  1.00  0.00     0.166 HD
HETATM   34  N4  UNL     1      20.995   8.881  49.001  1.00  0.00    -0.256 NA
HETATM   35  C19 UNL     1      20.757   8.058  50.134  1.00  0.00     0.118 C 
HETATM   36  C20 UNL     1      21.605   7.299  50.789  1.00  0.00     0.028 C 
ENDBRANCH  28  29
ENDBRANCH   6  28
TORSDOF 9
ENDMDL
MODEL 3
REMARK VINA RESULT:      -7.9      4.662      7.429
REMARK  9 active torsions:
REMARK  status: ('A' for Active; 'I' for Inactive)
REMARK    1  A    between atoms: C3_3  and  C4_4 
REMARK    2  A    between atoms: C4_4  and  C5_5 
REMARK    3  A    between atoms: C4_4  and  C23_29 
REMARK    4  A    between atoms: C5_5  and  C6_6 
REMARK       I    between atoms: C6_6  and  N1_8 
REMARK    5  A    between atoms: N1_8  and  C7_9 
REMARK    6  A    between atoms: C9_11  and  N2_12 
REMARK    7  A    between atoms: C11_15  and  C12_16 
REMARK    8  A    between atoms: C11_15  and  C15_19 
REMARK    9  A    between atoms: C15_19  and  C16_20 
ROOT
HETATM    1  C7  UNL     1      23.190   2.946  51.506  1.00  0.00     0.116 C 
HETATM    2  C8  UNL     1      21.698   3.001  51.713  1.00  0.00     0.025 C 
HETATM    3  C9  UNL     1      20.976   4.055  51.377  1.00  0.00     0.025 C 
HETATM    4  C10 UNL     1      21.420   5.357  50.756  1.00  0.00     0.225 C 
HETATM    5  O2  UNL     1      22.646   5.277  50.210  1.00  0.00    -0.369 OA
HETATM    6  C11 UNL     1      23.031   4.307  49.379  1.00  0.00     0.088 C 
HETATM    7  C21 UNL     1      23.386   2.969  50.008  1.00  0.00     0.047 C 
HETATM    8  C22 UNL     1      22.565   1.831  49.412  1.00  0.00     0.016 C 
ENDROOT
BRANCH   1   9
HETATM    9  N1  UNL     1      23.668   1.710  52.032  1.00  0.00    -0.353 N 
HETATM   10  C6  UNL     1      24.524   1.565  53.188  1.00  0.00     0.219 C 
HETATM   11  O1  UNL     1      24.722   2.743  53.581  1.00  0.00    -0.274 OA
HETATM   12  H9  UNL     1      23.267   0.947  51.406  1.00  0.00     0.163 HD
BRANCH  10  13
HETATM   13  C5  UNL     1      24.794   0.124  53.405  1.00  0.00     0.120 C 
BRANCH  13  14
HETATM   14  C4  UNL     1      26.239  -0.223  53.565  1.00  0.00     0.124 C 
BRANCH  14  15
HETATM   15  C3  UNL     1      27.113   0.990  53.456  1.00  0.00    -0.017 C 
HETATM   16  C2  UNL     1      28.297   1.218  53.986  1.00  0.00    -0.034 C 
HETATM   17  C1  UNL     1      29.008   2.513  53.750  1.00  0.00     0.036 C 
ENDBRANCH  14  15
BRANCH  14  18
HETATM   18  C23 UNL     1      26.721  -1.231  52.517  1.00  0.00     0.395 C 
HETATM   19  F1  UNL     1      25.853  -2.260  52.325  1.00  0.00    -0.170 F 
HETATM   20  F2  UNL     1      27.934  -1.752  52.864  1.00  0.00    -0.170 F 
HETATM   21  F3  UNL     1      26.872  -0.520  51.349  1.00  0.00    -0.170 F 
ENDBRANCH  14  18
ENDBRANCH  13  14
ENDBRANCH  10  13
ENDBRANCH   1   9
BRANCH   3  22
HETATM   22  N2  UNL     1      19.588   3.956  51.633  1.00  0.00    -0.401 N 
HETATM   23  H12 UNL     1      18.658   3.557  51.902  1.00  0.00     0.156 HD
HETATM   24  H13 UNL     1      19.334   4.947  51.381  1.00  0.00     0.156 HD
ENDBRANCH   3  22
BRANCH   6  25
HETATM   25  C12 UNL     1      22.228   4.004  48.191  1.00  0.00     0.007 C 
HETATM   26  C13 UNL     1      21.688   4.495  47.114  1.00  0.00    -0.032 C 
HETATM   27  C14 UNL     1      20.871   4.176  45.909  1.00  0.00     0.036 C 
ENDBRANCH   6  25
BRANCH   6  28
HETATM   28  C15 UNL     1      24.363   4.827  48.795  1.00  0.00     0.082 C 
BRANCH  28  29
HETATM   29  C16 UNL     1      24.649   6.216  49.143  1.00  0.00    -0.038 C 
HETATM   30  C17 UNL     1      25.556   6.375  50.121  1.00  0.00     0.096 C 
HETATM   31  N3  UNL     1      26.089   7.570  50.728  1.00  0.00    -0.360 N 
HETATM   32  C18 UNL     1      26.169   8.839  50.055  1.00  0.00     0.206 C 
HETATM   33  H24 UNL     1      26.440   7.555  51.691  1.00  0.00     0.166 HD
HETATM   34  N4  UNL     1      25.390   9.243  49.086  1.00  0.00    -0.256 NA
HETATM   35  C19 UNL     1      24.302   8.591  48.448  1.00  0.00     0.118 C 
HETATM   36  C20 UNL     1      23.983   7.317  48.467  1.00  0.00     0.028 C 
ENDBRANCH  28  29
ENDBRANCH   6  28
TORSDOF 9
ENDMDL
MODEL 4
REMARK VINA RESULT:      -7.8      4.767      7.719
REMARK  9 active torsions:
REMARK  status: ('A' for Active; 'I' for Inactive)
REMARK    1  A    between atoms: C3_3  and  C4_4 
REMARK    2  A    between atoms: C4_4  and  C5_5 
REMARK    3  A    between atoms: C4_4  and  C23_29 
REMARK    4  A    between atoms: C5_5  and  C6_6 
REMARK       I    between atoms: C6_6  and  N1_8 
REMARK    5  A    between atoms: N1_8  and  C7_9 
REMARK    6  A    between atoms: C9_11  and  N2_12 
REMARK    7  A    between atoms: C11_15  and  C12_16 
REMARK    8  A    between atoms: C11_15  and  C15_19 
REMARK    9  A    between atoms: C15_19  and  C16_20 
ROOT
HETATM    1  C7  UNL     1      24.415   2.891  50.726  1.00  0.00     0.116 C 
HETATM    2  C8  UNL     1      24.346   4.371  50.452  1.00  0.00     0.025 C 
HETATM    3  C9  UNL     1      23.668   4.871  49.435  1.00  0.00     0.025 C 
HETATM    4  C10 UNL     1      22.861   4.154  48.382  1.00  0.00     0.225 C 
HETATM    5  O2  UNL     1      22.564   2.889  48.730  1.00  0.00    -0.369 OA
HETATM    6  C11 UNL     1      22.046   2.543  49.910  1.00  0.00     0.088 C 
HETATM    7  C21 UNL     1      23.005   2.486  51.089  1.00  0.00     0.047 C 
HETATM    8  C22 UNL     1      22.543   3.378  52.235  1.00  0.00     0.016 C 
ENDROOT
BRANCH   1   9
HETATM    9  N1  UNL     1      25.274   2.683  51.845  1.00  0.00    -0.353 N 
HETATM   10  C6  UNL     1      26.682   2.358  51.773  1.00  0.00     0.219 C 
HETATM   11  O1  UNL     1      26.930   2.311  50.542  1.00  0.00    -0.274 OA
HETATM   12  H9  UNL     1      24.670   2.817  52.712  1.00  0.00     0.163 HD
BRANCH  10  13
HETATM   13  C5  UNL     1      27.211   2.224  53.151  1.00  0.00     0.120 C 
BRANCH  13  14
HETATM   14  C4  UNL     1      27.588   0.831  53.540  1.00  0.00     0.124 C 
BRANCH  14  15
HETATM   15  C3  UNL     1      26.592   0.235  54.490  1.00  0.00    -0.017 C 
HETATM   16  C2  UNL     1      25.578  -0.567  54.244  1.00  0.00    -0.034 C 
HETATM   17  C1  UNL     1      24.695  -1.052  55.351  1.00  0.00     0.036 C 
ENDBRANCH  14  15
BRANCH  14  18
HETATM   18  C23 UNL     1      28.963   0.759  54.212  1.00  0.00     0.395 C 
HETATM   19  F1  UNL     1      29.430   1.972  54.609  1.00  0.00    -0.170 F 
HETATM   20  F2  UNL     1      29.884   0.198  53.375  1.00  0.00    -0.170 F 
HETATM   21  F3  UNL     1      28.809  -0.065  55.303  1.00  0.00    -0.170 F 
ENDBRANCH  14  18
ENDBRANCH  13  14
ENDBRANCH  10  13
ENDBRANCH   1   9
BRANCH   3  22
HETATM   22  N2  UNL     1      23.698   6.280  49.310  1.00  0.00    -0.401 N 
HETATM   23  H12 UNL     1      23.746   7.295  49.565  1.00  0.00     0.156 HD
HETATM   24  H13 UNL     1      23.617   6.323  48.261  1.00  0.00     0.156 HD
ENDBRANCH   3  22
BRANCH   6  25
HETATM   25  C12 UNL     1      20.834   3.209  50.397  1.00  0.00     0.007 C 
HETATM   26  C13 UNL     1      19.677   3.699  50.061  1.00  0.00    -0.032 C 
HETATM   27  C14 UNL     1      18.448   4.375  50.566  1.00  0.00     0.036 C 
ENDBRANCH   6  25
BRANCH   6  28
HETATM   28  C15 UNL     1      21.598   1.079  49.702  1.00  0.00     0.082 C 
BRANCH  28  29
HETATM   29  C16 UNL     1      21.144   0.430  50.929  1.00  0.00    -0.038 C 
HETATM   30  C17 UNL     1      22.126  -0.073  51.695  1.00  0.00     0.096 C 
HETATM   31  N3  UNL     1      22.074  -0.771  52.956  1.00  0.00    -0.360 N 
HETATM   32  C18 UNL     1      21.018  -0.604  53.919  1.00  0.00     0.206 C 
HETATM   33  H24 UNL     1      22.813  -1.432  53.218  1.00  0.00     0.166 HD
HETATM   34  N4  UNL     1      19.789  -0.248  53.652  1.00  0.00    -0.256 NA
HETATM   35  C19 UNL     1      19.168   0.061  52.413  1.00  0.00     0.118 C 
HETATM   36  C20 UNL     1      19.732   0.348  51.262  1.00  0.00     0.028 C 
ENDBRANCH  28  29
ENDBRANCH   6  28
TORSDOF 9
ENDMDL
MODEL 5
REMARK VINA RESULT:      -7.8      3.884      5.957
REMARK  9 active torsions:
REMARK  status: ('A' for Active; 'I' for Inactive)
REMARK    1  A    between atoms: C3_3  and  C4_4 
REMARK    2  A    between atoms: C4_4  and  C5_5 
REMARK    3  A    between atoms: C4_4  and  C23_29 
REMARK    4  A    between atoms: C5_5  and  C6_6 
REMARK       I    between atoms: C6_6  and  N1_8 
REMARK    5  A    between atoms: N1_8  and  C7_9 
REMARK    6  A    between atoms: C9_11  and  N2_12 
REMARK    7  A    between atoms: C11_15  and  C12_16 
REMARK    8  A    between atoms: C11_15  and  C15_19 
REMARK    9  A    between atoms: C15_19  and  C16_20 
ROOT
HETATM    1  C7  UNL     1      22.982   3.231  50.966  1.00  0.00     0.116 C 
HETATM    2  C8  UNL     1      21.493   3.465  50.976  1.00  0.00     0.025 C 
HETATM    3  C9  UNL     1      20.959   4.627  50.646  1.00  0.00     0.025 C 
HETATM    4  C10 UNL     1      21.639   5.902  50.214  1.00  0.00     0.225 C 
HETATM    5  O2  UNL     1      22.913   5.704  49.832  1.00  0.00    -0.369 OA
HETATM    6  C11 UNL     1      23.294   4.758  48.973  1.00  0.00     0.088 C 
HETATM    7  C21 UNL     1      23.393   3.340  49.515  1.00  0.00     0.047 C 
HETATM    8  C22 UNL     1      22.536   2.369  48.712  1.00  0.00     0.016 C 
ENDROOT
BRANCH   1   9
HETATM    9  N1  UNL     1      23.228   1.906  51.433  1.00  0.00    -0.353 N 
HETATM   10  C6  UNL     1      23.686   1.556  52.759  1.00  0.00     0.219 C 
HETATM   11  O1  UNL     1      23.802   2.658  53.352  1.00  0.00    -0.274 OA
HETATM   12  H9  UNL     1      23.008   1.258  50.617  1.00  0.00     0.163 HD
BRANCH  10  13
HETATM   13  C5  UNL     1      23.820   0.083  52.845  1.00  0.00     0.120 C 
BRANCH  13  14
HETATM   14  C4  UNL     1      22.554  -0.639  53.177  1.00  0.00     0.124 C 
BRANCH  14  15
HETATM   15  C3  UNL     1      21.346   0.200  52.888  1.00  0.00    -0.017 C 
HETATM   16  C2  UNL     1      20.260  -0.102  52.207  1.00  0.00    -0.034 C 
HETATM   17  C1  UNL     1      19.158   0.895  52.035  1.00  0.00     0.036 C 
ENDBRANCH  14  15
BRANCH  14  18
HETATM   18  C23 UNL     1      22.482  -1.054  54.651  1.00  0.00     0.395 C 
HETATM   19  F1  UNL     1      23.696  -1.073  55.261  1.00  0.00    -0.170 F 
HETATM   20  F2  UNL     1      21.916  -2.289  54.782  1.00  0.00    -0.170 F 
HETATM   21  F3  UNL     1      21.663  -0.134  55.263  1.00  0.00    -0.170 F 
ENDBRANCH  14  18
ENDBRANCH  13  14
ENDBRANCH  10  13
ENDBRANCH   1   9
BRANCH   3  22
HETATM   22  N2  UNL     1      19.546   4.692  50.705  1.00  0.00    -0.401 N 
HETATM   23  H12 UNL     1      18.553   4.446  50.930  1.00  0.00     0.156 HD
HETATM   24  H13 UNL     1      19.430   5.580  50.151  1.00  0.00     0.156 HD
ENDBRANCH   3  22
BRANCH   6  25
HETATM   25  C12 UNL     1      22.640   4.653  47.665  1.00  0.00     0.007 C 
HETATM   26  C13 UNL     1      22.340   5.284  46.568  1.00  0.00    -0.032 C 
HETATM   27  C14 UNL     1      21.673   5.168  45.240  1.00  0.00     0.036 C 
ENDBRANCH   6  25
BRANCH   6  28
HETATM   28  C15 UNL     1      24.750   5.141  48.622  1.00  0.00     0.082 C 
BRANCH  28  29
HETATM   29  C16 UNL     1      25.090   6.517  48.972  1.00  0.00    -0.038 C 
HETATM   30  C17 UNL     1      25.742   6.654  50.139  1.00  0.00     0.096 C 
HETATM   31  N3  UNL     1      26.236   7.832  50.809  1.00  0.00    -0.360 N 
HETATM   32  C18 UNL     1      26.615   9.040  50.126  1.00  0.00     0.206 C 
HETATM   33  H24 UNL     1      26.338   7.848  51.829  1.00  0.00     0.166 HD
HETATM   34  N4  UNL     1      26.144   9.450  48.977  1.00  0.00    -0.256 NA
HETATM   35  C19 UNL     1      25.180   8.862  48.115  1.00  0.00     0.118 C 
HETATM   36  C20 UNL     1      24.732   7.628  48.107  1.00  0.00     0.028 C 
ENDBRANCH  28  29
ENDBRANCH   6  28
TORSDOF 9
ENDMDL
MODEL 6
REMARK VINA RESULT:      -7.7      1.178      2.132
REMARK  9 active torsions:
REMARK  status: ('A' for Active; 'I' for Inactive)
REMARK    1  A    between atoms: C3_3  and  C4_4 
REMARK    2  A    between atoms: C4_4  and  C5_5 
REMARK    3  A    between atoms: C4_4  and  C23_29 
REMARK    4  A    between atoms: C5_5  and  C6_6 
REMARK       I    between atoms: C6_6  and  N1_8 
REMARK    5  A    between atoms: N1_8  and  C7_9 
REMARK    6  A    between atoms: C9_11  and  N2_12 
REMARK    7  A    between atoms: C11_15  and  C12_16 
REMARK    8  A    between atoms: C11_15  and  C15_19 
REMARK    9  A    between atoms: C15_19  and  C16_20 
ROOT
HETATM    1  C7  UNL     1      21.997   1.976  51.595  1.00  0.00     0.116 C 
HETATM    2  C8  UNL     1      21.785   3.468  51.624  1.00  0.00     0.025 C 
HETATM    3  C9  UNL     1      22.628   4.290  52.224  1.00  0.00     0.025 C 
HETATM    4  C10 UNL     1      23.901   3.975  52.968  1.00  0.00     0.225 C 
HETATM    5  O2  UNL     1      24.364   2.741  52.701  1.00  0.00    -0.369 OA
HETATM    6  C11 UNL     1      24.509   2.249  51.469  1.00  0.00     0.088 C 
HETATM    7  C21 UNL     1      23.247   1.767  50.772  1.00  0.00     0.047 C 
HETATM    8  C22 UNL     1      23.044   2.460  49.430  1.00  0.00     0.016 C 
ENDROOT
BRANCH   1   9
HETATM    9  N1  UNL     1      20.884   1.380  50.933  1.00  0.00    -0.353 N 
HETATM   10  C6  UNL     1      19.777   0.716  51.586  1.00  0.00     0.219 C 
HETATM   11  O1  UNL     1      20.041   0.799  52.812  1.00  0.00    -0.274 OA
HETATM   12  H9  UNL     1      21.044   1.528  49.891  1.00  0.00     0.163 HD
BRANCH  10  13
HETATM   13  C5  UNL     1      18.832   0.235  50.551  1.00  0.00     0.120 C 
BRANCH  13  14
HETATM   14  C4  UNL     1      17.388   0.420  50.891  1.00  0.00     0.124 C 
BRANCH  14  15
HETATM   15  C3  UNL     1      17.136   1.758  51.519  1.00  0.00    -0.017 C 
HETATM   16  C2  UNL     1      16.866   2.913  50.946  1.00  0.00    -0.034 C 
HETATM   17  C1  UNL     1      16.645   4.144  51.767  1.00  0.00     0.036 C 
ENDBRANCH  14  15
BRANCH  14  18
HETATM   18  C23 UNL     1      16.871  -0.647  51.861  1.00  0.00     0.395 C 
HETATM   19  F1  UNL     1      17.846  -1.477  52.315  1.00  0.00    -0.170 F 
HETATM   20  F2  UNL     1      15.899  -1.406  51.276  1.00  0.00    -0.170 F 
HETATM   21  F3  UNL     1      16.310   0.039  52.914  1.00  0.00    -0.170 F 
ENDBRANCH  14  18
ENDBRANCH  13  14
ENDBRANCH  10  13
ENDBRANCH   1   9
BRANCH   3  22
HETATM   22  N2  UNL     1      22.293   5.663  52.165  1.00  0.00    -0.401 N 
HETATM   23  H12 UNL     1      21.824   6.577  52.373  1.00  0.00     0.156 HD
HETATM   24  H13 UNL     1      22.970   5.934  51.405  1.00  0.00     0.156 HD
ENDBRANCH   3  22
BRANCH   6  25
HETATM   25  C12 UNL     1      25.269   3.004  50.469  1.00  0.00     0.007 C 
HETATM   26  C13 UNL     1      25.735   4.173  50.140  1.00  0.00    -0.032 C 
HETATM   27  C14 UNL     1      26.510   4.932  49.118  1.00  0.00     0.036 C 
ENDBRANCH   6  25
BRANCH   6  28
HETATM   28  C15 UNL     1      25.351   0.970  51.678  1.00  0.00     0.082 C 
BRANCH  28  29
HETATM   29  C16 UNL     1      26.327   1.085  52.758  1.00  0.00    -0.038 C 
HETATM   30  C17 UNL     1      26.260   0.110  53.680  1.00  0.00     0.096 C 
HETATM   31  N3  UNL     1      27.042  -0.116  54.871  1.00  0.00    -0.360 N 
HETATM   32  C18 UNL     1      28.395   0.343  55.037  1.00  0.00     0.206 C 
HETATM   33  H24 UNL     1      26.646  -0.628  55.666  1.00  0.00     0.166 HD
HETATM   34  N4  UNL     1      28.931   1.378  54.444  1.00  0.00    -0.256 NA
HETATM   35  C19 UNL     1      28.373   2.300  53.519  1.00  0.00     0.118 C 
HETATM   36  C20 UNL     1      27.277   2.183  52.805  1.00  0.00     0.028 C 
ENDBRANCH  28  29
ENDBRANCH   6  28
TORSDOF 9
ENDMDL
MODEL 7
REMARK VINA RESULT:      -7.7      4.247      6.784
REMARK  9 active torsions:
REMARK  status: ('A' for Active; 'I' for Inactive)
REMARK    1  A    between atoms: C3_3  and  C4_4 
REMARK    2  A    between atoms: C4_4  and  C5_5 
REMARK    3  A    between atoms: C4_4  and  C23_29 
REMARK    4  A    between atoms: C5_5  and  C6_6 
REMARK       I    between atoms: C6_6  and  N1_8 
REMARK    5  A    between atoms: N1_8  and  C7_9 
REMARK    6  A    between atoms: C9_11  and  N2_12 
REMARK    7  A    between atoms: C11_15  and  C12_16 
REMARK    8  A    between atoms: C11_15  and  C15_19 
REMARK    9  A    between atoms: C15_19  and  C16_20 
ROOT
HETATM    1  C7  UNL     1      24.115   4.575  51.114  1.00  0.00     0.116 C 
HETATM    2  C8  UNL     1      22.855   5.402  51.160  1.00  0.00     0.025 C 
HETATM    3  C9  UNL     1      22.866   6.715  51.019  1.00  0.00     0.025 C 
HETATM    4  C10 UNL     1      24.036   7.641  50.797  1.00  0.00     0.225 C 
HETATM    5  O2  UNL     1      25.140   6.991  50.390  1.00  0.00    -0.369 OA
HETATM    6  C11 UNL     1      25.158   6.106  49.391  1.00  0.00     0.088 C 
HETATM    7  C21 UNL     1      24.632   4.714  49.700  1.00  0.00     0.047 C 
HETATM    8  C22 UNL     1      23.509   4.312  48.751  1.00  0.00     0.016 C 
ENDROOT
BRANCH   1   9
HETATM    9  N1  UNL     1      23.766   3.215  51.364  1.00  0.00    -0.353 N 
HETATM   10  C6  UNL     1      23.898   2.536  52.633  1.00  0.00     0.219 C 
HETATM   11  O1  UNL     1      24.372   3.405  53.407  1.00  0.00    -0.274 OA
HETATM   12  H9  UNL     1      23.400   2.828  50.441  1.00  0.00     0.163 HD
BRANCH  10  13
HETATM   13  C5  UNL     1      23.430   1.138  52.477  1.00  0.00     0.120 C 
BRANCH  13  14
HETATM   14  C4  UNL     1      23.884   0.205  53.553  1.00  0.00     0.124 C 
BRANCH  14  15
HETATM   15  C3  UNL     1      24.906  -0.768  53.046  1.00  0.00    -0.017 C 
HETATM   16  C2  UNL     1      26.212  -0.774  53.218  1.00  0.00    -0.034 C 
HETATM   17  C1  UNL     1      27.060  -1.851  52.618  1.00  0.00     0.036 C 
ENDBRANCH  14  15
BRANCH  14  18
HETATM   18  C23 UNL     1      22.732  -0.610  54.150  1.00  0.00     0.395 C 
HETATM   19  F1  UNL     1      23.057  -1.222  55.319  1.00  0.00    -0.170 F 
HETATM   20  F2  UNL     1      22.304  -1.563  53.271  1.00  0.00    -0.170 F 
HETATM   21  F3  UNL     1      21.705   0.283  54.356  1.00  0.00    -0.170 F 
ENDBRANCH  14  18
ENDBRANCH  13  14
ENDBRANCH  10  13
ENDBRANCH   1   9
BRANCH   3  22
HETATM   22  N2  UNL     1      21.603   7.350  51.085  1.00  0.00    -0.401 N 
HETATM   23  H12 UNL     1      20.848   8.023  51.356  1.00  0.00     0.156 HD
HETATM   24  H13 UNL     1      21.100   6.717  50.410  1.00  0.00     0.156 HD
ENDBRANCH   3  22
BRANCH   6  25
HETATM   25  C12 UNL     1      24.608   6.473  48.083  1.00  0.00     0.007 C 
HETATM   26  C13 UNL     1      24.210   7.456  47.329  1.00  0.00    -0.032 C 
HETATM   27  C14 UNL     1      23.652   7.819  45.996  1.00  0.00     0.036 C 
ENDBRANCH   6  25
BRANCH   6  28
HETATM   28  C15 UNL     1      26.663   5.898  49.108  1.00  0.00     0.082 C 
BRANCH  28  29
HETATM   29  C16 UNL     1      27.351   7.117  48.691  1.00  0.00    -0.038 C 
HETATM   30  C17 UNL     1      28.014   7.016  47.526  1.00  0.00     0.096 C 
HETATM   31  N3  UNL     1      28.797   7.987  46.801  1.00  0.00    -0.360 N 
HETATM   32  C18 UNL     1      28.590   9.407  46.890  1.00  0.00     0.206 C 
HETATM   33  H24 UNL     1      29.552   7.685  46.176  1.00  0.00     0.166 HD
HETATM   34  N4  UNL     1      28.084  10.044  47.914  1.00  0.00    -0.256 NA
HETATM   35  C19 UNL     1      27.617   9.556  49.162  1.00  0.00     0.118 C 
HETATM   36  C20 UNL     1      27.305   8.325  49.497  1.00  0.00     0.028 C 
ENDBRANCH  28  29
ENDBRANCH   6  28
TORSDOF 9
ENDMDL
MODEL 8
REMARK VINA RESULT:      -7.6      5.967     10.342
REMARK  9 active torsions:
REMARK  status: ('A' for Active; 'I' for Inactive)
REMARK    1  A    between atoms: C3_3  and  C4_4 
REMARK    2  A    between atoms: C4_4  and  C5_5 
REMARK    3  A    between atoms: C4_4  and  C23_29 
REMARK    4  A    between atoms: C5_5  and  C6_6 
REMARK       I    between atoms: C6_6  and  N1_8 
REMARK    5  A    between atoms: N1_8  and  C7_9 
REMARK    6  A    between atoms: C9_11  and  N2_12 
REMARK    7  A    between atoms: C11_15  and  C12_16 
REMARK    8  A    between atoms: C11_15  and  C15_19 
REMARK    9  A    between atoms: C15_19  and  C16_20 
ROOT
HETATM    1  C7  UNL     1      25.129   5.559  49.108  1.00  0.00     0.116 C 
HETATM    2  C8  UNL     1      25.084   6.064  50.527  1.00  0.00     0.025 C 
HETATM    3  C9  UNL     1      24.044   5.861  51.316  1.00  0.00     0.025 C 
HETATM    4  C10 UNL     1      22.752   5.140  51.025  1.00  0.00     0.225 C 
HETATM    5  O2  UNL     1      22.831   4.357  49.934  1.00  0.00    -0.369 OA
HETATM    6  C11 UNL     1      23.815   3.484  49.713  1.00  0.00     0.088 C 
HETATM    7  C21 UNL     1      25.136   4.052  49.220  1.00  0.00     0.047 C 
HETATM    8  C22 UNL     1      26.294   3.657  50.129  1.00  0.00     0.016 C 
ENDROOT
BRANCH   1   9
HETATM    9  N1  UNL     1      26.350   5.999  48.516  1.00  0.00    -0.353 N 
HETATM   10  C6  UNL     1      26.522   7.219  47.758  1.00  0.00     0.219 C 
HETATM   11  O1  UNL     1      25.384   7.752  47.758  1.00  0.00    -0.274 OA
HETATM   12  H9  UNL     1      27.078   5.258  48.750  1.00  0.00     0.163 HD
BRANCH  10  13
HETATM   13  C5  UNL     1      27.934   7.311  47.316  1.00  0.00     0.120 C 
BRANCH  13  14
HETATM   14  C4  UNL     1      28.941   7.112  48.403  1.00  0.00     0.124 C 
BRANCH  14  15
HETATM   15  C3  UNL     1      29.801   8.326  48.588  1.00  0.00    -0.017 C 
HETATM   16  C2  UNL     1      29.543   9.442  49.237  1.00  0.00    -0.034 C 
HETATM   17  C1  UNL     1      30.552  10.545  49.300  1.00  0.00     0.036 C 
ENDBRANCH  14  15
BRANCH  14  18
HETATM   18  C23 UNL     1      29.873   5.926  48.131  1.00  0.00     0.395 C 
HETATM   19  F1  UNL     1      29.209   4.759  47.921  1.00  0.00    -0.170 F 
HETATM   20  F2  UNL     1      30.743   5.744  49.167  1.00  0.00    -0.170 F 
HETATM   21  F3  UNL     1      30.597   6.263  47.011  1.00  0.00    -0.170 F 
ENDBRANCH  14  18
ENDBRANCH  13  14
ENDBRANCH  10  13
ENDBRANCH   1   9
BRANCH   3  22
HETATM   22  N2  UNL     1      24.151   6.396  52.622  1.00  0.00    -0.401 N 
HETATM   23  H12 UNL     1      24.418   7.028  53.413  1.00  0.00     0.156 HD
HETATM   24  H13 UNL     1      23.578   5.662  53.114  1.00  0.00     0.156 HD
ENDBRANCH   3  22
BRANCH   6  25
HETATM   25  C12 UNL     1      24.150   2.490  50.736  1.00  0.00     0.007 C 
HETATM   26  C13 UNL     1      23.672   1.630  51.587  1.00  0.00    -0.032 C 
HETATM   27  C14 UNL     1      24.023   0.620  52.626  1.00  0.00     0.036 C 
ENDBRANCH   6  25
BRANCH   6  28
HETATM   28  C15 UNL     1      23.295   2.631  48.534  1.00  0.00     0.082 C 
BRANCH  28  29
HETATM   29  C16 UNL     1      22.079   3.162  47.923  1.00  0.00    -0.038 C 
HETATM   30  C17 UNL     1      20.974   2.432  48.148  1.00  0.00     0.096 C 
HETATM   31  N3  UNL     1      19.611   2.631  47.719  1.00  0.00    -0.360 N 
HETATM   32  C18 UNL     1      19.046   3.920  47.422  1.00  0.00     0.206 C 
HETATM   33  H24 UNL     1      18.977   1.832  47.609  1.00  0.00     0.166 HD
HETATM   34  N4  UNL     1      19.709   4.970  47.013  1.00  0.00    -0.256 NA
HETATM   35  C19 UNL     1      21.096   5.141  46.757  1.00  0.00     0.118 C 
HETATM   36  C20 UNL     1      22.100   4.384  47.137  1.00  0.00     0.028 C 
ENDBRANCH  28  29
ENDBRANCH   6  28
TORSDOF 9
ENDMDL
MODEL 9
REMARK VINA RESULT:      -7.6      4.751      8.212
REMARK  9 active torsions:
REMARK  status: ('A' for Active; 'I' for Inactive)
REMARK    1  A    between atoms: C3_3  and  C4_4 
REMARK    2  A    between atoms: C4_4  and  C5_5 
REMARK    3  A    between atoms: C4_4  and  C23_29 
REMARK    4  A    between atoms: C5_5  and  C6_6 
REMARK       I    between atoms: C6_6  and  N1_8 
REMARK    5  A    between atoms: N1_8  and  C7_9 
REMARK    6  A    between atoms: C9_11  and  N2_12 
REMARK    7  A    between atoms: C11_15  and  C12_16 
REMARK    8  A    between atoms: C11_15  and  C15_19 
REMARK    9  A    between atoms: C15_19  and  C16_20 
ROOT
HETATM    1  C7  UNL     1      24.428   3.610  49.615  1.00  0.00     0.116 C 
HETATM    2  C8  UNL     1      23.428   3.334  48.522  1.00  0.00     0.025 C 
HETATM    3  C9  UNL     1      22.551   2.350  48.600  1.00  0.00     0.025 C 
HETATM    4  C10 UNL     1      22.344   1.340  49.702  1.00  0.00     0.225 C 
HETATM    5  O2  UNL     1      22.928   1.708  50.856  1.00  0.00    -0.369 OA
HETATM    6  C11 UNL     1      22.788   2.913  51.411  1.00  0.00     0.088 C 
HETATM    7  C21 UNL     1      23.607   4.044  50.808  1.00  0.00     0.047 C 
HETATM    8  C22 UNL     1      22.726   5.207  50.370  1.00  0.00     0.016 C 
ENDROOT
BRANCH   1   9
HETATM    9  N1  UNL     1      25.264   4.687  49.194  1.00  0.00    -0.353 N 
HETATM   10  C6  UNL     1      26.705   4.639  49.092  1.00  0.00     0.219 C 
HETATM   11  O1  UNL     1      27.007   3.473  49.449  1.00  0.00    -0.274 OA
HETATM   12  H9  UNL     1      24.612   5.502  48.979  1.00  0.00     0.163 HD
BRANCH  10  13
HETATM   13  C5  UNL     1      27.194   5.957  48.621  1.00  0.00     0.120 C 
BRANCH  13  14
HETATM   14  C4  UNL     1      26.147   7.022  48.553  1.00  0.00     0.124 C 
BRANCH  14  15
HETATM   15  C3  UNL     1      26.295   7.864  47.321  1.00  0.00    -0.017 C 
HETATM   16  C2  UNL     1      27.387   8.221  46.678  1.00  0.00    -0.034 C 
HETATM   17  C1  UNL     1      27.313   9.077  45.453  1.00  0.00     0.036 C 
ENDBRANCH  14  15
BRANCH  14  18
HETATM   18  C23 UNL     1      26.187   7.964  49.760  1.00  0.00     0.395 C 
HETATM   19  F1  UNL     1      27.428   8.456  50.016  1.00  0.00    -0.170 F 
HETATM   20  F2  UNL     1      25.736   7.333  50.884  1.00  0.00    -0.170 F 
HETATM   21  F3  UNL     1      25.325   8.994  49.466  1.00  0.00    -0.170 F 
ENDBRANCH  14  18
ENDBRANCH  13  14
ENDBRANCH  10  13
ENDBRANCH   1   9
BRANCH   3  22
HETATM   22  N2  UNL     1      21.677   2.217  47.495  1.00  0.00    -0.401 N 
HETATM   23  H12 UNL     1      21.336   2.064  46.516  1.00  0.00     0.156 HD
HETATM   24  H13 UNL     1      20.777   2.386  48.015  1.00  0.00     0.156 HD
ENDBRANCH   3  22
BRANCH   6  25
HETATM   25  C12 UNL     1      21.447   3.457  51.645  1.00  0.00     0.007 C 
HETATM   26  C13 UNL     1      20.171   3.249  51.502  1.00  0.00    -0.032 C 
HETATM   27  C14 UNL     1      18.812   3.809  51.745  1.00  0.00     0.036 C 
ENDBRANCH   6  25
BRANCH   6  28
HETATM   28  C15 UNL     1      23.362   2.735  52.834  1.00  0.00     0.082 C 
BRANCH  28  29
HETATM   29  C16 UNL     1      24.458   1.771  52.903  1.00  0.00    -0.038 C 
HETATM   30  C17 UNL     1      24.097   0.539  53.300  1.00  0.00     0.096 C 
HETATM   31  N3  UNL     1      24.881  -0.657  53.486  1.00  0.00    -0.360 N 
HETATM   32  C18 UNL     1      26.101  -0.931  52.776  1.00  0.00     0.206 C 
HETATM   33  H24 UNL     1      24.583  -1.377  54.153  1.00  0.00     0.166 HD
HETATM   34  N4  UNL     1      26.920  -0.037  52.287  1.00  0.00    -0.256 NA
HETATM   35  C19 UNL     1      26.853   1.382  52.309  1.00  0.00     0.118 C 
HETATM   36  C20 UNL     1      25.819   2.150  52.567  1.00  0.00     0.028 C 
ENDBRANCH  28  29
ENDBRANCH   6  28
TORSDOF 9
ENDMDL
