MODEL 1
REMARK VINA RESULT:      -8.8      0.000      0.000
REMARK  6 active torsions:
REMARK  status: ('A' for Active; 'I' for Inactive)
REMARK    1  A    between atoms: N1_1  and  C1_2 
REMARK    2  A    between atoms: C2_4  and  N3_5 
REMARK    3  A    between atoms: N3_5  and  C3_6 
REMARK    4  A    between atoms: C7_10  and  S1_11 
REMARK    5  A    between atoms: C10_15  and  C11_16 
REMARK    6  A    between atoms: C11_16  and  C12_17 
ROOT
HETATM    1  C1  UNL     1      28.134   1.897  53.462  1.00  0.00     0.710 C 
HETATM    2  N2  UNL     1      27.476   2.437  52.479  1.00  0.00    -0.068 NA
HETATM    3  C2  UNL     1      26.536   1.940  51.548  1.00  0.00     0.183 C 
HETATM    4  C9  UNL     1      25.117   1.630  52.042  1.00  0.00     0.057 C 
HETATM    5  C10 UNL     1      25.048   0.642  53.032  1.00  0.00     0.034 C 
HETATM    6  N4  UNL     1      26.524   0.525  53.036  1.00  0.00    -0.278 N 
HETATM    7  C18 UNL     1      26.940   0.405  51.573  1.00  0.00     0.210 C 
HETATM    8  N5  UNL     1      27.618   0.589  53.987  1.00  0.00    -0.128 N 
HETATM    9  H17 UNL     1      27.542  -0.248  54.589  1.00  0.00     0.206 HD
ENDROOT
BRANCH   3  10
HETATM   10  N3  UNL     1      26.587   2.440  50.255  1.00  0.00    -0.357 N 
HETATM   11  H3  UNL     1      26.927   1.689  49.577  1.00  0.00     0.162 HD
BRANCH  10  12
HETATM   12  C3  UNL     1      26.299   3.673  49.677  1.00  0.00     0.031 A 
HETATM   13  C4  UNL     1      25.042   4.215  49.515  1.00  0.00     0.029 A 
HETATM   14  C5  UNL     1      24.737   5.430  48.940  1.00  0.00     0.004 A 
HETATM   15  C6  UNL     1      25.829   6.145  48.493  1.00  0.00     0.020 A 
HETATM   16  C7  UNL     1      27.132   5.708  48.600  1.00  0.00     0.018 A 
HETATM   17  C8  UNL     1      27.307   4.494  49.186  1.00  0.00     0.049 A 
BRANCH  16  18
HETATM   18  S1  UNL     1      28.504   6.684  48.002  1.00  0.00    -0.019 SA
HETATM   19 CL1  UNL     1      30.234   5.513  47.829  1.00  0.00    -0.038 Cl
ENDBRANCH  16  18
ENDBRANCH  10  12
ENDBRANCH   3  10
BRANCH   1  20
HETATM   20  N1  UNL     1      29.305   2.185  54.237  1.00  0.00    -0.232 N 
HETATM   21  H1  UNL     1      29.747   1.505  54.909  1.00  0.00     0.174 HD
HETATM   22  H2  UNL     1      29.649   3.161  54.035  1.00  0.00     0.174 HD
ENDBRANCH   1  20
BRANCH   5  23
HETATM   23  C11 UNL     1      24.284  -0.161  53.970  1.00  0.00     0.097 C 
BRANCH  23  24
HETATM   24  C12 UNL     1      22.828  -0.230  53.788  1.00  0.00    -0.051 A 
HETATM   25  C13 UNL     1      22.196  -1.359  54.319  1.00  0.00     0.007 A 
HETATM   26  C14 UNL     1      20.851  -1.619  54.283  1.00  0.00     0.002 A 
HETATM   27  C15 UNL     1      20.026  -0.698  53.674  1.00  0.00     0.024 A 
HETATM   28  C16 UNL     1      20.594   0.433  53.132  1.00  0.00     0.034 A 
HETATM   29 CL2  UNL     1      19.675   1.696  52.324  1.00  0.00    -0.084 Cl
HETATM   30  C17 UNL     1      21.933   0.662  53.184  1.00  0.00     0.031 A 
ENDBRANCH  23  24
ENDBRANCH   5  23
TORSDOF 6
ENDMDL
MODEL 2
REMARK VINA RESULT:      -8.7      1.891      2.103
REMARK  6 active torsions:
REMARK  status: ('A' for Active; 'I' for Inactive)
REMARK    1  A    between atoms: N1_1  and  C1_2 
REMARK    2  A    between atoms: C2_4  and  N3_5 
REMARK    3  A    between atoms: N3_5  and  C3_6 
REMARK    4  A    between atoms: C7_10  and  S1_11 
REMARK    5  A    between atoms: C10_15  and  C11_16 
REMARK    6  A    between atoms: C11_16  and  C12_17 
ROOT
HETATM    1  C1  UNL     1      28.170   1.944  53.442  1.00  0.00     0.710 C 
HETATM    2  N2  UNL     1      27.511   2.480  52.457  1.00  0.00    -0.068 NA
HETATM    3  C2  UNL     1      26.574   1.978  51.526  1.00  0.00     0.183 C 
HETATM    4  C9  UNL     1      25.156   1.664  52.018  1.00  0.00     0.057 C 
HETATM    5  C10 UNL     1      25.089   0.677  53.010  1.00  0.00     0.034 C 
HETATM    6  N4  UNL     1      26.566   0.565  53.016  1.00  0.00    -0.278 N 
HETATM    7  C18 UNL     1      26.984   0.445  51.554  1.00  0.00     0.210 C 
HETATM    8  N5  UNL     1      27.659   0.635  53.968  1.00  0.00    -0.128 N 
HETATM    9  H17 UNL     1      27.585  -0.202  54.572  1.00  0.00     0.206 HD
ENDROOT
BRANCH   3  10
HETATM   10  N3  UNL     1      26.626   2.477  50.232  1.00  0.00    -0.357 N 
HETATM   11  H3  UNL     1      26.845   1.695  49.539  1.00  0.00     0.162 HD
BRANCH  10  12
HETATM   12  C3  UNL     1      26.457   3.738  49.669  1.00  0.00     0.031 A 
HETATM   13  C4  UNL     1      27.427   4.465  49.011  1.00  0.00     0.029 A 
HETATM   14  C5  UNL     1      27.281   5.717  48.453  1.00  0.00     0.004 A 
HETATM   15  C6  UNL     1      26.022   6.264  48.589  1.00  0.00     0.020 A 
HETATM   16  C7  UNL     1      24.974   5.634  49.224  1.00  0.00     0.018 A 
HETATM   17  C8  UNL     1      25.239   4.402  49.734  1.00  0.00     0.049 A 
BRANCH  16  18
HETATM   18  S1  UNL     1      23.364   6.397  49.366  1.00  0.00    -0.019 SA
HETATM   19 CL1  UNL     1      23.408   7.988  50.729  1.00  0.00    -0.038 Cl
ENDBRANCH  16  18
ENDBRANCH  10  12
ENDBRANCH   3  10
BRANCH   1  20
HETATM   20  N1  UNL     1      29.339   2.238  54.218  1.00  0.00    -0.232 N 
HETATM   21  H1  UNL     1      29.422   2.045  55.250  1.00  0.00     0.174 HD
HETATM   22  H2  UNL     1      30.087   2.666  53.610  1.00  0.00     0.174 HD
ENDBRANCH   1  20
BRANCH   5  23
HETATM   23  C11 UNL     1      24.327  -0.127  53.948  1.00  0.00     0.097 C 
BRANCH  23  24
HETATM   24  C12 UNL     1      22.895  -0.320  53.682  1.00  0.00    -0.051 A 
HETATM   25  C13 UNL     1      22.224  -1.193  54.544  1.00  0.00     0.007 A 
HETATM   26  C14 UNL     1      20.889  -1.503  54.494  1.00  0.00     0.002 A 
HETATM   27  C15 UNL     1      20.120  -0.912  53.515  1.00  0.00     0.024 A 
HETATM   28  C16 UNL     1      20.729  -0.043  52.638  1.00  0.00     0.034 A 
HETATM   29 CL2  UNL     1      19.883   0.787  51.339  1.00  0.00    -0.084 Cl
HETATM   30  C17 UNL     1      22.056   0.243  52.713  1.00  0.00     0.031 A 
ENDBRANCH  23  24
ENDBRANCH   5  23
TORSDOF 6
ENDMDL
MODEL 3
REMARK VINA RESULT:      -8.6      2.713      6.627
REMARK  6 active torsions:
REMARK  status: ('A' for Active; 'I' for Inactive)
REMARK    1  A    between atoms: N1_1  and  C1_2 
REMARK    2  A    between atoms: C2_4  and  N3_5 
REMARK    3  A    between atoms: N3_5  and  C3_6 
REMARK    4  A    between atoms: C7_10  and  S1_11 
REMARK    5  A    between atoms: C10_15  and  C11_16 
REMARK    6  A    between atoms: C11_16  and  C12_17 
ROOT
HETATM    1  C1  UNL     1      27.937   1.104  54.161  1.00  0.00     0.710 C 
HETATM    2  N2  UNL     1      27.102   0.241  53.663  1.00  0.00    -0.068 NA
HETATM    3  C2  UNL     1      25.870   0.360  52.981  1.00  0.00     0.183 C 
HETATM    4  C9  UNL     1      25.887   0.854  51.530  1.00  0.00     0.057 C 
HETATM    5  C10 UNL     1      26.403   2.145  51.360  1.00  0.00     0.034 C 
HETATM    6  N4  UNL     1      26.691   2.234  52.810  1.00  0.00    -0.278 N 
HETATM    7  C18 UNL     1      25.418   1.784  53.520  1.00  0.00     0.210 C 
HETATM    8  N5  UNL     1      27.816   2.520  53.680  1.00  0.00    -0.128 N 
HETATM    9  H17 UNL     1      28.035   3.525  53.567  1.00  0.00     0.206 HD
ENDROOT
BRANCH   3  10
HETATM   10  N3  UNL     1      24.897  -0.595  53.242  1.00  0.00    -0.357 N 
HETATM   11  H3  UNL     1      25.329  -1.570  53.273  1.00  0.00     0.162 HD
BRANCH  10  12
HETATM   12  C3  UNL     1      23.524  -0.548  53.462  1.00  0.00     0.031 A 
HETATM   13  C4  UNL     1      22.880  -0.917  54.624  1.00  0.00     0.029 A 
HETATM   14  C5  UNL     1      21.522  -0.884  54.859  1.00  0.00     0.004 A 
HETATM   15  C6  UNL     1      20.766  -0.430  53.798  1.00  0.00     0.020 A 
HETATM   16  C7  UNL     1      21.296  -0.034  52.589  1.00  0.00     0.018 A 
HETATM   17  C8  UNL     1      22.648  -0.111  52.477  1.00  0.00     0.049 A 
BRANCH  16  18
HETATM   18  S1  UNL     1      20.260   0.546  51.253  1.00  0.00    -0.019 SA
HETATM   19 CL1  UNL     1      21.374   0.782  49.493  1.00  0.00    -0.038 Cl
ENDBRANCH  16  18
ENDBRANCH  10  12
ENDBRANCH   3  10
BRANCH   1  20
HETATM   20  N1  UNL     1      29.003   1.116  55.119  1.00  0.00    -0.232 N 
HETATM   21  H1  UNL     1      29.135   1.870  55.842  1.00  0.00     0.174 HD
HETATM   22  H2  UNL     1      29.621   0.271  54.992  1.00  0.00     0.174 HD
ENDBRANCH   1  20
BRANCH   5  23
HETATM   23  C11 UNL     1      26.785   3.255  50.505  1.00  0.00     0.097 C 
BRANCH  23  24
HETATM   24  C12 UNL     1      25.720   3.968  49.788  1.00  0.00    -0.051 A 
HETATM   25  C13 UNL     1      24.500   3.294  49.675  1.00  0.00     0.007 A 
HETATM   26  C14 UNL     1      23.369   3.776  49.068  1.00  0.00     0.002 A 
HETATM   27  C15 UNL     1      23.414   5.037  48.514  1.00  0.00     0.024 A 
HETATM   28  C16 UNL     1      24.591   5.747  48.597  1.00  0.00     0.034 A 
HETATM   29 CL2  UNL     1      24.804   7.365  47.940  1.00  0.00    -0.084 Cl
HETATM   30  C17 UNL     1      25.696   5.241  49.205  1.00  0.00     0.031 A 
ENDBRANCH  23  24
ENDBRANCH   5  23
TORSDOF 6
ENDMDL
MODEL 4
REMARK VINA RESULT:      -8.5      4.307      7.147
REMARK  6 active torsions:
REMARK  status: ('A' for Active; 'I' for Inactive)
REMARK    1  A    between atoms: N1_1  and  C1_2 
REMARK    2  A    between atoms: C2_4  and  N3_5 
REMARK    3  A    between atoms: N3_5  and  C3_6 
REMARK    4  A    between atoms: C7_10  and  S1_11 
REMARK    5  A    between atoms: C10_15  and  C11_16 
REMARK    6  A    between atoms: C11_16  and  C12_17 
ROOT
HETATM    1  C1  UNL     1      23.887   6.139  51.556  1.00  0.00     0.710 C 
HETATM    2  N2  UNL     1      23.117   5.294  52.175  1.00  0.00    -0.068 NA
HETATM    3  C2  UNL     1      22.774   3.942  51.947  1.00  0.00     0.183 C 
HETATM    4  C9  UNL     1      23.826   2.865  52.238  1.00  0.00     0.057 C 
HETATM    5  C10 UNL     1      24.994   2.969  51.471  1.00  0.00     0.034 C 
HETATM    6  N4  UNL     1      24.475   4.196  50.825  1.00  0.00    -0.278 N 
HETATM    7  C18 UNL     1      23.051   3.870  50.385  1.00  0.00     0.210 C 
HETATM    8  N5  UNL     1      24.893   5.567  50.600  1.00  0.00    -0.128 N 
HETATM    9  H17 UNL     1      25.678   5.536  49.928  1.00  0.00     0.206 HD
ENDROOT
BRANCH   3  10
HETATM   10  N3  UNL     1      21.473   3.553  52.233  1.00  0.00    -0.357 N 
HETATM   11  H3  UNL     1      20.874   4.402  52.472  1.00  0.00     0.162 HD
BRANCH  10  12
HETATM   12  C3  UNL     1      20.811   2.329  52.273  1.00  0.00     0.031 A 
HETATM   13  C4  UNL     1      19.689   1.995  51.547  1.00  0.00     0.029 A 
HETATM   14  C5  UNL     1      19.016   0.792  51.578  1.00  0.00     0.004 A 
HETATM   15  C6  UNL     1      19.552  -0.145  52.437  1.00  0.00     0.020 A 
HETATM   16  C7  UNL     1      20.670   0.074  53.213  1.00  0.00     0.018 A 
HETATM   17  C8  UNL     1      21.247   1.298  53.097  1.00  0.00     0.049 A 
BRANCH  16  18
HETATM   18  S1  UNL     1      21.316  -1.184  54.307  1.00  0.00    -0.019 SA
HETATM   19 CL1  UNL     1      23.374  -0.925  54.609  1.00  0.00    -0.038 Cl
ENDBRANCH  16  18
ENDBRANCH  10  12
ENDBRANCH   3  10
BRANCH   1  20
HETATM   20  N1  UNL     1      24.061   7.560  51.489  1.00  0.00    -0.232 N 
HETATM   21  H1  UNL     1      24.971   8.030  51.244  1.00  0.00     0.174 HD
HETATM   22  H2  UNL     1      23.156   8.053  51.715  1.00  0.00     0.174 HD
ENDBRANCH   1  20
BRANCH   5  23
HETATM   23  C11 UNL     1      26.326   2.509  51.122  1.00  0.00     0.097 C 
BRANCH  23  24
HETATM   24  C12 UNL     1      26.930   1.459  51.954  1.00  0.00    -0.051 A 
HETATM   25  C13 UNL     1      27.778   1.898  52.975  1.00  0.00     0.007 A 
HETATM   26  C14 UNL     1      28.429   1.099  53.879  1.00  0.00     0.002 A 
HETATM   27  C15 UNL     1      28.244  -0.264  53.793  1.00  0.00     0.024 A 
HETATM   28  C16 UNL     1      27.419  -0.753  52.806  1.00  0.00     0.034 A 
HETATM   29 CL2  UNL     1      27.085  -2.463  52.569  1.00  0.00    -0.084 Cl
HETATM   30  C17 UNL     1      26.788   0.067  51.923  1.00  0.00     0.031 A 
ENDBRANCH  23  24
ENDBRANCH   5  23
TORSDOF 6
ENDMDL
MODEL 5
REMARK VINA RESULT:      -8.4      3.323      7.969
REMARK  6 active torsions:
REMARK  status: ('A' for Active; 'I' for Inactive)
REMARK    1  A    between atoms: N1_1  and  C1_2 
REMARK    2  A    between atoms: C2_4  and  N3_5 
REMARK    3  A    between atoms: N3_5  and  C3_6 
REMARK    4  A    between atoms: C7_10  and  S1_11 
REMARK    5  A    between atoms: C10_15  and  C11_16 
REMARK    6  A    between atoms: C11_16  and  C12_17 
ROOT
HETATM    1  C1  UNL     1      26.515   1.250  53.860  1.00  0.00     0.710 C 
HETATM    2  N2  UNL     1      25.304   0.965  53.480  1.00  0.00    -0.068 NA
HETATM    3  C2  UNL     1      24.332   1.659  52.723  1.00  0.00     0.183 C 
HETATM    4  C9  UNL     1      24.545   1.787  51.210  1.00  0.00     0.057 C 
HETATM    5  C10 UNL     1      25.705   2.481  50.841  1.00  0.00     0.034 C 
HETATM    6  N4  UNL     1      26.080   2.637  52.265  1.00  0.00    -0.278 N 
HETATM    7  C18 UNL     1      24.829   3.146  52.976  1.00  0.00     0.210 C 
HETATM    8  N5  UNL     1      27.211   2.360  53.129  1.00  0.00    -0.128 N 
HETATM    9  H17 UNL     1      27.968   3.009  52.852  1.00  0.00     0.206 HD
ENDROOT
BRANCH   3  10
HETATM   10  N3  UNL     1      23.004   1.515  53.097  1.00  0.00    -0.357 N 
HETATM   11  H3  UNL     1      22.503   2.456  53.066  1.00  0.00     0.162 HD
BRANCH  10  12
HETATM   12  C3  UNL     1      22.217   0.437  53.491  1.00  0.00     0.031 A 
HETATM   13  C4  UNL     1      22.620  -0.605  54.298  1.00  0.00     0.029 A 
HETATM   14  C5  UNL     1      21.857  -1.683  54.693  1.00  0.00     0.004 A 
HETATM   15  C6  UNL     1      20.565  -1.683  54.209  1.00  0.00     0.020 A 
HETATM   16  C7  UNL     1      20.050  -0.697  53.395  1.00  0.00     0.018 A 
HETATM   17  C8  UNL     1      20.897   0.315  53.074  1.00  0.00     0.049 A 
BRANCH  16  18
HETATM   18  S1  UNL     1      18.365  -0.754  52.801  1.00  0.00    -0.019 SA
HETATM   19 CL1  UNL     1      17.412  -2.514  53.423  1.00  0.00    -0.038 Cl
ENDBRANCH  16  18
ENDBRANCH  10  12
ENDBRANCH   3  10
BRANCH   1  20
HETATM   20  N1  UNL     1      27.444   0.804  54.855  1.00  0.00    -0.232 N 
HETATM   21  H1  UNL     1      27.963   1.450  55.506  1.00  0.00     0.174 HD
HETATM   22  H2  UNL     1      27.526  -0.247  54.838  1.00  0.00     0.174 HD
ENDBRANCH   1  20
BRANCH   5  23
HETATM   23  C11 UNL     1      26.609   2.989  49.825  1.00  0.00     0.097 C 
BRANCH  23  24
HETATM   24  C12 UNL     1      26.387   4.355  49.329  1.00  0.00    -0.051 A 
HETATM   25  C13 UNL     1      27.492   4.982  48.745  1.00  0.00     0.007 A 
HETATM   26  C14 UNL     1      27.507   6.239  48.200  1.00  0.00     0.002 A 
HETATM   27  C15 UNL     1      26.339   6.971  48.218  1.00  0.00     0.024 A 
HETATM   28  C16 UNL     1      25.219   6.402  48.781  1.00  0.00     0.034 A 
HETATM   29 CL2  UNL     1      23.658   7.208  48.879  1.00  0.00    -0.084 Cl
HETATM   30  C17 UNL     1      25.236   5.152  49.314  1.00  0.00     0.031 A 
ENDBRANCH  23  24
ENDBRANCH   5  23
TORSDOF 6
ENDMDL
MODEL 6
REMARK VINA RESULT:      -8.3      4.399      7.755
REMARK  6 active torsions:
REMARK  status: ('A' for Active; 'I' for Inactive)
REMARK    1  A    between atoms: N1_1  and  C1_2 
REMARK    2  A    between atoms: C2_4  and  N3_5 
REMARK    3  A    between atoms: N3_5  and  C3_6 
REMARK    4  A    between atoms: C7_10  and  S1_11 
REMARK    5  A    between atoms: C10_15  and  C11_16 
REMARK    6  A    between atoms: C11_16  and  C12_17 
ROOT
HETATM    1  C1  UNL     1      23.007   4.715  51.806  1.00  0.00     0.710 C 
HETATM    2  N2  UNL     1      22.506   3.524  51.961  1.00  0.00    -0.068 NA
HETATM    3  C2  UNL     1      22.876   2.244  51.492  1.00  0.00     0.183 C 
HETATM    4  C9  UNL     1      24.108   1.571  52.110  1.00  0.00     0.057 C 
HETATM    5  C10 UNL     1      25.308   2.270  51.927  1.00  0.00     0.034 C 
HETATM    6  N4  UNL     1      24.583   3.357  51.231  1.00  0.00    -0.278 N 
HETATM    7  C18 UNL     1      23.691   2.673  50.198  1.00  0.00     0.210 C 
HETATM    8  N5  UNL     1      24.426   4.796  51.326  1.00  0.00    -0.128 N 
HETATM    9  H17 UNL     1      25.332   5.216  51.054  1.00  0.00     0.206 HD
ENDROOT
BRANCH   3  10
HETATM   10  N3  UNL     1      21.858   1.363  51.160  1.00  0.00    -0.357 N 
HETATM   11  H3  UNL     1      21.770   1.275  50.100  1.00  0.00     0.162 HD
BRANCH  10  12
HETATM   12  C3  UNL     1      20.957   0.597  51.894  1.00  0.00     0.031 A 
HETATM   13  C4  UNL     1      21.266  -0.185  52.987  1.00  0.00     0.029 A 
HETATM   14  C5  UNL     1      20.390  -0.955  53.722  1.00  0.00     0.004 A 
HETATM   15  C6  UNL     1      19.081  -0.912  53.287  1.00  0.00     0.020 A 
HETATM   16  C7  UNL     1      18.653  -0.168  52.209  1.00  0.00     0.018 A 
HETATM   17  C8  UNL     1      19.609   0.551  51.563  1.00  0.00     0.049 A 
BRANCH  16  18
HETATM   18  S1  UNL     1      16.941  -0.154  51.696  1.00  0.00    -0.019 SA
HETATM   19 CL1  UNL     1      16.778  -0.442  49.627  1.00  0.00    -0.038 Cl
ENDBRANCH  16  18
ENDBRANCH  10  12
ENDBRANCH   3  10
BRANCH   1  20
HETATM   20  N1  UNL     1      22.571   6.073  51.943  1.00  0.00    -0.232 N 
HETATM   21  H1  UNL     1      23.223   6.889  52.078  1.00  0.00     0.174 HD
HETATM   22  H2  UNL     1      21.519   6.129  51.889  1.00  0.00     0.174 HD
ENDBRANCH   1  20
BRANCH   5  23
HETATM   23  C11 UNL     1      26.737   2.414  52.143  1.00  0.00     0.097 C 
BRANCH  23  24
HETATM   24  C12 UNL     1      27.478   1.244  52.634  1.00  0.00    -0.051 A 
HETATM   25  C13 UNL     1      28.602   1.516  53.419  1.00  0.00     0.007 A 
HETATM   26  C14 UNL     1      29.425   0.583  53.996  1.00  0.00     0.002 A 
HETATM   27  C15 UNL     1      29.136  -0.750  53.798  1.00  0.00     0.024 A 
HETATM   28  C16 UNL     1      28.040  -1.076  53.032  1.00  0.00     0.034 A 
HETATM   29 CL2  UNL     1      27.544  -2.729  52.690  1.00  0.00    -0.084 Cl
HETATM   30  C17 UNL     1      27.244  -0.127  52.473  1.00  0.00     0.031 A 
ENDBRANCH  23  24
ENDBRANCH   5  23
TORSDOF 6
ENDMDL
MODEL 7
REMARK VINA RESULT:      -8.2      4.416      8.160
REMARK  6 active torsions:
REMARK  status: ('A' for Active; 'I' for Inactive)
REMARK    1  A    between atoms: N1_1  and  C1_2 
REMARK    2  A    between atoms: C2_4  and  N3_5 
REMARK    3  A    between atoms: N3_5  and  C3_6 
REMARK    4  A    between atoms: C7_10  and  S1_11 
REMARK    5  A    between atoms: C10_15  and  C11_16 
REMARK    6  A    between atoms: C11_16  and  C12_17 
ROOT
HETATM    1  C1  UNL     1      22.428   4.172  49.764  1.00  0.00     0.710 C 
HETATM    2  N2  UNL     1      22.058   3.820  50.960  1.00  0.00    -0.068 NA
HETATM    3  C2  UNL     1      22.312   2.685  51.764  1.00  0.00     0.183 C 
HETATM    4  C9  UNL     1      23.705   2.533  52.386  1.00  0.00     0.057 C 
HETATM    5  C10 UNL     1      24.750   2.433  51.458  1.00  0.00     0.034 C 
HETATM    6  N4  UNL     1      23.792   2.603  50.342  1.00  0.00    -0.278 N 
HETATM    7  C18 UNL     1      22.646   1.635  50.621  1.00  0.00     0.210 C 
HETATM    8  N5  UNL     1      23.612   3.456  49.183  1.00  0.00    -0.128 N 
HETATM    9  H17 UNL     1      24.362   3.215  48.512  1.00  0.00     0.206 HD
ENDROOT
BRANCH   3  10
HETATM   10  N3  UNL     1      21.280   2.224  52.568  1.00  0.00    -0.357 N 
HETATM   11  H3  UNL     1      20.616   3.021  52.818  1.00  0.00     0.162 HD
BRANCH  10  12
HETATM   12  C3  UNL     1      20.943   0.983  53.100  1.00  0.00     0.031 A 
HETATM   13  C4  UNL     1      21.758   0.190  53.880  1.00  0.00     0.029 A 
HETATM   14  C5  UNL     1      21.444  -1.044  54.409  1.00  0.00     0.004 A 
HETATM   15  C6  UNL     1      20.177  -1.495  54.103  1.00  0.00     0.020 A 
HETATM   16  C7  UNL     1      19.274  -0.793  53.334  1.00  0.00     0.018 A 
HETATM   17  C8  UNL     1      19.698   0.412  52.869  1.00  0.00     0.049 A 
BRANCH  16  18
HETATM   18  S1  UNL     1      17.645  -1.434  52.975  1.00  0.00    -0.019 SA
HETATM   19 CL1  UNL     1      17.447  -3.402  53.667  1.00  0.00    -0.038 Cl
ENDBRANCH  16  18
ENDBRANCH  10  12
ENDBRANCH   3  10
BRANCH   1  20
HETATM   20  N1  UNL     1      22.001   5.090  48.751  1.00  0.00    -0.232 N 
HETATM   21  H1  UNL     1      21.918   6.130  48.897  1.00  0.00     0.174 HD
HETATM   22  H2  UNL     1      21.787   4.577  47.855  1.00  0.00     0.174 HD
ENDBRANCH   1  20
BRANCH   5  23
HETATM   23  C11 UNL     1      26.164   2.317  51.149  1.00  0.00     0.097 C 
BRANCH  23  24
HETATM   24  C12 UNL     1      27.023   1.620  52.116  1.00  0.00    -0.051 A 
HETATM   25  C13 UNL     1      26.901   0.227  52.152  1.00  0.00     0.007 A 
HETATM   26  C14 UNL     1      27.615  -0.622  52.957  1.00  0.00     0.002 A 
HETATM   27  C15 UNL     1      28.544  -0.077  53.817  1.00  0.00     0.024 A 
HETATM   28  C16 UNL     1      28.706   1.291  53.824  1.00  0.00     0.034 A 
HETATM   29 CL2  UNL     1      29.848   2.133  54.863  1.00  0.00    -0.084 Cl
HETATM   30  C17 UNL     1      27.981   2.107  53.013  1.00  0.00     0.031 A 
ENDBRANCH  23  24
ENDBRANCH   5  23
TORSDOF 6
ENDMDL
MODEL 8
REMARK VINA RESULT:      -8.1      3.748      8.305
REMARK  6 active torsions:
REMARK  status: ('A' for Active; 'I' for Inactive)
REMARK    1  A    between atoms: N1_1  and  C1_2 
REMARK    2  A    between atoms: C2_4  and  N3_5 
REMARK    3  A    between atoms: N3_5  and  C3_6 
REMARK    4  A    between atoms: C7_10  and  S1_11 
REMARK    5  A    between atoms: C10_15  and  C11_16 
REMARK    6  A    between atoms: C11_16  and  C12_17 
ROOT
HETATM    1  C1  UNL     1      23.286   4.961  51.597  1.00  0.00     0.710 C 
HETATM    2  N2  UNL     1      24.136   3.986  51.732  1.00  0.00    -0.068 NA
HETATM    3  C2  UNL     1      24.897   3.223  50.818  1.00  0.00     0.183 C 
HETATM    4  C9  UNL     1      26.101   3.889  50.142  1.00  0.00     0.057 C 
HETATM    5  C10 UNL     1      25.784   5.001  49.351  1.00  0.00     0.034 C 
HETATM    6  N4  UNL     1      24.357   4.876  49.725  1.00  0.00    -0.278 N 
HETATM    7  C18 UNL     1      23.997   3.407  49.523  1.00  0.00     0.210 C 
HETATM    8  N5  UNL     1      23.304   5.699  50.290  1.00  0.00    -0.128 N 
HETATM    9  H17 UNL     1      23.063   6.409  49.578  1.00  0.00     0.206 HD
ENDROOT
BRANCH   3  10
HETATM   10  N3  UNL     1      25.080   1.877  51.101  1.00  0.00    -0.357 N 
HETATM   11  H3  UNL     1      24.883   1.284  50.236  1.00  0.00     0.162 HD
BRANCH  10  12
HETATM   12  C3  UNL     1      25.453   1.165  52.237  1.00  0.00     0.031 A 
HETATM   13  C4  UNL     1      24.626   0.364  52.995  1.00  0.00     0.029 A 
HETATM   14  C5  UNL     1      24.975  -0.343  54.126  1.00  0.00     0.004 A 
HETATM   15  C6  UNL     1      26.295  -0.209  54.504  1.00  0.00     0.020 A 
HETATM   16  C7  UNL     1      27.214   0.562  53.826  1.00  0.00     0.018 A 
HETATM   17  C8  UNL     1      26.752   1.213  52.726  1.00  0.00     0.049 A 
BRANCH  16  18
HETATM   18  S1  UNL     1      28.913   0.694  54.368  1.00  0.00    -0.019 SA
HETATM   19 CL1  UNL     1      30.060  -0.893  53.623  1.00  0.00    -0.038 Cl
ENDBRANCH  16  18
ENDBRANCH  10  12
ENDBRANCH   3  10
BRANCH   1  20
HETATM   20  N1  UNL     1      22.246   5.575  52.368  1.00  0.00    -0.232 N 
HETATM   21  H1  UNL     1      21.289   5.156  52.502  1.00  0.00     0.174 HD
HETATM   22  H2  UNL     1      22.579   6.490  52.773  1.00  0.00     0.174 HD
ENDBRANCH   1  20
BRANCH   5  23
HETATM   23  C11 UNL     1      26.186   6.105  48.498  1.00  0.00     0.097 C 
BRANCH  23  24
HETATM   24  C12 UNL     1      27.608   6.472  48.473  1.00  0.00    -0.051 A 
HETATM   25  C13 UNL     1      28.505   5.432  48.209  1.00  0.00     0.007 A 
HETATM   26  C14 UNL     1      29.868   5.549  48.118  1.00  0.00     0.002 A 
HETATM   27  C15 UNL     1      30.427   6.796  48.300  1.00  0.00     0.024 A 
HETATM   28  C16 UNL     1      29.591   7.857  48.563  1.00  0.00     0.034 A 
HETATM   29 CL2  UNL     1      30.153   9.504  48.818  1.00  0.00    -0.084 Cl
HETATM   30  C17 UNL     1      28.242   7.708  48.647  1.00  0.00     0.031 A 
ENDBRANCH  23  24
ENDBRANCH   5  23
TORSDOF 6
ENDMDL
MODEL 9
REMARK VINA RESULT:      -8.0      3.926      5.557
REMARK  6 active torsions:
REMARK  status: ('A' for Active; 'I' for Inactive)
REMARK    1  A    between atoms: N1_1  and  C1_2 
REMARK    2  A    between atoms: C2_4  and  N3_5 
REMARK    3  A    between atoms: N3_5  and  C3_6 
REMARK    4  A    between atoms: C7_10  and  S1_11 
REMARK    5  A    between atoms: C10_15  and  C11_16 
REMARK    6  A    between atoms: C11_16  and  C12_17 
ROOT
HETATM    1  C1  UNL     1      22.935   2.840  49.060  1.00  0.00     0.710 C 
HETATM    2  N2  UNL     1      24.009   3.546  48.858  1.00  0.00    -0.068 NA
HETATM    3  C2  UNL     1      24.953   4.149  49.719  1.00  0.00     0.183 C 
HETATM    4  C9  UNL     1      25.949   3.243  50.453  1.00  0.00     0.057 C 
HETATM    5  C10 UNL     1      25.361   2.315  51.323  1.00  0.00     0.034 C 
HETATM    6  N4  UNL     1      24.012   2.781  50.928  1.00  0.00    -0.278 N 
HETATM    7  C18 UNL     1      24.051   4.304  51.016  1.00  0.00     0.210 C 
HETATM    8  N5  UNL     1      22.774   2.224  50.418  1.00  0.00    -0.128 N 
HETATM    9  H17 UNL     1      22.363   1.657  51.180  1.00  0.00     0.206 HD
ENDROOT
BRANCH   3  10
HETATM   10  N3  UNL     1      25.480   5.374  49.337  1.00  0.00    -0.357 N 
HETATM   11  H3  UNL     1      24.728   6.130  49.371  1.00  0.00     0.162 HD
BRANCH  10  12
HETATM   12  C3  UNL     1      26.739   5.808  48.932  1.00  0.00     0.031 A 
HETATM   13  C4  UNL     1      27.782   4.999  48.535  1.00  0.00     0.029 A 
HETATM   14  C5  UNL     1      29.037   5.409  48.137  1.00  0.00     0.004 A 
HETATM   15  C6  UNL     1      29.227   6.775  48.152  1.00  0.00     0.020 A 
HETATM   16  C7  UNL     1      28.260   7.682  48.528  1.00  0.00     0.018 A 
HETATM   17  C8  UNL     1      27.063   7.158  48.900  1.00  0.00     0.049 A 
BRANCH  16  18
HETATM   18  S1  UNL     1      28.570   9.443  48.525  1.00  0.00    -0.019 SA
HETATM   19 CL1  UNL     1      30.358   9.889  49.521  1.00  0.00    -0.038 Cl
ENDBRANCH  16  18
ENDBRANCH  10  12
ENDBRANCH   3  10
BRANCH   1  20
HETATM   20  N1  UNL     1      21.761   2.465  48.328  1.00  0.00    -0.232 N 
HETATM   21  H1  UNL     1      21.215   3.124  47.716  1.00  0.00     0.174 HD
HETATM   22  H2  UNL     1      21.534   1.448  48.492  1.00  0.00     0.174 HD
ENDBRANCH   1  20
BRANCH   5  23
HETATM   23  C11 UNL     1      25.469   1.212  52.261  1.00  0.00     0.097 C 
BRANCH  23  24
HETATM   24  C12 UNL     1      26.805   0.870  52.768  1.00  0.00    -0.051 A 
HETATM   25  C13 UNL     1      27.540   1.924  53.317  1.00  0.00     0.007 A 
HETATM   26  C14 UNL     1      28.793   1.830  53.865  1.00  0.00     0.002 A 
HETATM   27  C15 UNL     1      29.403   0.594  53.889  1.00  0.00     0.024 A 
HETATM   28  C16 UNL     1      28.724  -0.481  53.360  1.00  0.00     0.034 A 
HETATM   29 CL2  UNL     1      29.368  -2.117  53.317  1.00  0.00    -0.084 Cl
HETATM   30  C17 UNL     1      27.481  -0.355  52.823  1.00  0.00     0.031 A 
ENDBRANCH  23  24
ENDBRANCH   5  23
TORSDOF 6
ENDMDL
