MODEL 1
REMARK VINA RESULT:      -8.5      0.000      0.000
REMARK  4 active torsions:
REMARK  status: ('A' for Active; 'I' for Inactive)
REMARK    1  A    between atoms: C3_3  and  C4_4 
REMARK    2  A    between atoms: C9_9  and  N1_10 
REMARK    3  A    between atoms: N1_10  and  C10_11 
REMARK    4  A    between atoms: C16_20  and  N3_21 
ROOT
HETATM    1  C4  UNL     1      24.122   4.024  48.957  1.00  0.00     0.004 C 
HETATM    2  C5  UNL     1      22.804   3.761  48.975  1.00  0.00    -0.065 C 
HETATM    3  C6  UNL     1      22.429   2.342  48.626  1.00  0.00     0.040 C 
HETATM    4  C7  UNL     1      22.283   1.495  49.902  1.00  0.00     0.044 C 
HETATM    5  C8  UNL     1      22.046   2.522  50.983  1.00  0.00    -0.018 C 
HETATM    6  C9  UNL     1      22.996   2.361  51.920  1.00  0.00     0.151 C 
HETATM    7  N2  UNL     1      23.369   3.416  52.835  1.00  0.00    -0.046 NA
HETATM    8  C16 UNL     1      23.261   4.707  52.622  1.00  0.00     0.710 C 
HETATM    9  N4  UNL     1      22.440   5.304  51.595  1.00  0.00    -0.150 N 
HETATM   10  N5  UNL     1      21.483   4.865  50.721  1.00  0.00    -0.209 NA
HETATM   11  C17 UNL     1      21.875   4.849  49.328  1.00  0.00     0.148 C 
HETATM   12  C18 UNL     1      20.947   3.549  51.000  1.00  0.00     0.152 C 
HETATM   13  H17 UNL     1      22.628   6.328  51.498  1.00  0.00     0.199 HD
ENDROOT
BRANCH   6  14
HETATM   14  N1  UNL     1      23.542   1.075  51.869  1.00  0.00    -0.338 N 
HETATM   15  H11 UNL     1      23.067   0.281  51.343  1.00  0.00     0.167 HD
BRANCH  14  16
HETATM   16  C10 UNL     1      24.769   0.772  52.523  1.00  0.00     0.072 A 
HETATM   17  C11 UNL     1      24.778   0.033  53.688  1.00  0.00     0.034 A 
HETATM   18  C12 UNL     1      25.975  -0.276  54.346  1.00  0.00     0.026 A 
HETATM   19  C13 UNL     1      27.167   0.169  53.819  1.00  0.00     0.037 A 
HETATM   20 CL1  UNL     1      28.722  -0.155  54.553  1.00  0.00    -0.084 Cl
HETATM   21  C14 UNL     1      27.185   0.912  52.653  1.00  0.00     0.068 A 
HETATM   22  C15 UNL     1      25.986   1.197  52.031  1.00  0.00     0.144 A 
HETATM   23  F1  UNL     1      25.960   1.920  50.890  1.00  0.00    -0.204 F 
ENDBRANCH  14  16
ENDBRANCH   6  14
BRANCH   8  24
HETATM   24  N3  UNL     1      24.032   5.517  53.501  1.00  0.00    -0.232 N 
HETATM   25  H15 UNL     1      24.237   6.545  53.675  1.00  0.00     0.174 HD
HETATM   26  H16 UNL     1      24.485   4.775  54.107  1.00  0.00     0.174 HD
ENDBRANCH   8  24
BRANCH   1  27
HETATM   27  C3  UNL     1      24.868   5.245  49.231  1.00  0.00    -0.004 C 
HETATM   28  C2  UNL     1      26.155   5.430  49.234  1.00  0.00    -0.031 C 
HETATM   29  C1  UNL     1      27.159   4.400  48.951  1.00  0.00     0.036 C 
ENDBRANCH   1  27
TORSDOF 4
ENDMDL
MODEL 2
REMARK VINA RESULT:      -8.5      1.130      1.466
REMARK  4 active torsions:
REMARK  status: ('A' for Active; 'I' for Inactive)
REMARK    1  A    between atoms: C3_3  and  C4_4 
REMARK    2  A    between atoms: C9_9  and  N1_10 
REMARK    3  A    between atoms: N1_10  and  C10_11 
REMARK    4  A    between atoms: C16_20  and  N3_21 
ROOT
HETATM    1  C4  UNL     1      23.753   3.393  49.079  1.00  0.00     0.004 C 
HETATM    2  C5  UNL     1      22.433   3.179  49.215  1.00  0.00    -0.065 C 
HETATM    3  C6  UNL     1      21.998   1.742  49.064  1.00  0.00     0.040 C 
HETATM    4  C7  UNL     1      21.919   1.057  50.441  1.00  0.00     0.044 C 
HETATM    5  C8  UNL     1      21.783   2.213  51.403  1.00  0.00    -0.018 C 
HETATM    6  C9  UNL     1      22.792   2.133  52.288  1.00  0.00     0.151 C 
HETATM    7  N2  UNL     1      23.254   3.275  53.043  1.00  0.00    -0.046 NA
HETATM    8  C16 UNL     1      23.164   4.535  52.683  1.00  0.00     0.710 C 
HETATM    9  N4  UNL     1      22.290   5.033  51.647  1.00  0.00    -0.150 N 
HETATM   10  N5  UNL     1      21.264   4.526  50.897  1.00  0.00    -0.209 NA
HETATM   11  C17 UNL     1      21.558   4.332  49.493  1.00  0.00     0.148 C 
HETATM   12  C18 UNL     1      20.715   3.272  51.367  1.00  0.00     0.152 C 
HETATM   13  H17 UNL     1      22.497   6.031  51.415  1.00  0.00     0.199 HD
ENDROOT
BRANCH   6  14
HETATM   14  N1  UNL     1      23.299   0.832  52.357  1.00  0.00    -0.338 N 
HETATM   15  H11 UNL     1      22.690  -0.022  52.179  1.00  0.00     0.167 HD
BRANCH  14  16
HETATM   16  C10 UNL     1      24.667   0.594  52.669  1.00  0.00     0.072 A 
HETATM   17  C11 UNL     1      25.668   1.102  51.866  1.00  0.00     0.034 A 
HETATM   18  C12 UNL     1      27.019   0.879  52.157  1.00  0.00     0.026 A 
HETATM   19  C13 UNL     1      27.356   0.136  53.266  1.00  0.00     0.037 A 
HETATM   20 CL1  UNL     1      29.008  -0.208  53.728  1.00  0.00    -0.084 Cl
HETATM   21  C14 UNL     1      26.371  -0.386  54.086  1.00  0.00     0.068 A 
HETATM   22  C15 UNL     1      25.050  -0.146  53.769  1.00  0.00     0.144 A 
HETATM   23  F1  UNL     1      24.058  -0.636  54.544  1.00  0.00    -0.204 F 
ENDBRANCH  14  16
ENDBRANCH   6  14
BRANCH   8  24
HETATM   24  N3  UNL     1      24.014   5.417  53.405  1.00  0.00    -0.232 N 
HETATM   25  H15 UNL     1      24.760   5.376  54.161  1.00  0.00     0.174 HD
HETATM   26  H16 UNL     1      23.735   6.349  52.984  1.00  0.00     0.174 HD
ENDBRANCH   8  24
BRANCH   1  27
HETATM   27  C3  UNL     1      24.547   4.612  49.154  1.00  0.00    -0.004 C 
HETATM   28  C2  UNL     1      25.832   4.739  49.301  1.00  0.00    -0.031 C 
HETATM   29  C1  UNL     1      26.783   3.631  49.427  1.00  0.00     0.036 C 
ENDBRANCH   1  27
TORSDOF 4
ENDMDL
MODEL 3
REMARK VINA RESULT:      -7.8      2.130      3.402
REMARK  4 active torsions:
REMARK  status: ('A' for Active; 'I' for Inactive)
REMARK    1  A    between atoms: C3_3  and  C4_4 
REMARK    2  A    between atoms: C9_9  and  N1_10 
REMARK    3  A    between atoms: N1_10  and  C10_11 
REMARK    4  A    between atoms: C16_20  and  N3_21 
ROOT
HETATM    1  C4  UNL     1      22.635   1.937  49.909  1.00  0.00     0.004 C 
HETATM    2  C5  UNL     1      22.390   2.481  51.113  1.00  0.00    -0.065 C 
HETATM    3  C6  UNL     1      22.084   1.495  52.213  1.00  0.00     0.040 C 
HETATM    4  C7  UNL     1      23.364   1.148  52.995  1.00  0.00     0.044 C 
HETATM    5  C8  UNL     1      24.280   2.312  52.707  1.00  0.00    -0.018 C 
HETATM    6  C9  UNL     1      25.411   1.824  52.167  1.00  0.00     0.151 C 
HETATM    7  N2  UNL     1      26.295   2.631  51.358  1.00  0.00    -0.046 NA
HETATM    8  C16 UNL     1      25.960   3.682  50.646  1.00  0.00     0.710 C 
HETATM    9  N4  UNL     1      24.734   4.428  50.812  1.00  0.00    -0.150 N 
HETATM   10  N5  UNL     1      23.713   4.453  51.723  1.00  0.00    -0.209 NA
HETATM   11  C17 UNL     1      22.443   3.948  51.246  1.00  0.00     0.148 C 
HETATM   12  C18 UNL     1      23.976   3.763  52.967  1.00  0.00     0.152 C 
HETATM   13  H17 UNL     1      24.597   5.120  50.041  1.00  0.00     0.199 HD
ENDROOT
BRANCH   6  14
HETATM   14  N1  UNL     1      25.583   0.476  52.495  1.00  0.00    -0.338 N 
HETATM   15  H11 UNL     1      24.786  -0.226  52.435  1.00  0.00     0.167 HD
BRANCH  14  16
HETATM   16  C10 UNL     1      26.846  -0.019  52.926  1.00  0.00     0.072 A 
HETATM   17  C11 UNL     1      27.685   0.770  53.686  1.00  0.00     0.034 A 
HETATM   18  C12 UNL     1      28.931   0.302  54.120  1.00  0.00     0.026 A 
HETATM   19  C13 UNL     1      29.327  -0.973  53.780  1.00  0.00     0.037 A 
HETATM   20 CL1  UNL     1      30.859  -1.664  54.265  1.00  0.00    -0.084 Cl
HETATM   21  C14 UNL     1      28.504  -1.783  53.018  1.00  0.00     0.068 A 
HETATM   22  C15 UNL     1      27.283  -1.288  52.608  1.00  0.00     0.144 A 
HETATM   23  F1  UNL     1      26.451  -2.047  51.863  1.00  0.00    -0.204 F 
ENDBRANCH  14  16
ENDBRANCH   6  14
BRANCH   8  24
HETATM   24  N3  UNL     1      26.915   4.060  49.664  1.00  0.00    -0.232 N 
HETATM   25  H15 UNL     1      26.995   4.132  48.606  1.00  0.00     0.174 HD
HETATM   26  H16 UNL     1      27.736   4.324  50.278  1.00  0.00     0.174 HD
ENDBRANCH   8  24
BRANCH   1  27
HETATM   27  C3  UNL     1      22.964   2.540  48.625  1.00  0.00    -0.004 C 
HETATM   28  C2  UNL     1      22.163   2.907  47.669  1.00  0.00    -0.031 C 
HETATM   29  C1  UNL     1      20.702   2.781  47.693  1.00  0.00     0.036 C 
ENDBRANCH   1  27
TORSDOF 4
ENDMDL
MODEL 4
REMARK VINA RESULT:      -7.3      2.216      2.697
REMARK  4 active torsions:
REMARK  status: ('A' for Active; 'I' for Inactive)
REMARK    1  A    between atoms: C3_3  and  C4_4 
REMARK    2  A    between atoms: C9_9  and  N1_10 
REMARK    3  A    between atoms: N1_10  and  C10_11 
REMARK    4  A    between atoms: C16_20  and  N3_21 
ROOT
HETATM    1  C4  UNL     1      23.251   5.120  48.058  1.00  0.00     0.004 C 
HETATM    2  C5  UNL     1      21.935   5.029  48.317  1.00  0.00    -0.065 C 
HETATM    3  C6  UNL     1      21.305   3.702  47.975  1.00  0.00     0.040 C 
HETATM    4  C7  UNL     1      21.279   2.785  49.211  1.00  0.00     0.044 C 
HETATM    5  C8  UNL     1      21.392   3.749  50.368  1.00  0.00    -0.018 C 
HETATM    6  C9  UNL     1      22.467   3.395  51.095  1.00  0.00     0.151 C 
HETATM    7  N2  UNL     1      23.147   4.320  51.972  1.00  0.00    -0.046 NA
HETATM    8  C16 UNL     1      23.186   5.627  51.850  1.00  0.00     0.710 C 
HETATM    9  N4  UNL     1      22.282   6.401  51.032  1.00  0.00    -0.150 N 
HETATM   10  N5  UNL     1      21.128   6.158  50.338  1.00  0.00    -0.209 NA
HETATM   11  C17 UNL     1      21.250   6.198  48.896  1.00  0.00     0.148 C 
HETATM   12  C18 UNL     1      20.472   4.905  50.649  1.00  0.00     0.152 C 
HETATM   13  H17 UNL     1      22.592   7.397  50.953  1.00  0.00     0.199 HD
ENDROOT
BRANCH   6  14
HETATM   14  N1  UNL     1      22.806   2.057  50.874  1.00  0.00    -0.338 N 
HETATM   15  H11 UNL     1      23.022   1.683  49.902  1.00  0.00     0.167 HD
BRANCH  14  16
HETATM   16  C10 UNL     1      22.878   1.131  51.952  1.00  0.00     0.072 A 
HETATM   17  C11 UNL     1      24.081   0.878  52.579  1.00  0.00     0.034 A 
HETATM   18  C12 UNL     1      24.172  -0.030  53.641  1.00  0.00     0.026 A 
HETATM   19  C13 UNL     1      23.037  -0.683  54.068  1.00  0.00     0.037 A 
HETATM   20 CL1  UNL     1      23.030  -1.837  55.384  1.00  0.00    -0.084 Cl
HETATM   21  C14 UNL     1      21.820  -0.447  53.456  1.00  0.00     0.068 A 
HETATM   22  C15 UNL     1      21.767   0.454  52.412  1.00  0.00     0.144 A 
HETATM   23  F1  UNL     1      20.598   0.713  51.787  1.00  0.00    -0.204 F 
ENDBRANCH  14  16
ENDBRANCH   6  14
BRANCH   8  24
HETATM   24  N3  UNL     1      24.211   6.261  52.603  1.00  0.00    -0.232 N 
HETATM   25  H15 UNL     1      24.311   6.927  53.426  1.00  0.00     0.174 HD
HETATM   26  H16 UNL     1      25.074   5.888  52.114  1.00  0.00     0.174 HD
ENDBRANCH   8  24
BRANCH   1  27
HETATM   27  C3  UNL     1      24.200   6.210  48.244  1.00  0.00    -0.004 C 
HETATM   28  C2  UNL     1      25.384   6.176  48.780  1.00  0.00    -0.031 C 
HETATM   29  C1  UNL     1      26.030   4.982  49.330  1.00  0.00     0.036 C 
ENDBRANCH   1  27
TORSDOF 4
ENDMDL
MODEL 5
REMARK VINA RESULT:      -7.2      1.572      1.839
REMARK  4 active torsions:
REMARK  status: ('A' for Active; 'I' for Inactive)
REMARK    1  A    between atoms: C3_3  and  C4_4 
REMARK    2  A    between atoms: C9_9  and  N1_10 
REMARK    3  A    between atoms: N1_10  and  C10_11 
REMARK    4  A    between atoms: C16_20  and  N3_21 
ROOT
HETATM    1  C4  UNL     1      23.617   5.786  47.562  1.00  0.00     0.004 C 
HETATM    2  C5  UNL     1      22.376   5.362  47.855  1.00  0.00    -0.065 C 
HETATM    3  C6  UNL     1      22.084   3.929  47.483  1.00  0.00     0.040 C 
HETATM    4  C7  UNL     1      22.332   3.001  48.686  1.00  0.00     0.044 C 
HETATM    5  C8  UNL     1      22.244   3.929  49.873  1.00  0.00    -0.018 C 
HETATM    6  C9  UNL     1      23.398   3.836  50.556  1.00  0.00     0.151 C 
HETATM    7  N2  UNL     1      23.858   4.876  51.447  1.00  0.00    -0.046 NA
HETATM    8  C16 UNL     1      23.565   6.154  51.370  1.00  0.00     0.710 C 
HETATM    9  N4  UNL     1      22.468   6.701  50.607  1.00  0.00    -0.150 N 
HETATM   10  N5  UNL     1      21.387   6.196  49.937  1.00  0.00    -0.209 NA
HETATM   11  C17 UNL     1      21.442   6.306  48.495  1.00  0.00     0.148 C 
HETATM   12  C18 UNL     1      21.075   4.811  50.221  1.00  0.00     0.152 C 
HETATM   13  H17 UNL     1      22.517   7.744  50.554  1.00  0.00     0.199 HD
ENDROOT
BRANCH   6  14
HETATM   14  N1  UNL     1      24.051   2.632  50.277  1.00  0.00    -0.338 N 
HETATM   15  H11 UNL     1      23.960   2.145  49.336  1.00  0.00     0.167 HD
BRANCH  14  16
HETATM   16  C10 UNL     1      24.875   2.001  51.252  1.00  0.00     0.072 A 
HETATM   17  C11 UNL     1      24.327   1.139  52.180  1.00  0.00     0.034 A 
HETATM   18  C12 UNL     1      25.120   0.510  53.147  1.00  0.00     0.026 A 
HETATM   19  C13 UNL     1      26.475   0.757  53.171  1.00  0.00     0.037 A 
HETATM   20 CL1  UNL     1      27.564   0.028  54.331  1.00  0.00    -0.084 Cl
HETATM   21  C14 UNL     1      27.048   1.617  52.252  1.00  0.00     0.068 A 
HETATM   22  C15 UNL     1      26.236   2.220  51.314  1.00  0.00     0.144 A 
HETATM   23  F1  UNL     1      26.756   3.067  50.399  1.00  0.00    -0.204 F 
ENDBRANCH  14  16
ENDBRANCH   6  14
BRANCH   8  24
HETATM   24  N3  UNL     1      24.428   7.003  52.117  1.00  0.00    -0.232 N 
HETATM   25  H15 UNL     1      24.792   8.002  52.092  1.00  0.00     0.174 HD
HETATM   26  H16 UNL     1      24.732   6.345  52.889  1.00  0.00     0.174 HD
ENDBRANCH   8  24
BRANCH   1  27
HETATM   27  C3  UNL     1      24.271   7.072  47.761  1.00  0.00    -0.004 C 
HETATM   28  C2  UNL     1      25.417   7.326  48.319  1.00  0.00    -0.031 C 
HETATM   29  C1  UNL     1      26.322   6.323  48.888  1.00  0.00     0.036 C 
ENDBRANCH   1  27
TORSDOF 4
ENDMDL
MODEL 6
REMARK VINA RESULT:      -7.0      3.354      5.201
REMARK  4 active torsions:
REMARK  status: ('A' for Active; 'I' for Inactive)
REMARK    1  A    between atoms: C3_3  and  C4_4 
REMARK    2  A    between atoms: C9_9  and  N1_10 
REMARK    3  A    between atoms: N1_10  and  C10_11 
REMARK    4  A    between atoms: C16_20  and  N3_21 
ROOT
HETATM    1  C4  UNL     1      22.818   2.546  49.055  1.00  0.00     0.004 C 
HETATM    2  C5  UNL     1      22.471   2.086  50.270  1.00  0.00    -0.065 C 
HETATM    3  C6  UNL     1      23.616   1.896  51.234  1.00  0.00     0.040 C 
HETATM    4  C7  UNL     1      23.788   3.146  52.117  1.00  0.00     0.044 C 
HETATM    5  C8  UNL     1      22.440   3.821  52.039  1.00  0.00    -0.018 C 
HETATM    6  C9  UNL     1      22.632   5.072  51.584  1.00  0.00     0.151 C 
HETATM    7  N2  UNL     1      21.580   5.837  50.954  1.00  0.00    -0.046 NA
HETATM    8  C16 UNL     1      20.543   5.354  50.310  1.00  0.00     0.710 C 
HETATM    9  N4  UNL     1      20.078   3.991  50.408  1.00  0.00    -0.150 N 
HETATM   10  N5  UNL     1      20.358   2.910  51.199  1.00  0.00    -0.209 NA
HETATM   11  C17 UNL     1      21.047   1.820  50.541  1.00  0.00     0.148 C 
HETATM   12  C18 UNL     1      21.118   3.199  52.396  1.00  0.00     0.152 C 
HETATM   13  H17 UNL     1      19.345   3.781  49.692  1.00  0.00     0.199 HD
ENDROOT
BRANCH   6  14
HETATM   14  N1  UNL     1      23.947   5.492  51.804  1.00  0.00    -0.338 N 
HETATM   15  H11 UNL     1      24.399   5.450  52.767  1.00  0.00     0.167 HD
BRANCH  14  16
HETATM   16  C10 UNL     1      24.744   5.996  50.739  1.00  0.00     0.072 A 
HETATM   17  C11 UNL     1      25.513   5.143  49.974  1.00  0.00     0.034 A 
HETATM   18  C12 UNL     1      26.303   5.620  48.922  1.00  0.00     0.026 A 
HETATM   19  C13 UNL     1      26.313   6.970  48.645  1.00  0.00     0.037 A 
HETATM   20 CL1  UNL     1      27.260   7.679  47.356  1.00  0.00    -0.084 Cl
HETATM   21  C14 UNL     1      25.551   7.845  49.397  1.00  0.00     0.068 A 
HETATM   22  C15 UNL     1      24.784   7.340  50.427  1.00  0.00     0.144 A 
HETATM   23  F1  UNL     1      24.026   8.161  51.185  1.00  0.00    -0.204 F 
ENDBRANCH  14  16
ENDBRANCH   6  14
BRANCH   8  24
HETATM   24  N3  UNL     1      19.876   6.293  49.477  1.00  0.00    -0.232 N 
HETATM   25  H15 UNL     1      19.020   6.924  49.500  1.00  0.00     0.174 HD
HETATM   26  H16 UNL     1      20.499   6.275  48.621  1.00  0.00     0.174 HD
ENDBRANCH   8  24
BRANCH   1  27
HETATM   27  C3  UNL     1      22.022   2.854  47.875  1.00  0.00    -0.004 C 
HETATM   28  C2  UNL     1      21.974   3.958  47.191  1.00  0.00    -0.031 C 
HETATM   29  C1  UNL     1      22.745   5.170  47.484  1.00  0.00     0.036 C 
ENDBRANCH   1  27
TORSDOF 4
ENDMDL
MODEL 7
REMARK VINA RESULT:      -6.9      2.770      5.467
REMARK  4 active torsions:
REMARK  status: ('A' for Active; 'I' for Inactive)
REMARK    1  A    between atoms: C3_3  and  C4_4 
REMARK    2  A    between atoms: C9_9  and  N1_10 
REMARK    3  A    between atoms: N1_10  and  C10_11 
REMARK    4  A    between atoms: C16_20  and  N3_21 
ROOT
HETATM    1  C4  UNL     1      24.424   2.918  51.960  1.00  0.00     0.004 C 
HETATM    2  C5  UNL     1      23.284   3.542  52.303  1.00  0.00    -0.065 C 
HETATM    3  C6  UNL     1      23.445   4.978  52.737  1.00  0.00     0.040 C 
HETATM    4  C7  UNL     1      23.223   5.928  51.547  1.00  0.00     0.044 C 
HETATM    5  C8  UNL     1      22.421   5.096  50.576  1.00  0.00    -0.018 C 
HETATM    6  C9  UNL     1      23.095   5.054  49.413  1.00  0.00     0.151 C 
HETATM    7  N2  UNL     1      22.890   4.011  48.435  1.00  0.00    -0.046 NA
HETATM    8  C16 UNL     1      22.469   2.790  48.673  1.00  0.00     0.710 C 
HETATM    9  N4  UNL     1      21.810   2.371  49.888  1.00  0.00    -0.150 N 
HETATM   10  N5  UNL     1      21.288   2.993  50.989  1.00  0.00    -0.209 NA
HETATM   11  C17 UNL     1      22.019   2.790  52.222  1.00  0.00     0.148 C 
HETATM   12  C18 UNL     1      21.106   4.423  50.864  1.00  0.00     0.152 C 
HETATM   13  H17 UNL     1      21.710   1.331  49.933  1.00  0.00     0.199 HD
ENDROOT
BRANCH   6  14
HETATM   14  N1  UNL     1      23.986   6.126  49.310  1.00  0.00    -0.338 N 
HETATM   15  H11 UNL     1      23.677   7.134  49.459  1.00  0.00     0.167 HD
BRANCH  14  16
HETATM   16  C10 UNL     1      25.358   5.913  48.997  1.00  0.00     0.072 A 
HETATM   17  C11 UNL     1      25.972   4.719  49.316  1.00  0.00     0.034 A 
HETATM   18  C12 UNL     1      27.320   4.490  49.017  1.00  0.00     0.026 A 
HETATM   19  C13 UNL     1      28.048   5.478  48.391  1.00  0.00     0.037 A 
HETATM   20 CL1  UNL     1      29.737   5.305  47.969  1.00  0.00    -0.084 Cl
HETATM   21  C14 UNL     1      27.456   6.683  48.061  1.00  0.00     0.068 A 
HETATM   22  C15 UNL     1      26.125   6.874  48.371  1.00  0.00     0.144 A 
HETATM   23  F1  UNL     1      25.509   8.037  48.066  1.00  0.00    -0.204 F 
ENDBRANCH  14  16
ENDBRANCH   6  14
BRANCH   8  24
HETATM   24  N3  UNL     1      22.710   1.866  47.620  1.00  0.00    -0.232 N 
HETATM   25  H15 UNL     1      22.174   1.168  47.023  1.00  0.00     0.174 HD
HETATM   26  H16 UNL     1      23.751   2.001  47.474  1.00  0.00     0.174 HD
ENDBRANCH   8  24
BRANCH   1  27
HETATM   27  C3  UNL     1      24.682   1.562  51.496  1.00  0.00    -0.004 C 
HETATM   28  C2  UNL     1      25.051   0.522  52.183  1.00  0.00    -0.031 C 
HETATM   29  C1  UNL     1      25.295   0.506  53.628  1.00  0.00     0.036 C 
ENDBRANCH   1  27
TORSDOF 4
ENDMDL
MODEL 8
REMARK VINA RESULT:      -6.9      3.471      5.208
REMARK  4 active torsions:
REMARK  status: ('A' for Active; 'I' for Inactive)
REMARK    1  A    between atoms: C3_3  and  C4_4 
REMARK    2  A    between atoms: C9_9  and  N1_10 
REMARK    3  A    between atoms: N1_10  and  C10_11 
REMARK    4  A    between atoms: C16_20  and  N3_21 
ROOT
HETATM    1  C4  UNL     1      21.879   5.135  51.578  1.00  0.00     0.004 C 
HETATM    2  C5  UNL     1      23.219   5.024  51.584  1.00  0.00    -0.065 C 
HETATM    3  C6  UNL     1      23.835   4.784  52.940  1.00  0.00     0.040 C 
HETATM    4  C7  UNL     1      24.036   3.277  53.180  1.00  0.00     0.044 C 
HETATM    5  C8  UNL     1      24.042   2.695  51.787  1.00  0.00    -0.018 C 
HETATM    6  C9  UNL     1      23.074   1.764  51.726  1.00  0.00     0.151 C 
HETATM    7  N2  UNL     1      22.483   1.340  50.477  1.00  0.00    -0.046 NA
HETATM    8  C16 UNL     1      22.397   2.049  49.375  1.00  0.00     0.710 C 
HETATM    9  N4  UNL     1      23.174   3.235  49.099  1.00  0.00    -0.150 N 
HETATM   10  N5  UNL     1      24.240   3.871  49.677  1.00  0.00    -0.209 NA
HETATM   11  C17 UNL     1      23.940   5.140  50.304  1.00  0.00     0.148 C 
HETATM   12  C18 UNL     1      24.960   3.096  50.665  1.00  0.00     0.152 C 
HETATM   13  H17 UNL     1      22.832   3.730  48.244  1.00  0.00     0.199 HD
ENDROOT
BRANCH   6  14
HETATM   14  N1  UNL     1      22.744   1.296  53.001  1.00  0.00    -0.338 N 
HETATM   15  H11 UNL     1      23.292   1.583  53.867  1.00  0.00     0.167 HD
BRANCH  14  16
HETATM   16  C10 UNL     1      21.649   0.408  53.197  1.00  0.00     0.072 A 
HETATM   17  C11 UNL     1      20.407   0.700  52.669  1.00  0.00     0.034 A 
HETATM   18  C12 UNL     1      19.318  -0.161  52.851  1.00  0.00     0.026 A 
HETATM   19  C13 UNL     1      19.490  -1.322  53.571  1.00  0.00     0.037 A 
HETATM   20 CL1  UNL     1      18.204  -2.472  53.862  1.00  0.00    -0.084 Cl
HETATM   21  C14 UNL     1      20.724  -1.637  54.110  1.00  0.00     0.068 A 
HETATM   22  C15 UNL     1      21.776  -0.765  53.911  1.00  0.00     0.144 A 
HETATM   23  F1  UNL     1      22.997  -1.036  54.421  1.00  0.00    -0.204 F 
ENDBRANCH  14  16
ENDBRANCH   6  14
BRANCH   8  24
HETATM   24  N3  UNL     1      21.456   1.559  48.429  1.00  0.00    -0.232 N 
HETATM   25  H15 UNL     1      20.774   1.933  47.704  1.00  0.00     0.174 HD
HETATM   26  H16 UNL     1      21.550   0.514  48.581  1.00  0.00     0.174 HD
ENDBRANCH   8  24
BRANCH   1  27
HETATM   27  C3  UNL     1      20.934   5.362  50.493  1.00  0.00    -0.004 C 
HETATM   28  C2  UNL     1      19.822   4.739  50.238  1.00  0.00    -0.031 C 
HETATM   29  C1  UNL     1      19.273   3.631  51.025  1.00  0.00     0.036 C 
ENDBRANCH   1  27
TORSDOF 4
ENDMDL
MODEL 9
REMARK VINA RESULT:      -6.8      6.570      9.503
REMARK  4 active torsions:
REMARK  status: ('A' for Active; 'I' for Inactive)
REMARK    1  A    between atoms: C3_3  and  C4_4 
REMARK    2  A    between atoms: C9_9  and  N1_10 
REMARK    3  A    between atoms: N1_10  and  C10_11 
REMARK    4  A    between atoms: C16_20  and  N3_21 
ROOT
HETATM    1  C4  UNL     1      32.573   5.339  45.983  1.00  0.00     0.004 C 
HETATM    2  C5  UNL     1      32.689   6.671  45.853  1.00  0.00    -0.065 C 
HETATM    3  C6  UNL     1      31.697   7.312  44.914  1.00  0.00     0.040 C 
HETATM    4  C7  UNL     1      30.472   7.823  45.694  1.00  0.00     0.044 C 
HETATM    5  C8  UNL     1      30.986   7.964  47.106  1.00  0.00    -0.018 C 
HETATM    6  C9  UNL     1      30.207   7.214  47.905  1.00  0.00     0.151 C 
HETATM    7  N2  UNL     1      30.650   6.737  49.195  1.00  0.00    -0.046 NA
HETATM    8  C16 UNL     1      31.892   6.514  49.560  1.00  0.00     0.710 C 
HETATM    9  N4  UNL     1      33.053   7.027  48.872  1.00  0.00    -0.150 N 
HETATM   10  N5  UNL     1      33.286   7.929  47.870  1.00  0.00    -0.209 NA
HETATM   11  C17 UNL     1      33.741   7.364  46.618  1.00  0.00     0.148 C 
HETATM   12  C18 UNL     1      32.168   8.787  47.539  1.00  0.00     0.152 C 
HETATM   13  H17 UNL     1      33.936   6.596  49.233  1.00  0.00     0.199 HD
ENDROOT
BRANCH   6  14
HETATM   14  N1  UNL     1      28.961   6.977  47.316  1.00  0.00    -0.338 N 
HETATM   15  H11 UNL     1      28.784   7.155  46.282  1.00  0.00     0.167 HD
BRANCH  14  16
HETATM   16  C10 UNL     1      27.868   6.484  48.082  1.00  0.00     0.072 A 
HETATM   17  C11 UNL     1      27.788   5.146  48.408  1.00  0.00     0.034 A 
HETATM   18  C12 UNL     1      26.721   4.642  49.161  1.00  0.00     0.026 A 
HETATM   19  C13 UNL     1      25.731   5.500  49.585  1.00  0.00     0.037 A 
HETATM   20 CL1  UNL     1      24.352   4.985  50.530  1.00  0.00    -0.084 Cl
HETATM   21  C14 UNL     1      25.788   6.847  49.271  1.00  0.00     0.068 A 
HETATM   22  C15 UNL     1      26.855   7.308  48.527  1.00  0.00     0.144 A 
HETATM   23  F1  UNL     1      26.948   8.615  48.200  1.00  0.00    -0.204 F 
ENDBRANCH  14  16
ENDBRANCH   6  14
BRANCH   8  24
HETATM   24  N3  UNL     1      32.030   5.706  50.721  1.00  0.00    -0.232 N 
HETATM   25  H15 UNL     1      32.780   5.150  51.229  1.00  0.00     0.174 HD
HETATM   26  H16 UNL     1      31.044   5.743  51.106  1.00  0.00     0.174 HD
ENDBRANCH   8  24
BRANCH   1  27
HETATM   27  C3  UNL     1      33.325   4.376  46.777  1.00  0.00    -0.004 C 
HETATM   28  C2  UNL     1      34.410   3.733  46.464  1.00  0.00    -0.031 C 
HETATM   29  C1  UNL     1      35.127   3.851  45.191  1.00  0.00     0.036 C 
ENDBRANCH   1  27
TORSDOF 4
ENDMDL
