MODEL 1
REMARK VINA RESULT:      -7.7      0.000      0.000
REMARK  2 active torsions:
REMARK  status: ('A' for Active; 'I' for Inactive)
REMARK    1  A    between atoms: O1_2  and  C2_3 
REMARK    2  A    between atoms: C15_19  and  O2_20 
ROOT
HETATM    1  C2  UNL     1      26.478   0.383  53.651  1.00  0.00     0.103 A 
HETATM    2  C3  UNL     1      26.729   1.222  52.624  1.00  0.00     0.068 A 
HETATM    3  C4  UNL     1      25.807   1.811  51.591  1.00  0.00     0.050 A 
HETATM    4  N1  UNL     1      26.675   2.459  50.927  1.00  0.00    -0.246 NA
HETATM    5  C5  UNL     1      26.668   3.270  49.820  1.00  0.00     0.229 C 
HETATM    6  N2  UNL     1      25.788   4.055  49.208  1.00  0.00    -0.253 NA
HETATM    7  C6  UNL     1      24.508   4.000  49.950  1.00  0.00     0.420 C 
HETATM    8  N3  UNL     1      24.930   4.291  51.328  1.00  0.00     0.117 N 
HETATM    9  C7  UNL     1      23.896   3.889  52.255  1.00  0.00     0.188 A 
HETATM   10  C8  UNL     1      23.571   4.697  53.418  1.00  0.00     0.054 A 
HETATM   11  C9  UNL     1      22.666   4.722  52.231  1.00  0.00     0.035 A 
HETATM   12  C10 UNL     1      21.542   3.747  52.226  1.00  0.00     0.035 C 
HETATM   13  C11 UNL     1      22.129   2.430  51.991  1.00  0.00    -0.020 C 
HETATM   14  C12 UNL     1      23.453   2.504  52.006  1.00  0.00    -0.031 C 
HETATM   15  C13 UNL     1      24.416   1.387  51.797  1.00  0.00     0.094 A 
HETATM   16  C14 UNL     1      24.234   0.462  52.942  1.00  0.00     0.028 A 
HETATM   17  C15 UNL     1      25.075  -0.064  53.849  1.00  0.00     0.098 A 
HETATM   18  H8  UNL     1      25.020   5.328  51.375  1.00  0.00     0.319 HD
ENDROOT
BRANCH   1  19
HETATM   19  O1  UNL     1      27.274  -0.215  54.658  1.00  0.00    -0.353 OA
HETATM   20  C1  UNL     1      28.632   0.057  54.835  1.00  0.00     0.210 C 
ENDBRANCH   1  19
BRANCH  17  21
HETATM   21  O2  UNL     1      24.540  -0.908  54.797  1.00  0.00    -0.353 OA
HETATM   22  C16 UNL     1      23.176  -1.180  54.970  1.00  0.00     0.210 C 
ENDBRANCH  17  21
TORSDOF 2
ENDMDL
MODEL 2
REMARK VINA RESULT:      -7.4      2.703      4.166
REMARK  2 active torsions:
REMARK  status: ('A' for Active; 'I' for Inactive)
REMARK    1  A    between atoms: O1_2  and  C2_3 
REMARK    2  A    between atoms: C15_19  and  O2_20 
ROOT
HETATM    1  C2  UNL     1      26.417  -0.144  52.808  1.00  0.00     0.103 A 
HETATM    2  C3  UNL     1      25.181  -0.607  53.090  1.00  0.00     0.068 A 
HETATM    3  C4  UNL     1      23.906   0.128  53.399  1.00  0.00     0.050 A 
HETATM    4  N1  UNL     1      23.162  -0.882  53.598  1.00  0.00    -0.246 NA
HETATM    5  C5  UNL     1      21.847  -1.090  53.929  1.00  0.00     0.229 C 
HETATM    6  N2  UNL     1      20.704  -0.425  53.797  1.00  0.00    -0.253 NA
HETATM    7  C6  UNL     1      20.981   0.859  53.114  1.00  0.00     0.420 C 
HETATM    8  N3  UNL     1      21.732   0.429  51.925  1.00  0.00     0.117 N 
HETATM    9  C7  UNL     1      22.431   1.555  51.350  1.00  0.00     0.188 A 
HETATM   10  C8  UNL     1      22.519   1.731  49.910  1.00  0.00     0.054 A 
HETATM   11  C9  UNL     1      21.565   2.569  50.696  1.00  0.00     0.035 A 
HETATM   12  C10 UNL     1      22.072   3.880  51.185  1.00  0.00     0.035 C 
HETATM   13  C11 UNL     1      23.008   3.590  52.268  1.00  0.00    -0.020 C 
HETATM   14  C12 UNL     1      23.214   2.284  52.365  1.00  0.00    -0.031 C 
HETATM   15  C13 UNL     1      24.090   1.584  53.346  1.00  0.00     0.094 A 
HETATM   16  C14 UNL     1      25.478   2.003  53.035  1.00  0.00     0.028 A 
HETATM   17  C15 UNL     1      26.611   1.328  52.774  1.00  0.00     0.098 A 
HETATM   18  H8  UNL     1      21.009   0.114  51.242  1.00  0.00     0.319 HD
ENDROOT
BRANCH   1  19
HETATM   19  O1  UNL     1      27.660  -0.756  52.510  1.00  0.00    -0.353 OA
HETATM   20  C1  UNL     1      28.573  -1.166  53.483  1.00  0.00     0.210 C 
ENDBRANCH   1  19
BRANCH  17  21
HETATM   21  O2  UNL     1      27.746   2.066  52.521  1.00  0.00    -0.353 OA
HETATM   22  C16 UNL     1      28.656   2.520  53.486  1.00  0.00     0.210 C 
ENDBRANCH  17  21
TORSDOF 2
ENDMDL
MODEL 3
REMARK VINA RESULT:      -7.3      2.272      3.670
REMARK  2 active torsions:
REMARK  status: ('A' for Active; 'I' for Inactive)
REMARK    1  A    between atoms: O1_2  and  C2_3 
REMARK    2  A    between atoms: C15_19  and  O2_20 
ROOT
HETATM    1  C2  UNL     1      25.729   0.186  53.574  1.00  0.00     0.103 A 
HETATM    2  C3  UNL     1      24.482  -0.001  53.093  1.00  0.00     0.068 A 
HETATM    3  C4  UNL     1      23.393   0.988  52.778  1.00  0.00     0.050 A 
HETATM    4  N1  UNL     1      22.502   0.161  52.411  1.00  0.00    -0.246 NA
HETATM    5  C5  UNL     1      21.207   0.239  51.964  1.00  0.00     0.229 C 
HETATM    6  N2  UNL     1      20.456   1.141  51.341  1.00  0.00    -0.253 NA
HETATM    7  C6  UNL     1      21.277   2.348  51.092  1.00  0.00     0.420 C 
HETATM    8  N3  UNL     1      22.468   1.791  50.435  1.00  0.00     0.117 N 
HETATM    9  C7  UNL     1      23.549   2.749  50.479  1.00  0.00     0.188 A 
HETATM   10  C8  UNL     1      24.438   2.935  49.344  1.00  0.00     0.054 A 
HETATM   11  C9  UNL     1      23.370   3.943  49.613  1.00  0.00     0.035 A 
HETATM   12  C10 UNL     1      23.743   5.100  50.472  1.00  0.00     0.035 C 
HETATM   13  C11 UNL     1      23.869   4.587  51.835  1.00  0.00    -0.020 C 
HETATM   14  C12 UNL     1      23.760   3.266  51.844  1.00  0.00    -0.031 C 
HETATM   15  C13 UNL     1      23.823   2.370  53.032  1.00  0.00     0.094 A 
HETATM   16  C14 UNL     1      25.202   2.481  53.565  1.00  0.00     0.028 A 
HETATM   17  C15 UNL     1      26.158   1.581  53.852  1.00  0.00     0.098 A 
HETATM   18  H8  UNL     1      22.195   1.657  49.438  1.00  0.00     0.319 HD
ENDROOT
BRANCH   1  19
HETATM   19  O1  UNL     1      26.806  -0.676  53.898  1.00  0.00    -0.353 OA
HETATM   20  C1  UNL     1      27.691  -1.197  52.954  1.00  0.00     0.210 C 
ENDBRANCH   1  19
BRANCH  17  21
HETATM   21  O2  UNL     1      27.354   2.058  54.343  1.00  0.00    -0.353 OA
HETATM   22  C16 UNL     1      28.474   2.397  53.572  1.00  0.00     0.210 C 
ENDBRANCH  17  21
TORSDOF 2
ENDMDL
MODEL 4
REMARK VINA RESULT:      -6.9      3.162      5.877
REMARK  2 active torsions:
REMARK  status: ('A' for Active; 'I' for Inactive)
REMARK    1  A    between atoms: O1_2  and  C2_3 
REMARK    2  A    between atoms: C15_19  and  O2_20 
ROOT
HETATM    1  C2  UNL     1      23.722   4.431  51.668  1.00  0.00     0.103 A 
HETATM    2  C3  UNL     1      23.040   3.426  52.256  1.00  0.00     0.068 A 
HETATM    3  C4  UNL     1      23.258   1.939  52.217  1.00  0.00     0.050 A 
HETATM    4  N1  UNL     1      22.266   1.595  52.932  1.00  0.00    -0.246 NA
HETATM    5  C5  UNL     1      21.740   0.412  53.387  1.00  0.00     0.229 C 
HETATM    6  N2  UNL     1      22.196  -0.809  53.646  1.00  0.00    -0.253 NA
HETATM    7  C6  UNL     1      23.647  -0.844  53.349  1.00  0.00     0.420 C 
HETATM    8  N3  UNL     1      24.151   0.314  54.102  1.00  0.00     0.117 N 
HETATM    9  C7  UNL     1      25.463   0.682  53.619  1.00  0.00     0.188 A 
HETATM   10  C8  UNL     1      26.513   1.098  54.534  1.00  0.00     0.054 A 
HETATM   11  C9  UNL     1      26.550  -0.276  53.951  1.00  0.00     0.035 A 
HETATM   12  C10 UNL     1      27.313  -0.445  52.685  1.00  0.00     0.035 C 
HETATM   13  C11 UNL     1      26.523   0.187  51.632  1.00  0.00    -0.020 C 
HETATM   14  C12 UNL     1      25.482   0.822  52.151  1.00  0.00    -0.031 C 
HETATM   15  C13 UNL     1      24.434   1.581  51.413  1.00  0.00     0.094 A 
HETATM   16  C14 UNL     1      25.118   2.745  50.800  1.00  0.00     0.028 A 
HETATM   17  C15 UNL     1      24.900   4.071  50.837  1.00  0.00     0.098 A 
HETATM   18  H8  UNL     1      24.250  -0.019  55.085  1.00  0.00     0.319 HD
ENDROOT
BRANCH   1  19
HETATM   19  O1  UNL     1      23.588   5.842  51.649  1.00  0.00    -0.353 OA
HETATM   20  C1  UNL     1      22.657   6.519  50.860  1.00  0.00     0.210 C 
ENDBRANCH   1  19
BRANCH  17  21
HETATM   21  O2  UNL     1      25.763   4.877  50.128  1.00  0.00    -0.353 OA
HETATM   22  C16 UNL     1      26.744   4.432  49.232  1.00  0.00     0.210 C 
ENDBRANCH  17  21
TORSDOF 2
ENDMDL
MODEL 5
REMARK VINA RESULT:      -6.6      2.188      3.094
REMARK  2 active torsions:
REMARK  status: ('A' for Active; 'I' for Inactive)
REMARK    1  A    between atoms: O1_2  and  C2_3 
REMARK    2  A    between atoms: C15_19  and  O2_20 
ROOT
HETATM    1  C2  UNL     1      25.482   1.697  51.525  1.00  0.00     0.103 A 
HETATM    2  C3  UNL     1      26.287   2.548  50.854  1.00  0.00     0.068 A 
HETATM    3  C4  UNL     1      25.965   3.591  49.820  1.00  0.00     0.050 A 
HETATM    4  N1  UNL     1      27.150   3.985  49.589  1.00  0.00    -0.246 NA
HETATM    5  C5  UNL     1      27.739   4.917  48.772  1.00  0.00     0.229 C 
HETATM    6  N2  UNL     1      27.376   6.056  48.192  1.00  0.00    -0.253 NA
HETATM    7  C6  UNL     1      25.968   6.342  48.552  1.00  0.00     0.420 C 
HETATM    8  N3  UNL     1      25.988   6.227  50.018  1.00  0.00     0.117 N 
HETATM    9  C7  UNL     1      24.640   6.075  50.518  1.00  0.00     0.188 A 
HETATM   10  C8  UNL     1      24.209   6.741  51.735  1.00  0.00     0.054 A 
HETATM   11  C9  UNL     1      23.786   7.286  50.412  1.00  0.00     0.035 A 
HETATM   12  C10 UNL     1      22.491   6.797  49.869  1.00  0.00     0.035 C 
HETATM   13  C11 UNL     1      22.708   5.415  49.445  1.00  0.00    -0.020 C 
HETATM   14  C12 UNL     1      23.915   5.005  49.807  1.00  0.00    -0.031 C 
HETATM   15  C13 UNL     1      24.521   3.668  49.555  1.00  0.00     0.094 A 
HETATM   16  C14 UNL     1      23.716   2.694  50.329  1.00  0.00     0.028 A 
HETATM   17  C15 UNL     1      24.025   1.757  51.243  1.00  0.00     0.098 A 
HETATM   18  H8  UNL     1      26.358   7.140  50.360  1.00  0.00     0.319 HD
ENDROOT
BRANCH   1  19
HETATM   19  O1  UNL     1      25.697   0.693  52.502  1.00  0.00    -0.353 OA
HETATM   20  C1  UNL     1      26.777  -0.191  52.479  1.00  0.00     0.210 C 
ENDBRANCH   1  19
BRANCH  17  21
HETATM   21  O2  UNL     1      22.990   1.016  51.769  1.00  0.00    -0.353 OA
HETATM   22  C16 UNL     1      22.010   1.495  52.651  1.00  0.00     0.210 C 
ENDBRANCH  17  21
TORSDOF 2
ENDMDL
MODEL 6
REMARK VINA RESULT:      -6.5      2.466      4.243
REMARK  2 active torsions:
REMARK  status: ('A' for Active; 'I' for Inactive)
REMARK    1  A    between atoms: O1_2  and  C2_3 
REMARK    2  A    between atoms: C15_19  and  O2_20 
ROOT
HETATM    1  C2  UNL     1      24.475   0.713  52.778  1.00  0.00     0.103 A 
HETATM    2  C3  UNL     1      23.179   1.091  52.777  1.00  0.00     0.068 A 
HETATM    3  C4  UNL     1      22.533   2.374  52.332  1.00  0.00     0.050 A 
HETATM    4  N1  UNL     1      21.334   2.083  52.633  1.00  0.00    -0.246 NA
HETATM    5  C5  UNL     1      20.115   2.709  52.549  1.00  0.00     0.229 C 
HETATM    6  N2  UNL     1      19.569   3.657  51.796  1.00  0.00    -0.253 NA
HETATM    7  C6  UNL     1      20.578   4.121  50.815  1.00  0.00     0.420 C 
HETATM    8  N3  UNL     1      21.032   2.860  50.210  1.00  0.00     0.117 N 
HETATM    9  C7  UNL     1      22.288   3.066  49.526  1.00  0.00     0.188 A 
HETATM   10  C8  UNL     1      22.565   2.430  48.249  1.00  0.00     0.054 A 
HETATM   11  C9  UNL     1      22.206   3.878  48.285  1.00  0.00     0.035 A 
HETATM   12  C10 UNL     1      23.333   4.845  48.382  1.00  0.00     0.035 C 
HETATM   13  C11 UNL     1      23.855   4.744  49.743  1.00  0.00    -0.020 C 
HETATM   14  C12 UNL     1      23.271   3.746  50.390  1.00  0.00    -0.031 C 
HETATM   15  C13 UNL     1      23.518   3.324  51.797  1.00  0.00     0.094 A 
HETATM   16  C14 UNL     1      24.915   2.828  51.843  1.00  0.00     0.028 A 
HETATM   17  C15 UNL     1      25.476   1.679  52.258  1.00  0.00     0.098 A 
HETATM   18  H8  UNL     1      20.311   2.622  49.496  1.00  0.00     0.319 HD
ENDROOT
BRANCH   1  19
HETATM   19  O1  UNL     1      25.164  -0.460  53.176  1.00  0.00    -0.353 OA
HETATM   20  C1  UNL     1      25.490  -0.753  54.501  1.00  0.00     0.210 C 
ENDBRANCH   1  19
BRANCH  17  21
HETATM   21  O2  UNL     1      26.844   1.563  52.147  1.00  0.00    -0.353 OA
HETATM   22  C16 UNL     1      27.785   2.150  53.005  1.00  0.00     0.210 C 
ENDBRANCH  17  21
TORSDOF 2
ENDMDL
MODEL 7
REMARK VINA RESULT:      -6.4      3.215      5.091
REMARK  2 active torsions:
REMARK  status: ('A' for Active; 'I' for Inactive)
REMARK    1  A    between atoms: O1_2  and  C2_3 
REMARK    2  A    between atoms: C15_19  and  O2_20 
ROOT
HETATM    1  C2  UNL     1      25.444   2.841  51.525  1.00  0.00     0.103 A 
HETATM    2  C3  UNL     1      25.142   1.721  52.215  1.00  0.00     0.068 A 
HETATM    3  C4  UNL     1      23.911   1.356  53.000  1.00  0.00     0.050 A 
HETATM    4  N1  UNL     1      24.292   0.215  53.407  1.00  0.00    -0.246 NA
HETATM    5  C5  UNL     1      23.761  -0.785  54.183  1.00  0.00     0.229 C 
HETATM    6  N2  UNL     1      22.544  -1.209  54.506  1.00  0.00    -0.253 NA
HETATM    7  C6  UNL     1      21.548  -0.347  53.830  1.00  0.00     0.420 C 
HETATM    8  N3  UNL     1      22.000  -0.379  52.431  1.00  0.00     0.117 N 
HETATM    9  C7  UNL     1      21.403   0.712  51.694  1.00  0.00     0.188 A 
HETATM   10  C8  UNL     1      20.933   0.533  50.331  1.00  0.00     0.054 A 
HETATM   11  C9  UNL     1      19.943   0.584  51.448  1.00  0.00     0.035 A 
HETATM   12  C10 UNL     1      19.379   1.920  51.781  1.00  0.00     0.035 C 
HETATM   13  C11 UNL     1      20.445   2.674  52.436  1.00  0.00    -0.020 C 
HETATM   14  C12 UNL     1      21.585   2.000  52.390  1.00  0.00    -0.031 C 
HETATM   15  C13 UNL     1      22.899   2.419  52.952  1.00  0.00     0.094 A 
HETATM   16  C14 UNL     1      23.319   3.613  52.179  1.00  0.00     0.028 A 
HETATM   17  C15 UNL     1      24.431   3.927  51.493  1.00  0.00     0.098 A 
HETATM   18  H8  UNL     1      21.628  -1.273  52.042  1.00  0.00     0.319 HD
ENDROOT
BRANCH   1  19
HETATM   19  O1  UNL     1      26.565   3.265  50.769  1.00  0.00    -0.353 OA
HETATM   20  C1  UNL     1      26.610   3.244  49.374  1.00  0.00     0.210 C 
ENDBRANCH   1  19
BRANCH  17  21
HETATM   21  O2  UNL     1      24.474   5.160  50.881  1.00  0.00    -0.353 OA
HETATM   22  C16 UNL     1      23.674   6.262  51.210  1.00  0.00     0.210 C 
ENDBRANCH  17  21
TORSDOF 2
ENDMDL
MODEL 8
REMARK VINA RESULT:      -6.4      7.344      9.908
REMARK  2 active torsions:
REMARK  status: ('A' for Active; 'I' for Inactive)
REMARK    1  A    between atoms: O1_2  and  C2_3 
REMARK    2  A    between atoms: C15_19  and  O2_20 
ROOT
HETATM    1  C2  UNL     1      33.062   5.322  47.913  1.00  0.00     0.103 A 
HETATM    2  C3  UNL     1      31.725   5.142  47.950  1.00  0.00     0.068 A 
HETATM    3  C4  UNL     1      30.637   5.997  48.538  1.00  0.00     0.050 A 
HETATM    4  N1  UNL     1      29.651   5.246  48.262  1.00  0.00    -0.246 NA
HETATM    5  C5  UNL     1      28.293   5.288  48.454  1.00  0.00     0.229 C 
HETATM    6  N2  UNL     1      27.372   6.233  48.617  1.00  0.00    -0.253 NA
HETATM    7  C6  UNL     1      28.039   7.555  48.574  1.00  0.00     0.420 C 
HETATM    8  N3  UNL     1      28.812   7.478  47.325  1.00  0.00     0.117 N 
HETATM    9  C7  UNL     1      29.833   8.501  47.314  1.00  0.00     0.188 A 
HETATM   10  C8  UNL     1      30.148   9.237  46.101  1.00  0.00     0.054 A 
HETATM   11  C9  UNL     1      29.331   9.892  47.166  1.00  0.00     0.035 A 
HETATM   12  C10 UNL     1      30.073  10.678  48.189  1.00  0.00     0.035 C 
HETATM   13  C11 UNL     1      30.761   9.712  49.043  1.00  0.00    -0.020 C 
HETATM   14  C12 UNL     1      30.629   8.487  48.556  1.00  0.00    -0.031 C 
HETATM   15  C13 UNL     1      31.173   7.228  49.135  1.00  0.00     0.094 A 
HETATM   16  C14 UNL     1      32.650   7.338  49.056  1.00  0.00     0.028 A 
HETATM   17  C15 UNL     1      33.610   6.554  48.536  1.00  0.00     0.098 A 
HETATM   18  H8  UNL     1      28.131   7.693  46.566  1.00  0.00     0.319 HD
ENDROOT
BRANCH   1  19
HETATM   19  O1  UNL     1      34.148   4.576  47.389  1.00  0.00    -0.353 OA
HETATM   20  C1  UNL     1      34.442   3.266  47.770  1.00  0.00     0.210 C 
ENDBRANCH   1  19
BRANCH  17  21
HETATM   21  O2  UNL     1      34.913   6.986  48.647  1.00  0.00    -0.353 OA
HETATM   22  C16 UNL     1      35.389   8.248  48.265  1.00  0.00     0.210 C 
ENDBRANCH  17  21
TORSDOF 2
ENDMDL
MODEL 9
REMARK VINA RESULT:      -6.4      7.793     10.789
REMARK  2 active torsions:
REMARK  status: ('A' for Active; 'I' for Inactive)
REMARK    1  A    between atoms: O1_2  and  C2_3 
REMARK    2  A    between atoms: C15_19  and  O2_20 
ROOT
HETATM    1  C2  UNL     1      29.972   8.225  47.700  1.00  0.00     0.103 A 
HETATM    2  C3  UNL     1      31.304   8.352  47.880  1.00  0.00     0.068 A 
HETATM    3  C4  UNL     1      32.346   7.328  48.237  1.00  0.00     0.050 A 
HETATM    4  N1  UNL     1      33.350   8.104  48.281  1.00  0.00    -0.246 NA
HETATM    5  C5  UNL     1      34.691   7.970  48.540  1.00  0.00     0.229 C 
HETATM    6  N2  UNL     1      35.596   7.001  48.455  1.00  0.00    -0.253 NA
HETATM    7  C6  UNL     1      34.932   5.777  47.950  1.00  0.00     0.420 C 
HETATM    8  N3  UNL     1      34.250   6.265  46.742  1.00  0.00     0.117 N 
HETATM    9  C7  UNL     1      33.231   5.323  46.337  1.00  0.00     0.188 A 
HETATM   10  C8  UNL     1      33.001   5.017  44.935  1.00  0.00     0.054 A 
HETATM   11  C9  UNL     1      33.739   4.039  45.789  1.00  0.00     0.035 A 
HETATM   12  C10 UNL     1      32.926   2.987  46.457  1.00  0.00     0.035 C 
HETATM   13  C11 UNL     1      32.180   3.648  47.525  1.00  0.00    -0.020 C 
HETATM   14  C12 UNL     1      32.348   4.962  47.463  1.00  0.00    -0.031 C 
HETATM   15  C13 UNL     1      31.766   5.985  48.375  1.00  0.00     0.094 A 
HETATM   16  C14 UNL     1      30.299   5.941  48.167  1.00  0.00     0.028 A 
HETATM   17  C15 UNL     1      29.380   6.872  47.859  1.00  0.00     0.098 A 
HETATM   18  H8  UNL     1      34.983   6.285  46.001  1.00  0.00     0.319 HD
ENDROOT
BRANCH   1  19
HETATM   19  O1  UNL     1      28.928   9.124  47.368  1.00  0.00    -0.353 OA
HETATM   20  C1  UNL     1      28.698   9.601  46.077  1.00  0.00     0.210 C 
ENDBRANCH   1  19
BRANCH  17  21
HETATM   21  O2  UNL     1      28.071   6.459  47.740  1.00  0.00    -0.353 OA
HETATM   22  C16 UNL     1      27.440   5.504  48.550  1.00  0.00     0.210 C 
ENDBRANCH  17  21
TORSDOF 2
ENDMDL
