MODEL 1
REMARK VINA RESULT:      -6.3      0.000      0.000
REMARK  4 active torsions:
REMARK  status: ('A' for Active; 'I' for Inactive)
REMARK    1  A    between atoms: O1_2  and  C2_3 
REMARK    2  A    between atoms: C4_5  and  N1_6 
REMARK    3  A    between atoms: N1_6  and  C6_8 
REMARK    4  A    between atoms: C15_20  and  O2_21 
ROOT
HETATM    1  C2  UNL     1      24.186   4.085  49.651  1.00  0.00     0.103 A 
HETATM    2  C3  UNL     1      23.440   3.231  48.970  1.00  0.00     0.073 A 
HETATM    3  C4  UNL     1      22.210   3.169  49.609  1.00  0.00     0.182 A 
HETATM    4  N2  UNL     1      20.889   3.277  48.952  1.00  0.00    -0.242 NA
HETATM    5  C12 UNL     1      19.986   3.833  49.817  1.00  0.00     0.230 C 
HETATM    6  N3  UNL     1      19.964   4.389  51.156  1.00  0.00    -0.254 NA
HETATM    7  C13 UNL     1      21.150   4.481  51.752  1.00  0.00     0.132 C 
HETATM    8  C14 UNL     1      22.123   4.046  50.742  1.00  0.00     0.050 A 
HETATM    9  C15 UNL     1      23.373   4.598  50.746  1.00  0.00     0.113 A 
ENDROOT
BRANCH   3  10
HETATM   10  N1  UNL     1      22.064   1.711  50.122  1.00  0.00    -0.350 N 
HETATM   11  C5  UNL     1      21.601   0.941  48.950  1.00  0.00     0.153 C 
BRANCH  10  12
HETATM   12  C6  UNL     1      22.315   1.002  51.313  1.00  0.00     0.032 A 
HETATM   13  C7  UNL     1      23.472   0.972  52.045  1.00  0.00     0.031 A 
HETATM   14  C8  UNL     1      23.684   0.316  53.234  1.00  0.00     0.026 A 
HETATM   15  C9  UNL     1      22.579  -0.359  53.675  1.00  0.00     0.034 A 
HETATM   16 CL1  UNL     1      22.663  -1.253  55.177  1.00  0.00    -0.084 Cl
HETATM   17  C10 UNL     1      21.384  -0.378  52.998  1.00  0.00     0.026 A 
HETATM   18  C11 UNL     1      21.244   0.303  51.812  1.00  0.00     0.031 A 
ENDBRANCH  10  12
ENDBRANCH   3  10
BRANCH   1  19
HETATM   19  O1  UNL     1      25.481   4.311  49.215  1.00  0.00    -0.353 OA
HETATM   20  C1  UNL     1      26.624   3.647  49.715  1.00  0.00     0.210 C 
ENDBRANCH   1  19
BRANCH   9  21
HETATM   21  O2  UNL     1      24.055   5.538  51.554  1.00  0.00    -0.352 OA
HETATM   22  C16 UNL     1      24.073   6.904  51.116  1.00  0.00     0.210 C 
ENDBRANCH   9  21
TORSDOF 4
ENDMDL
MODEL 2
REMARK VINA RESULT:      -6.2      2.739      4.660
REMARK  4 active torsions:
REMARK  status: ('A' for Active; 'I' for Inactive)
REMARK    1  A    between atoms: O1_2  and  C2_3 
REMARK    2  A    between atoms: C4_5  and  N1_6 
REMARK    3  A    between atoms: N1_6  and  C6_8 
REMARK    4  A    between atoms: C15_20  and  O2_21 
ROOT
HETATM    1  C2  UNL     1      19.760   3.363  51.420  1.00  0.00     0.103 A 
HETATM    2  C3  UNL     1      20.738   4.242  51.561  1.00  0.00     0.073 A 
HETATM    3  C4  UNL     1      21.795   3.801  50.778  1.00  0.00     0.182 A 
HETATM    4  N2  UNL     1      22.562   4.627  49.819  1.00  0.00    -0.242 NA
HETATM    5  C12 UNL     1      23.016   3.841  48.793  1.00  0.00     0.230 C 
HETATM    6  N3  UNL     1      22.918   2.464  48.353  1.00  0.00    -0.254 NA
HETATM    7  C13 UNL     1      22.106   1.694  49.074  1.00  0.00     0.132 C 
HETATM    8  C14 UNL     1      21.494   2.596  50.057  1.00  0.00     0.050 A 
HETATM    9  C15 UNL     1      20.220   2.345  50.485  1.00  0.00     0.113 A 
ENDROOT
BRANCH   3  10
HETATM   10  N1  UNL     1      22.958   3.494  51.758  1.00  0.00    -0.350 N 
HETATM   11  C5  UNL     1      23.194   4.761  52.478  1.00  0.00     0.153 C 
BRANCH  10  12
HETATM   12  C6  UNL     1      23.724   2.373  52.138  1.00  0.00     0.032 A 
HETATM   13  C7  UNL     1      23.339   1.323  52.927  1.00  0.00     0.031 A 
HETATM   14  C8  UNL     1      24.081   0.210  53.246  1.00  0.00     0.026 A 
HETATM   15  C9  UNL     1      25.328   0.221  52.682  1.00  0.00     0.034 A 
HETATM   16 CL1  UNL     1      26.414  -1.118  52.979  1.00  0.00    -0.084 Cl
HETATM   17  C10 UNL     1      25.787   1.239  51.881  1.00  0.00     0.026 A 
HETATM   18  C11 UNL     1      24.987   2.322  51.604  1.00  0.00     0.031 A 
ENDBRANCH  10  12
ENDBRANCH   3  10
BRANCH   1  19
HETATM   19  O1  UNL     1      18.586   3.575  52.124  1.00  0.00    -0.353 OA
HETATM   20  C1  UNL     1      17.339   3.880  51.531  1.00  0.00     0.210 C 
ENDBRANCH   1  19
BRANCH   9  21
HETATM   21  O2  UNL     1      19.256   1.340  50.236  1.00  0.00    -0.352 OA
HETATM   22  C16 UNL     1      19.127   0.287  51.202  1.00  0.00     0.210 C 
ENDBRANCH   9  21
TORSDOF 4
ENDMDL
MODEL 3
REMARK VINA RESULT:      -6.1      3.459      5.436
REMARK  4 active torsions:
REMARK  status: ('A' for Active; 'I' for Inactive)
REMARK    1  A    between atoms: O1_2  and  C2_3 
REMARK    2  A    between atoms: C4_5  and  N1_6 
REMARK    3  A    between atoms: N1_6  and  C6_8 
REMARK    4  A    between atoms: C15_20  and  O2_21 
ROOT
HETATM    1  C2  UNL     1      23.830   0.741  52.865  1.00  0.00     0.103 A 
HETATM    2  C3  UNL     1      24.594   1.777  52.563  1.00  0.00     0.073 A 
HETATM    3  C4  UNL     1      23.750   2.791  52.134  1.00  0.00     0.182 A 
HETATM    4  N2  UNL     1      23.783   4.196  52.597  1.00  0.00    -0.242 NA
HETATM    5  C12 UNL     1      22.523   4.731  52.540  1.00  0.00     0.230 C 
HETATM    6  N3  UNL     1      21.177   4.307  52.211  1.00  0.00    -0.254 NA
HETATM    7  C13 UNL     1      21.038   3.011  51.945  1.00  0.00     0.132 C 
HETATM    8  C14 UNL     1      22.363   2.425  52.186  1.00  0.00     0.050 A 
HETATM    9  C15 UNL     1      22.446   1.138  52.640  1.00  0.00     0.113 A 
ENDROOT
BRANCH   3  10
HETATM   10  N1  UNL     1      24.118   3.058  50.650  1.00  0.00    -0.350 N 
HETATM   11  C5  UNL     1      25.593   3.136  50.632  1.00  0.00     0.153 C 
BRANCH  10  12
HETATM   12  C6  UNL     1      23.443   3.162  49.417  1.00  0.00     0.032 A 
HETATM   13  C7  UNL     1      22.841   2.161  48.703  1.00  0.00     0.031 A 
HETATM   14  C8  UNL     1      22.141   2.288  47.527  1.00  0.00     0.026 A 
HETATM   15  C9  UNL     1      22.078   3.579  47.080  1.00  0.00     0.034 A 
HETATM   16 CL1  UNL     1      21.224   3.932  45.594  1.00  0.00    -0.084 Cl
HETATM   17  C10 UNL     1      22.657   4.637  47.739  1.00  0.00     0.026 A 
HETATM   18  C11 UNL     1      23.343   4.435  48.913  1.00  0.00     0.031 A 
ENDBRANCH  10  12
ENDBRANCH   3  10
BRANCH   1  19
HETATM   19  O1  UNL     1      24.446  -0.417  53.310  1.00  0.00    -0.353 OA
HETATM   20  C1  UNL     1      25.409  -0.467  54.344  1.00  0.00     0.210 C 
ENDBRANCH   1  19
BRANCH   9  21
HETATM   21  O2  UNL     1      21.516   0.115  52.936  1.00  0.00    -0.352 OA
HETATM   22  C16 UNL     1      21.044   0.015  54.287  1.00  0.00     0.210 C 
ENDBRANCH   9  21
TORSDOF 4
ENDMDL
MODEL 4
REMARK VINA RESULT:      -6.0      3.418      5.231
REMARK  4 active torsions:
REMARK  status: ('A' for Active; 'I' for Inactive)
REMARK    1  A    between atoms: O1_2  and  C2_3 
REMARK    2  A    between atoms: C4_5  and  N1_6 
REMARK    3  A    between atoms: N1_6  and  C6_8 
REMARK    4  A    between atoms: C15_20  and  O2_21 
ROOT
HETATM    1  C2  UNL     1      21.285   0.797  51.646  1.00  0.00     0.103 A 
HETATM    2  C3  UNL     1      21.792   1.030  52.845  1.00  0.00     0.073 A 
HETATM    3  C4  UNL     1      23.075   1.523  52.653  1.00  0.00     0.182 A 
HETATM    4  N2  UNL     1      23.641   2.729  53.297  1.00  0.00    -0.242 NA
HETATM    5  C12 UNL     1      24.567   3.303  52.467  1.00  0.00     0.230 C 
HETATM    6  N3  UNL     1      25.106   3.105  51.137  1.00  0.00    -0.254 NA
HETATM    7  C13 UNL     1      24.526   2.139  50.428  1.00  0.00     0.132 C 
HETATM    8  C14 UNL     1      23.422   1.657  51.266  1.00  0.00     0.050 A 
HETATM    9  C15 UNL     1      22.287   1.189  50.664  1.00  0.00     0.113 A 
ENDROOT
BRANCH   3  10
HETATM   10  N1  UNL     1      24.035   0.482  53.288  1.00  0.00    -0.350 N 
HETATM   11  C5  UNL     1      23.153  -0.586  53.800  1.00  0.00     0.153 C 
BRANCH  10  12
HETATM   12  C6  UNL     1      25.426   0.298  53.416  1.00  0.00     0.032 A 
HETATM   13  C7  UNL     1      26.248   0.770  54.404  1.00  0.00     0.031 A 
HETATM   14  C8  UNL     1      27.595   0.538  54.543  1.00  0.00     0.026 A 
HETATM   15  C9  UNL     1      28.105  -0.257  53.552  1.00  0.00     0.034 A 
HETATM   16 CL1  UNL     1      29.807  -0.661  53.567  1.00  0.00    -0.084 Cl
HETATM   17  C10 UNL     1      27.345  -0.768  52.527  1.00  0.00     0.026 A 
HETATM   18  C11 UNL     1      26.000  -0.493  52.452  1.00  0.00     0.031 A 
ENDBRANCH  10  12
ENDBRANCH   3  10
BRANCH   1  19
HETATM   19  O1  UNL     1      20.002   0.280  51.570  1.00  0.00    -0.353 OA
HETATM   20  C1  UNL     1      18.850   1.034  51.248  1.00  0.00     0.210 C 
ENDBRANCH   1  19
BRANCH   9  21
HETATM   21  O2  UNL     1      21.864   0.998  49.328  1.00  0.00    -0.352 OA
HETATM   22  C16 UNL     1      21.300   2.124  48.640  1.00  0.00     0.210 C 
ENDBRANCH   9  21
TORSDOF 4
ENDMDL
MODEL 5
REMARK VINA RESULT:      -5.8      2.725      4.425
REMARK  4 active torsions:
REMARK  status: ('A' for Active; 'I' for Inactive)
REMARK    1  A    between atoms: O1_2  and  C2_3 
REMARK    2  A    between atoms: C4_5  and  N1_6 
REMARK    3  A    between atoms: N1_6  and  C6_8 
REMARK    4  A    between atoms: C15_20  and  O2_21 
ROOT
HETATM    1  C2  UNL     1      21.057   4.002  50.701  1.00  0.00     0.103 A 
HETATM    2  C3  UNL     1      21.728   4.624  51.656  1.00  0.00     0.073 A 
HETATM    3  C4  UNL     1      23.040   4.737  51.221  1.00  0.00     0.182 A 
HETATM    4  N2  UNL     1      23.855   5.971  51.248  1.00  0.00    -0.242 NA
HETATM    5  C12 UNL     1      24.757   5.952  50.218  1.00  0.00     0.230 C 
HETATM    6  N3  UNL     1      25.103   5.108  49.092  1.00  0.00    -0.254 NA
HETATM    7  C13 UNL     1      24.305   4.060  48.902  1.00  0.00     0.132 C 
HETATM    8  C14 UNL     1      23.243   4.198  49.906  1.00  0.00     0.050 A 
HETATM    9  C15 UNL     1      21.988   3.742  49.612  1.00  0.00     0.113 A 
ENDROOT
BRANCH   3  10
HETATM   10  N1  UNL     1      23.895   3.906  52.214  1.00  0.00    -0.350 N 
HETATM   11  C5  UNL     1      23.802   4.632  53.497  1.00  0.00     0.153 C 
BRANCH  10  12
HETATM   12  C6  UNL     1      24.615   2.694  52.200  1.00  0.00     0.032 A 
HETATM   13  C7  UNL     1      25.896   2.484  51.764  1.00  0.00     0.031 A 
HETATM   14  C8  UNL     1      26.603   1.306  51.806  1.00  0.00     0.026 A 
HETATM   15  C9  UNL     1      25.889   0.275  52.353  1.00  0.00     0.034 A 
HETATM   16 CL1  UNL     1      26.630  -1.304  52.489  1.00  0.00    -0.084 Cl
HETATM   17  C10 UNL     1      24.600   0.407  52.812  1.00  0.00     0.026 A 
HETATM   18  C11 UNL     1      23.955   1.618  52.739  1.00  0.00     0.031 A 
ENDBRANCH  10  12
ENDBRANCH   3  10
BRANCH   1  19
HETATM   19  O1  UNL     1      19.709   3.754  50.906  1.00  0.00    -0.353 OA
HETATM   20  C1  UNL     1      19.199   2.712  51.714  1.00  0.00     0.210 C 
ENDBRANCH   1  19
BRANCH   9  21
HETATM   21  O2  UNL     1      21.391   3.083  48.512  1.00  0.00    -0.352 OA
HETATM   22  C16 UNL     1      21.319   1.650  48.552  1.00  0.00     0.210 C 
ENDBRANCH   9  21
TORSDOF 4
ENDMDL
MODEL 6
REMARK VINA RESULT:      -5.8      3.632      5.866
REMARK  4 active torsions:
REMARK  status: ('A' for Active; 'I' for Inactive)
REMARK    1  A    between atoms: O1_2  and  C2_3 
REMARK    2  A    between atoms: C4_5  and  N1_6 
REMARK    3  A    between atoms: N1_6  and  C6_8 
REMARK    4  A    between atoms: C15_20  and  O2_21 
ROOT
HETATM    1  C2  UNL     1      24.341   0.888  52.798  1.00  0.00     0.103 A 
HETATM    2  C3  UNL     1      24.946   2.028  52.510  1.00  0.00     0.073 A 
HETATM    3  C4  UNL     1      23.962   2.915  52.096  1.00  0.00     0.182 A 
HETATM    4  N2  UNL     1      23.792   4.303  52.580  1.00  0.00    -0.242 NA
HETATM    5  C12 UNL     1      22.469   4.650  52.532  1.00  0.00     0.230 C 
HETATM    6  N3  UNL     1      21.197   4.040  52.199  1.00  0.00    -0.254 NA
HETATM    7  C13 UNL     1      21.247   2.741  51.914  1.00  0.00     0.132 C 
HETATM    8  C14 UNL     1      22.643   2.351  52.145  1.00  0.00     0.050 A 
HETATM    9  C15 UNL     1      22.914   1.083  52.579  1.00  0.00     0.113 A 
ENDROOT
BRANCH   3  10
HETATM   10  N1  UNL     1      24.283   3.253  50.616  1.00  0.00    -0.350 N 
HETATM   11  C5  UNL     1      23.358   2.416  49.826  1.00  0.00     0.153 C 
BRANCH  10  12
HETATM   12  C6  UNL     1      25.123   4.142  49.914  1.00  0.00     0.032 A 
HETATM   13  C7  UNL     1      24.861   5.436  49.556  1.00  0.00     0.031 A 
HETATM   14  C8  UNL     1      25.711   6.308  48.917  1.00  0.00     0.026 A 
HETATM   15  C9  UNL     1      26.932   5.755  48.639  1.00  0.00     0.034 A 
HETATM   16 CL1  UNL     1      28.145   6.719  47.828  1.00  0.00    -0.084 Cl
HETATM   17  C10 UNL     1      27.268   4.463  48.966  1.00  0.00     0.026 A 
HETATM   18  C11 UNL     1      26.366   3.648  49.606  1.00  0.00     0.031 A 
ENDBRANCH  10  12
ENDBRANCH   3  10
BRANCH   1  19
HETATM   19  O1  UNL     1      25.121  -0.175  53.225  1.00  0.00    -0.353 OA
HETATM   20  C1  UNL     1      25.338  -0.517  54.579  1.00  0.00     0.210 C 
ENDBRANCH   1  19
BRANCH   9  21
HETATM   21  O2  UNL     1      22.144  -0.068  52.863  1.00  0.00    -0.352 OA
HETATM   22  C16 UNL     1      21.620  -0.211  54.191  1.00  0.00     0.210 C 
ENDBRANCH   9  21
TORSDOF 4
ENDMDL
MODEL 7
REMARK VINA RESULT:      -5.7      7.501     10.089
REMARK  4 active torsions:
REMARK  status: ('A' for Active; 'I' for Inactive)
REMARK    1  A    between atoms: O1_2  and  C2_3 
REMARK    2  A    between atoms: C4_5  and  N1_6 
REMARK    3  A    between atoms: N1_6  and  C6_8 
REMARK    4  A    between atoms: C15_20  and  O2_21 
ROOT
HETATM    1  C2  UNL     1      32.483   7.530  46.392  1.00  0.00     0.103 A 
HETATM    2  C3  UNL     1      31.533   8.182  45.741  1.00  0.00     0.073 A 
HETATM    3  C4  UNL     1      30.754   8.821  46.695  1.00  0.00     0.182 A 
HETATM    4  N2  UNL     1      30.340  10.241  46.660  1.00  0.00    -0.242 NA
HETATM    5  C12 UNL     1      30.200  10.712  47.938  1.00  0.00     0.230 C 
HETATM    6  N3  UNL     1      30.389  10.244  49.296  1.00  0.00    -0.254 NA
HETATM    7  C13 UNL     1      30.921   9.029  49.409  1.00  0.00     0.132 C 
HETATM    8  C14 UNL     1      31.228   8.615  48.034  1.00  0.00     0.050 A 
HETATM    9  C15 UNL     1      32.303   7.800  47.812  1.00  0.00     0.113 A 
ENDROOT
BRANCH   3  10
HETATM   10  N1  UNL     1      29.339   8.193  46.587  1.00  0.00    -0.350 N 
HETATM   11  C5  UNL     1      28.777   8.736  45.334  1.00  0.00     0.153 C 
BRANCH  10  12
HETATM   12  C6  UNL     1      28.564   7.257  47.300  1.00  0.00     0.032 A 
HETATM   13  C7  UNL     1      28.961   6.049  47.805  1.00  0.00     0.031 A 
HETATM   14  C8  UNL     1      28.206   5.170  48.544  1.00  0.00     0.026 A 
HETATM   15  C9  UNL     1      26.930   5.614  48.760  1.00  0.00     0.034 A 
HETATM   16 CL1  UNL     1      25.822   4.625  49.685  1.00  0.00    -0.084 Cl
HETATM   17  C10 UNL     1      26.456   6.813  48.285  1.00  0.00     0.026 A 
HETATM   18  C11 UNL     1      27.271   7.643  47.552  1.00  0.00     0.031 A 
ENDBRANCH  10  12
ENDBRANCH   3  10
BRANCH   1  19
HETATM   19  O1  UNL     1      33.392   6.792  45.651  1.00  0.00    -0.353 OA
HETATM   20  C1  UNL     1      33.201   5.448  45.256  1.00  0.00     0.210 C 
ENDBRANCH   1  19
BRANCH   9  21
HETATM   21  O2  UNL     1      33.268   7.165  48.627  1.00  0.00    -0.352 OA
HETATM   22  C16 UNL     1      33.022   5.806  49.017  1.00  0.00     0.210 C 
ENDBRANCH   9  21
TORSDOF 4
ENDMDL
MODEL 8
REMARK VINA RESULT:      -5.7      1.725      2.199
REMARK  4 active torsions:
REMARK  status: ('A' for Active; 'I' for Inactive)
REMARK    1  A    between atoms: O1_2  and  C2_3 
REMARK    2  A    between atoms: C4_5  and  N1_6 
REMARK    3  A    between atoms: N1_6  and  C6_8 
REMARK    4  A    between atoms: C15_20  and  O2_21 
ROOT
HETATM    1  C2  UNL     1      22.173   4.673  48.773  1.00  0.00     0.103 A 
HETATM    2  C3  UNL     1      21.578   3.540  48.437  1.00  0.00     0.073 A 
HETATM    3  C4  UNL     1      20.938   3.067  49.574  1.00  0.00     0.182 A 
HETATM    4  N2  UNL     1      19.536   2.599  49.643  1.00  0.00    -0.242 NA
HETATM    5  C12 UNL     1      19.030   2.840  50.892  1.00  0.00     0.230 C 
HETATM    6  N3  UNL     1      19.448   3.461  52.133  1.00  0.00    -0.254 NA
HETATM    7  C13 UNL     1      20.638   4.055  52.097  1.00  0.00     0.132 C 
HETATM    8  C14 UNL     1      21.084   3.941  50.703  1.00  0.00     0.050 A 
HETATM    9  C15 UNL     1      21.865   4.929  50.173  1.00  0.00     0.113 A 
ENDROOT
BRANCH   3  10
HETATM   10  N1  UNL     1      21.621   1.718  49.922  1.00  0.00    -0.350 N 
HETATM   11  C5  UNL     1      21.627   0.957  48.656  1.00  0.00     0.153 C 
BRANCH  10  12
HETATM   12  C6  UNL     1      22.244   1.130  51.041  1.00  0.00     0.032 A 
HETATM   13  C7  UNL     1      21.736   0.173  51.878  1.00  0.00     0.031 A 
HETATM   14  C8  UNL     1      22.377  -0.429  52.934  1.00  0.00     0.026 A 
HETATM   15  C9  UNL     1      23.655   0.025  53.112  1.00  0.00     0.034 A 
HETATM   16 CL1  UNL     1      24.625  -0.630  54.412  1.00  0.00    -0.084 Cl
HETATM   17  C10 UNL     1      24.234   0.984  52.316  1.00  0.00     0.026 A 
HETATM   18  C11 UNL     1      23.532   1.542  51.274  1.00  0.00     0.031 A 
ENDBRANCH  10  12
ENDBRANCH   3  10
BRANCH   1  19
HETATM   19  O1  UNL     1      22.900   5.341  47.801  1.00  0.00    -0.353 OA
HETATM   20  C1  UNL     1      22.332   6.046  46.716  1.00  0.00     0.210 C 
ENDBRANCH   1  19
BRANCH   9  21
HETATM   21  O2  UNL     1      22.438   6.127  50.660  1.00  0.00    -0.352 OA
HETATM   22  C16 UNL     1      21.614   7.302  50.676  1.00  0.00     0.210 C 
ENDBRANCH   9  21
TORSDOF 4
ENDMDL
MODEL 9
REMARK VINA RESULT:      -5.6      2.736      4.703
REMARK  4 active torsions:
REMARK  status: ('A' for Active; 'I' for Inactive)
REMARK    1  A    between atoms: O1_2  and  C2_3 
REMARK    2  A    between atoms: C4_5  and  N1_6 
REMARK    3  A    between atoms: N1_6  and  C6_8 
REMARK    4  A    between atoms: C15_20  and  O2_21 
ROOT
HETATM    1  C2  UNL     1      18.770   3.941  50.301  1.00  0.00     0.103 A 
HETATM    2  C3  UNL     1      19.894   4.535  50.668  1.00  0.00     0.073 A 
HETATM    3  C4  UNL     1      20.936   3.704  50.281  1.00  0.00     0.182 A 
HETATM    4  N2  UNL     1      22.147   4.125  49.543  1.00  0.00    -0.242 NA
HETATM    5  C12 UNL     1      22.598   3.091  48.768  1.00  0.00     0.230 C 
HETATM    6  N3  UNL     1      22.207   1.738  48.424  1.00  0.00    -0.254 NA
HETATM    7  C13 UNL     1      21.036   1.344  48.918  1.00  0.00     0.132 C 
HETATM    8  C14 UNL     1      20.487   2.524  49.596  1.00  0.00     0.050 A 
HETATM    9  C15 UNL     1      19.131   2.699  49.631  1.00  0.00     0.113 A 
ENDROOT
BRANCH   3  10
HETATM   10  N1  UNL     1      21.639   3.257  51.590  1.00  0.00    -0.350 N 
HETATM   11  C5  UNL     1      22.389   4.446  52.043  1.00  0.00     0.153 C 
BRANCH  10  12
HETATM   12  C6  UNL     1      21.670   2.112  52.411  1.00  0.00     0.032 A 
HETATM   13  C7  UNL     1      20.651   1.588  53.159  1.00  0.00     0.031 A 
HETATM   14  C8  UNL     1      20.681   0.440  53.914  1.00  0.00     0.026 A 
HETATM   15  C9  UNL     1      21.892  -0.196  53.868  1.00  0.00     0.034 A 
HETATM   16 CL1  UNL     1      22.116  -1.679  54.769  1.00  0.00    -0.084 Cl
HETATM   17  C10 UNL     1      22.962   0.267  53.141  1.00  0.00     0.026 A 
HETATM   18  C11 UNL     1      22.858   1.425  52.407  1.00  0.00     0.031 A 
ENDBRANCH  10  12
ENDBRANCH   3  10
BRANCH   1  19
HETATM   19  O1  UNL     1      17.573   4.573  50.593  1.00  0.00    -0.353 OA
HETATM   20  C1  UNL     1      16.685   4.176  51.618  1.00  0.00     0.210 C 
ENDBRANCH   1  19
BRANCH   9  21
HETATM   21  O2  UNL     1      18.012   1.964  49.176  1.00  0.00    -0.352 OA
HETATM   22  C16 UNL     1      17.527   0.902  50.010  1.00  0.00     0.210 C 
ENDBRANCH   9  21
TORSDOF 4
ENDMDL
