MODEL 1
REMARK VINA RESULT:      -9.5      0.000      0.000
REMARK  5 active torsions:
REMARK  status: ('A' for Active; 'I' for Inactive)
REMARK    1  A    between atoms: C5_6  and  C6_7 
REMARK       I    between atoms: C6_7  and  N2_9 
REMARK    2  A    between atoms: N2_9  and  C7_10 
REMARK    3  A    between atoms: C9_12  and  N3_13 
REMARK    4  A    between atoms: N3_13  and  C10_14 
REMARK    5  A    between atoms: C13_18  and  C14_19 
ROOT
HETATM    1  N1  UNL     1      21.514  -1.936  54.586  1.00  0.00    -0.191 NA
HETATM    2  C1  UNL     1      22.254  -1.204  54.049  1.00  0.00     0.099 C 
HETATM    3  C2  UNL     1      23.152  -0.308  53.377  1.00  0.00     0.044 A 
HETATM    4  C3  UNL     1      22.668   0.633  52.492  1.00  0.00     0.024 A 
HETATM    5  C4  UNL     1      23.496   1.514  51.826  1.00  0.00     0.018 A 
HETATM    6  C5  UNL     1      24.861   1.486  52.022  1.00  0.00     0.032 A 
HETATM    7  C21 UNL     1      25.361   0.535  52.919  1.00  0.00     0.018 A 
HETATM    8  C22 UNL     1      24.532  -0.364  53.600  1.00  0.00     0.024 A 
ENDROOT
BRANCH   6   9
HETATM    9  C6  UNL     1      25.846   2.355  51.386  1.00  0.00     0.256 C 
HETATM   10  O1  UNL     1      27.082   2.322  51.638  1.00  0.00    -0.267 OA
HETATM   11  N2  UNL     1      25.436   3.311  50.420  1.00  0.00    -0.323 N 
HETATM   12  H3  UNL     1      24.446   3.440  50.121  1.00  0.00     0.169 HD
BRANCH  11  13
HETATM   13  C7  UNL     1      26.190   4.241  49.684  1.00  0.00     0.033 A 
HETATM   14  C8  UNL     1      27.306   4.230  48.972  1.00  0.00     0.032 A 
HETATM   15  C9  UNL     1      27.606   5.556  48.421  1.00  0.00     0.148 A 
HETATM   16  C19 UNL     1      26.463   6.389  48.930  1.00  0.00     0.005 A 
HETATM   17  C20 UNL     1      25.648   5.614  49.662  1.00  0.00     0.027 A 
BRANCH  15  18
HETATM   18  N3  UNL     1      28.817   6.127  48.920  1.00  0.00    -0.211 N 
HETATM   19  H6  UNL     1      28.932   6.291  49.943  1.00  0.00     0.178 HD
BRANCH  18  20
HETATM   20  C10 UNL     1      29.838   6.455  47.989  1.00  0.00     0.723 A 
HETATM   21  N4  UNL     1      29.738   7.643  47.335  1.00  0.00    -0.075 NA
HETATM   22  C11 UNL     1      30.694   8.005  46.430  1.00  0.00     0.139 A 
HETATM   23  C12 UNL     1      31.727   7.080  46.258  1.00  0.00     0.053 A 
HETATM   24  C13 UNL     1      31.825   5.878  46.923  1.00  0.00     0.089 A 
HETATM   25  N6  UNL     1      30.844   5.582  47.805  1.00  0.00    -0.062 NA
BRANCH  24  26
HETATM   26  C14 UNL     1      32.939   4.969  46.683  1.00  0.00     0.011 A 
HETATM   27  C15 UNL     1      33.722   4.886  45.553  1.00  0.00     0.017 A 
HETATM   28  C16 UNL     1      34.748   3.965  45.480  1.00  0.00     0.020 A 
HETATM   29  C17 UNL     1      35.020   3.109  46.516  1.00  0.00     0.116 A 
HETATM   30  N5  UNL     1      34.268   3.167  47.637  1.00  0.00    -0.272 NA
HETATM   31  C18 UNL     1      33.272   4.070  47.695  1.00  0.00     0.130 A 
ENDBRANCH  24  26
ENDBRANCH  18  20
ENDBRANCH  15  18
ENDBRANCH  11  13
ENDBRANCH   6   9
TORSDOF 5
ENDMDL
MODEL 2
REMARK VINA RESULT:      -9.5      3.203      9.595
REMARK  5 active torsions:
REMARK  status: ('A' for Active; 'I' for Inactive)
REMARK    1  A    between atoms: C5_6  and  C6_7 
REMARK       I    between atoms: C6_7  and  N2_9 
REMARK    2  A    between atoms: N2_9  and  C7_10 
REMARK    3  A    between atoms: C9_12  and  N3_13 
REMARK    4  A    between atoms: N3_13  and  C10_14 
REMARK    5  A    between atoms: C13_18  and  C14_19 
ROOT
HETATM    1  N1  UNL     1      29.915   7.175  47.317  1.00  0.00    -0.191 NA
HETATM    2  C1  UNL     1      28.927   6.695  47.725  1.00  0.00     0.099 C 
HETATM    3  C2  UNL     1      27.712   6.122  48.229  1.00  0.00     0.044 A 
HETATM    4  C3  UNL     1      26.528   6.828  48.170  1.00  0.00     0.024 A 
HETATM    5  C4  UNL     1      25.338   6.315  48.643  1.00  0.00     0.018 A 
HETATM    6  C5  UNL     1      25.285   5.056  49.203  1.00  0.00     0.032 A 
HETATM    7  C21 UNL     1      26.480   4.332  49.267  1.00  0.00     0.018 A 
HETATM    8  C22 UNL     1      27.694   4.842  48.791  1.00  0.00     0.024 A 
ENDROOT
BRANCH   6   9
HETATM    9  C6  UNL     1      24.099   4.395  49.739  1.00  0.00     0.256 C 
HETATM   10  O1  UNL     1      22.981   4.962  49.884  1.00  0.00    -0.267 OA
HETATM   11  N2  UNL     1      24.160   3.034  50.136  1.00  0.00    -0.323 N 
HETATM   12  H3  UNL     1      25.022   2.452  50.068  1.00  0.00     0.169 HD
BRANCH  11  13
HETATM   13  C7  UNL     1      23.165   2.197  50.671  1.00  0.00     0.033 A 
HETATM   14  C8  UNL     1      22.828   1.745  51.868  1.00  0.00     0.032 A 
HETATM   15  C9  UNL     1      21.652   0.870  51.802  1.00  0.00     0.148 A 
HETATM   16  C19 UNL     1      21.329   0.867  50.335  1.00  0.00     0.005 A 
HETATM   17  C20 UNL     1      22.215   1.641  49.689  1.00  0.00     0.027 A 
BRANCH  15  18
HETATM   18  N3  UNL     1      21.915  -0.479  52.193  1.00  0.00    -0.211 N 
HETATM   19  H6  UNL     1      21.461  -1.266  51.683  1.00  0.00     0.178 HD
BRANCH  18  20
HETATM   20  C10 UNL     1      22.802  -0.703  53.280  1.00  0.00     0.723 A 
HETATM   21  N4  UNL     1      22.270  -1.151  54.447  1.00  0.00    -0.075 NA
HETATM   22  C11 UNL     1      23.080  -1.381  55.521  1.00  0.00     0.139 A 
HETATM   23  C12 UNL     1      24.437  -1.124  55.306  1.00  0.00     0.053 A 
HETATM   24  C13 UNL     1      24.972  -0.669  54.121  1.00  0.00     0.089 A 
HETATM   25  N6  UNL     1      24.113  -0.462  53.098  1.00  0.00    -0.062 NA
BRANCH  24  26
HETATM   26  C14 UNL     1      26.402  -0.425  53.981  1.00  0.00     0.011 A 
HETATM   27  C15 UNL     1      27.305  -1.149  53.232  1.00  0.00     0.017 A 
HETATM   28  C16 UNL     1      28.637  -0.787  53.204  1.00  0.00     0.020 A 
HETATM   29  C17 UNL     1      29.105   0.291  53.911  1.00  0.00     0.116 A 
HETATM   30  N5  UNL     1      28.242   1.018  54.654  1.00  0.00    -0.272 NA
HETATM   31  C18 UNL     1      26.946   0.656  54.673  1.00  0.00     0.130 A 
ENDBRANCH  24  26
ENDBRANCH  18  20
ENDBRANCH  15  18
ENDBRANCH  11  13
ENDBRANCH   6   9
TORSDOF 5
ENDMDL
MODEL 3
REMARK VINA RESULT:      -8.9      2.769      9.452
REMARK  5 active torsions:
REMARK  status: ('A' for Active; 'I' for Inactive)
REMARK    1  A    between atoms: C5_6  and  C6_7 
REMARK       I    between atoms: C6_7  and  N2_9 
REMARK    2  A    between atoms: N2_9  and  C7_10 
REMARK    3  A    between atoms: C9_12  and  N3_13 
REMARK    4  A    between atoms: N3_13  and  C10_14 
REMARK    5  A    between atoms: C13_18  and  C14_19 
ROOT
HETATM    1  N1  UNL     1      32.778   7.866  47.155  1.00  0.00    -0.191 NA
HETATM    2  C1  UNL     1      31.686   7.547  47.432  1.00  0.00     0.099 C 
HETATM    3  C2  UNL     1      30.346   7.168  47.781  1.00  0.00     0.044 A 
HETATM    4  C3  UNL     1      29.370   8.127  47.954  1.00  0.00     0.024 A 
HETATM    5  C4  UNL     1      28.071   7.807  48.289  1.00  0.00     0.018 A 
HETATM    6  C5  UNL     1      27.691   6.494  48.468  1.00  0.00     0.032 A 
HETATM    7  C21 UNL     1      28.674   5.512  48.294  1.00  0.00     0.018 A 
HETATM    8  C22 UNL     1      29.995   5.825  47.955  1.00  0.00     0.024 A 
ENDROOT
BRANCH   6   9
HETATM    9  C6  UNL     1      26.358   6.017  48.821  1.00  0.00     0.256 C 
HETATM   10  O1  UNL     1      25.302   6.375  48.231  1.00  0.00    -0.267 OA
HETATM   11  N2  UNL     1      26.189   5.094  49.887  1.00  0.00    -0.323 N 
HETATM   12  H3  UNL     1      26.979   4.719  50.455  1.00  0.00     0.169 HD
BRANCH  11  13
HETATM   13  C7  UNL     1      25.023   4.502  50.402  1.00  0.00     0.033 A 
HETATM   14  C8  UNL     1      24.062   4.842  51.246  1.00  0.00     0.032 A 
HETATM   15  C9  UNL     1      23.072   3.770  51.395  1.00  0.00     0.148 A 
HETATM   16  C19 UNL     1      23.606   2.702  50.483  1.00  0.00     0.005 A 
HETATM   17  C20 UNL     1      24.739   3.140  49.912  1.00  0.00     0.027 A 
BRANCH  15  18
HETATM   18  N3  UNL     1      23.009   3.224  52.714  1.00  0.00    -0.211 N 
HETATM   19  H6  UNL     1      22.621   3.794  53.495  1.00  0.00     0.178 HD
BRANCH  18  20
HETATM   20  C10 UNL     1      23.484   1.900  52.916  1.00  0.00     0.723 A 
HETATM   21  N4  UNL     1      22.572   0.892  52.893  1.00  0.00    -0.075 NA
HETATM   22  C11 UNL     1      22.978  -0.397  53.082  1.00  0.00     0.139 A 
HETATM   23  C12 UNL     1      24.350  -0.563  53.289  1.00  0.00     0.053 A 
HETATM   24  C13 UNL     1      25.271   0.463  53.311  1.00  0.00     0.089 A 
HETATM   25  N6  UNL     1      24.800   1.714  53.117  1.00  0.00    -0.062 NA
BRANCH  24  26
HETATM   26  C14 UNL     1      26.688   0.202  53.534  1.00  0.00     0.011 A 
HETATM   27  C15 UNL     1      27.418  -0.880  53.094  1.00  0.00     0.017 A 
HETATM   28  C16 UNL     1      28.763  -0.982  53.391  1.00  0.00     0.020 A 
HETATM   29  C17 UNL     1      29.412  -0.022  54.124  1.00  0.00     0.116 A 
HETATM   30  N5  UNL     1      28.720   1.050  54.568  1.00  0.00    -0.272 NA
HETATM   31  C18 UNL     1      27.410   1.137  54.272  1.00  0.00     0.130 A 
ENDBRANCH  24  26
ENDBRANCH  18  20
ENDBRANCH  15  18
ENDBRANCH  11  13
ENDBRANCH   6   9
TORSDOF 5
ENDMDL
MODEL 4
REMARK VINA RESULT:      -8.7      1.594      2.595
REMARK  5 active torsions:
REMARK  status: ('A' for Active; 'I' for Inactive)
REMARK    1  A    between atoms: C5_6  and  C6_7 
REMARK       I    between atoms: C6_7  and  N2_9 
REMARK    2  A    between atoms: N2_9  and  C7_10 
REMARK    3  A    between atoms: C9_12  and  N3_13 
REMARK    4  A    between atoms: N3_13  and  C10_14 
REMARK    5  A    between atoms: C13_18  and  C14_19 
ROOT
HETATM    1  N1  UNL     1      22.268  -1.724  55.196  1.00  0.00    -0.191 NA
HETATM    2  C1  UNL     1      22.930  -0.993  54.566  1.00  0.00     0.099 C 
HETATM    3  C2  UNL     1      23.733  -0.100  53.779  1.00  0.00     0.044 A 
HETATM    4  C3  UNL     1      23.163   0.650  52.772  1.00  0.00     0.024 A 
HETATM    5  C4  UNL     1      23.897   1.520  51.992  1.00  0.00     0.018 A 
HETATM    6  C5  UNL     1      25.252   1.676  52.194  1.00  0.00     0.032 A 
HETATM    7  C21 UNL     1      25.840   0.920  53.214  1.00  0.00     0.018 A 
HETATM    8  C22 UNL     1      25.106   0.034  54.011  1.00  0.00     0.024 A 
ENDROOT
BRANCH   6   9
HETATM    9  C6  UNL     1      26.145   2.557  51.447  1.00  0.00     0.256 C 
HETATM   10  O1  UNL     1      27.402   2.537  51.549  1.00  0.00    -0.267 OA
HETATM   11  N2  UNL     1      25.611   3.510  50.540  1.00  0.00    -0.323 N 
HETATM   12  H3  UNL     1      24.591   3.629  50.363  1.00  0.00     0.169 HD
BRANCH  11  13
HETATM   13  C7  UNL     1      26.261   4.450  49.722  1.00  0.00     0.033 A 
HETATM   14  C8  UNL     1      27.391   4.513  49.035  1.00  0.00     0.032 A 
HETATM   15  C9  UNL     1      27.534   5.802  48.350  1.00  0.00     0.148 A 
HETATM   16  C19 UNL     1      26.277   6.525  48.746  1.00  0.00     0.005 A 
HETATM   17  C20 UNL     1      25.547   5.729  49.543  1.00  0.00     0.027 A 
BRANCH  15  18
HETATM   18  N3  UNL     1      28.644   6.577  48.806  1.00  0.00    -0.211 N 
HETATM   19  H6  UNL     1      28.505   7.304  49.540  1.00  0.00     0.178 HD
BRANCH  18  20
HETATM   20  C10 UNL     1      29.919   6.324  48.235  1.00  0.00     0.723 A 
HETATM   21  N4  UNL     1      30.762   5.500  48.911  1.00  0.00    -0.075 NA
HETATM   22  C11 UNL     1      31.999   5.225  48.403  1.00  0.00     0.139 A 
HETATM   23  C12 UNL     1      32.291   5.844  47.185  1.00  0.00     0.053 A 
HETATM   24  C13 UNL     1      31.433   6.679  46.503  1.00  0.00     0.089 A 
HETATM   25  N6  UNL     1      30.224   6.908  47.062  1.00  0.00    -0.062 NA
BRANCH  24  26
HETATM   26  C14 UNL     1      31.817   7.285  45.234  1.00  0.00     0.011 A 
HETATM   27  C15 UNL     1      31.244   8.378  44.621  1.00  0.00     0.017 A 
HETATM   28  C16 UNL     1      31.726   8.833  43.410  1.00  0.00     0.020 A 
HETATM   29  C17 UNL     1      32.781   8.222  42.781  1.00  0.00     0.116 A 
HETATM   30  N5  UNL     1      33.362   7.148  43.359  1.00  0.00    -0.272 NA
HETATM   31  C18 UNL     1      32.882   6.715  44.539  1.00  0.00     0.130 A 
ENDBRANCH  24  26
ENDBRANCH  18  20
ENDBRANCH  15  18
ENDBRANCH  11  13
ENDBRANCH   6   9
TORSDOF 5
ENDMDL
MODEL 5
REMARK VINA RESULT:      -8.7      1.677      1.883
REMARK  5 active torsions:
REMARK  status: ('A' for Active; 'I' for Inactive)
REMARK    1  A    between atoms: C5_6  and  C6_7 
REMARK       I    between atoms: C6_7  and  N2_9 
REMARK    2  A    between atoms: N2_9  and  C7_10 
REMARK    3  A    between atoms: C9_12  and  N3_13 
REMARK    4  A    between atoms: N3_13  and  C10_14 
REMARK    5  A    between atoms: C13_18  and  C14_19 
ROOT
HETATM    1  N1  UNL     1      22.653  -1.750  55.543  1.00  0.00    -0.191 NA
HETATM    2  C1  UNL     1      23.213  -1.050  54.790  1.00  0.00     0.099 C 
HETATM    3  C2  UNL     1      23.886  -0.192  53.856  1.00  0.00     0.044 A 
HETATM    4  C3  UNL     1      23.179   0.745  53.132  1.00  0.00     0.024 A 
HETATM    5  C4  UNL     1      23.786   1.588  52.225  1.00  0.00     0.018 A 
HETATM    6  C5  UNL     1      25.146   1.527  52.003  1.00  0.00     0.032 A 
HETATM    7  C21 UNL     1      25.872   0.580  52.734  1.00  0.00     0.018 A 
HETATM    8  C22 UNL     1      25.267  -0.282  53.657  1.00  0.00     0.024 A 
ENDROOT
BRANCH   6   9
HETATM    9  C6  UNL     1      25.913   2.355  51.078  1.00  0.00     0.256 C 
HETATM   10  O1  UNL     1      26.989   1.989  50.531  1.00  0.00    -0.267 OA
HETATM   11  N2  UNL     1      25.461   3.659  50.746  1.00  0.00    -0.323 N 
HETATM   12  H3  UNL     1      24.588   4.081  51.128  1.00  0.00     0.169 HD
BRANCH  11  13
HETATM   13  C7  UNL     1      26.020   4.626  49.892  1.00  0.00     0.033 A 
HETATM   14  C8  UNL     1      27.143   4.772  49.207  1.00  0.00     0.032 A 
HETATM   15  C9  UNL     1      27.163   6.041  48.471  1.00  0.00     0.148 A 
HETATM   16  C19 UNL     1      25.838   6.651  48.833  1.00  0.00     0.005 A 
HETATM   17  C20 UNL     1      25.185   5.819  49.659  1.00  0.00     0.027 A 
BRANCH  15  18
HETATM   18  N3  UNL     1      28.188   6.940  48.900  1.00  0.00    -0.211 N 
HETATM   19  H6  UNL     1      28.129   7.386  49.839  1.00  0.00     0.178 HD
BRANCH  18  20
HETATM   20  C10 UNL     1      29.269   7.197  48.015  1.00  0.00     0.723 A 
HETATM   21  N4  UNL     1      28.974   7.706  46.789  1.00  0.00    -0.075 NA
HETATM   22  C11 UNL     1      29.977   7.970  45.902  1.00  0.00     0.139 A 
HETATM   23  C12 UNL     1      31.265   7.680  46.360  1.00  0.00     0.053 A 
HETATM   24  C13 UNL     1      31.559   7.164  47.604  1.00  0.00     0.089 A 
HETATM   25  N6  UNL     1      30.518   6.926  48.432  1.00  0.00    -0.062 NA
BRANCH  24  26
HETATM   26  C14 UNL     1      32.934   6.890  48.003  1.00  0.00     0.011 A 
HETATM   27  C15 UNL     1      33.463   5.684  48.407  1.00  0.00     0.017 A 
HETATM   28  C16 UNL     1      34.796   5.587  48.755  1.00  0.00     0.020 A 
HETATM   29  C17 UNL     1      35.630   6.674  48.713  1.00  0.00     0.116 A 
HETATM   30  N5  UNL     1      35.138   7.870  48.321  1.00  0.00    -0.272 NA
HETATM   31  C18 UNL     1      33.838   7.951  47.983  1.00  0.00     0.130 A 
ENDBRANCH  24  26
ENDBRANCH  18  20
ENDBRANCH  15  18
ENDBRANCH  11  13
ENDBRANCH   6   9
TORSDOF 5
ENDMDL
MODEL 6
REMARK VINA RESULT:      -8.6      3.675     10.791
REMARK  5 active torsions:
REMARK  status: ('A' for Active; 'I' for Inactive)
REMARK    1  A    between atoms: C5_6  and  C6_7 
REMARK       I    between atoms: C6_7  and  N2_9 
REMARK    2  A    between atoms: N2_9  and  C7_10 
REMARK    3  A    between atoms: C9_12  and  N3_13 
REMARK    4  A    between atoms: N3_13  and  C10_14 
REMARK    5  A    between atoms: C13_18  and  C14_19 
ROOT
HETATM    1  N1  UNL     1      28.049   9.595  46.893  1.00  0.00    -0.191 NA
HETATM    2  C1  UNL     1      27.737   8.590  47.408  1.00  0.00     0.099 C 
HETATM    3  C2  UNL     1      27.362   7.351  48.027  1.00  0.00     0.044 A 
HETATM    4  C3  UNL     1      28.206   6.261  47.978  1.00  0.00     0.024 A 
HETATM    5  C4  UNL     1      27.885   5.052  48.560  1.00  0.00     0.018 A 
HETATM    6  C5  UNL     1      26.688   4.883  49.223  1.00  0.00     0.032 A 
HETATM    7  C21 UNL     1      25.825   5.983  49.278  1.00  0.00     0.018 A 
HETATM    8  C22 UNL     1      26.139   7.214  48.692  1.00  0.00     0.024 A 
ENDROOT
BRANCH   6   9
HETATM    9  C6  UNL     1      26.224   3.665  49.880  1.00  0.00     0.256 C 
HETATM   10  O1  UNL     1      25.212   3.007  49.512  1.00  0.00    -0.267 OA
HETATM   11  N2  UNL     1      26.922   3.151  51.004  1.00  0.00    -0.323 N 
HETATM   12  H3  UNL     1      27.773   3.597  51.408  1.00  0.00     0.169 HD
BRANCH  11  13
HETATM   13  C7  UNL     1      26.670   2.012  51.789  1.00  0.00     0.033 A 
HETATM   14  C8  UNL     1      25.691   1.131  51.922  1.00  0.00     0.032 A 
HETATM   15  C9  UNL     1      26.007   0.126  52.942  1.00  0.00     0.148 A 
HETATM   16  C19 UNL     1      27.368   0.555  53.415  1.00  0.00     0.005 A 
HETATM   17  C20 UNL     1      27.741   1.651  52.737  1.00  0.00     0.027 A 
BRANCH  15  18
HETATM   18  N3  UNL     1      25.127   0.150  54.068  1.00  0.00    -0.211 N 
HETATM   19  H6  UNL     1      25.489   0.425  55.005  1.00  0.00     0.178 HD
BRANCH  18  20
HETATM   20  C10 UNL     1      23.767  -0.206  53.864  1.00  0.00     0.723 A 
HETATM   21  N4  UNL     1      23.199  -1.063  54.754  1.00  0.00    -0.075 NA
HETATM   22  C11 UNL     1      21.895  -1.436  54.602  1.00  0.00     0.139 A 
HETATM   23  C12 UNL     1      21.242  -0.876  53.501  1.00  0.00     0.053 A 
HETATM   24  C13 UNL     1      21.822  -0.007  52.602  1.00  0.00     0.089 A 
HETATM   25  N6  UNL     1      23.116   0.320  52.812  1.00  0.00    -0.062 NA
BRANCH  24  26
HETATM   26  C14 UNL     1      21.067   0.533  51.478  1.00  0.00     0.011 A 
HETATM   27  C15 UNL     1      21.515   0.736  50.191  1.00  0.00     0.017 A 
HETATM   28  C16 UNL     1      20.671   1.260  49.232  1.00  0.00     0.020 A 
HETATM   29  C17 UNL     1      19.373   1.593  49.522  1.00  0.00     0.116 A 
HETATM   30  N5  UNL     1      18.907   1.405  50.777  1.00  0.00    -0.272 NA
HETATM   31  C18 UNL     1      19.740   0.893  51.701  1.00  0.00     0.130 A 
ENDBRANCH  24  26
ENDBRANCH  18  20
ENDBRANCH  15  18
ENDBRANCH  11  13
ENDBRANCH   6   9
TORSDOF 5
ENDMDL
MODEL 7
REMARK VINA RESULT:      -8.5      1.627      3.180
REMARK  5 active torsions:
REMARK  status: ('A' for Active; 'I' for Inactive)
REMARK    1  A    between atoms: C5_6  and  C6_7 
REMARK       I    between atoms: C6_7  and  N2_9 
REMARK    2  A    between atoms: N2_9  and  C7_10 
REMARK    3  A    between atoms: C9_12  and  N3_13 
REMARK    4  A    between atoms: N3_13  and  C10_14 
REMARK    5  A    between atoms: C13_18  and  C14_19 
ROOT
HETATM    1  N1  UNL     1      21.859  -1.861  55.317  1.00  0.00    -0.191 NA
HETATM    2  C1  UNL     1      22.544  -1.158  54.680  1.00  0.00     0.099 C 
HETATM    3  C2  UNL     1      23.375  -0.297  53.886  1.00  0.00     0.044 A 
HETATM    4  C3  UNL     1      22.813   0.566  52.969  1.00  0.00     0.024 A 
HETATM    5  C4  UNL     1      23.574   1.410  52.186  1.00  0.00     0.018 A 
HETATM    6  C5  UNL     1      24.949   1.423  52.292  1.00  0.00     0.032 A 
HETATM    7  C21 UNL     1      25.529   0.551  53.221  1.00  0.00     0.018 A 
HETATM    8  C22 UNL     1      24.767  -0.310  54.020  1.00  0.00     0.024 A 
ENDROOT
BRANCH   6   9
HETATM    9  C6  UNL     1      25.870   2.261  51.530  1.00  0.00     0.256 C 
HETATM   10  O1  UNL     1      27.126   2.174  51.604  1.00  0.00    -0.267 OA
HETATM   11  N2  UNL     1      25.368   3.246  50.641  1.00  0.00    -0.323 N 
HETATM   12  H3  UNL     1      24.352   3.420  50.487  1.00  0.00     0.169 HD
BRANCH  11  13
HETATM   13  C7  UNL     1      26.048   4.156  49.814  1.00  0.00     0.033 A 
HETATM   14  C8  UNL     1      27.243   4.240  49.250  1.00  0.00     0.032 A 
HETATM   15  C9  UNL     1      27.385   5.472  48.467  1.00  0.00     0.148 A 
HETATM   16  C19 UNL     1      26.049   6.135  48.655  1.00  0.00     0.005 A 
HETATM   17  C20 UNL     1      25.283   5.361  49.439  1.00  0.00     0.027 A 
BRANCH  15  18
HETATM   18  N3  UNL     1      28.386   6.360  48.967  1.00  0.00    -0.211 N 
HETATM   19  H6  UNL     1      28.197   6.933  49.816  1.00  0.00     0.178 HD
BRANCH  18  20
HETATM   20  C10 UNL     1      29.626   6.430  48.276  1.00  0.00     0.723 A 
HETATM   21  N4  UNL     1      30.285   5.265  48.042  1.00  0.00    -0.075 NA
HETATM   22  C11 UNL     1      31.480   5.279  47.383  1.00  0.00     0.139 A 
HETATM   23  C12 UNL     1      31.928   6.545  46.994  1.00  0.00     0.053 A 
HETATM   24  C13 UNL     1      31.256   7.724  47.233  1.00  0.00     0.089 A 
HETATM   25  N6  UNL     1      30.078   7.637  47.891  1.00  0.00    -0.062 NA
BRANCH  24  26
HETATM   26  C14 UNL     1      31.795   9.004  46.793  1.00  0.00     0.011 A 
HETATM   27  C15 UNL     1      31.107  10.044  46.207  1.00  0.00     0.017 A 
HETATM   28  C16 UNL     1      31.766  11.201  45.843  1.00  0.00     0.020 A 
HETATM   29  C17 UNL     1      33.113  11.356  46.050  1.00  0.00     0.116 A 
HETATM   30  N5  UNL     1      33.813  10.352  46.622  1.00  0.00    -0.272 NA
HETATM   31  C18 UNL     1      33.158   9.230  46.972  1.00  0.00     0.130 A 
ENDBRANCH  24  26
ENDBRANCH  18  20
ENDBRANCH  15  18
ENDBRANCH  11  13
ENDBRANCH   6   9
TORSDOF 5
ENDMDL
MODEL 8
REMARK VINA RESULT:      -8.3      2.611      5.037
REMARK  5 active torsions:
REMARK  status: ('A' for Active; 'I' for Inactive)
REMARK    1  A    between atoms: C5_6  and  C6_7 
REMARK       I    between atoms: C6_7  and  N2_9 
REMARK    2  A    between atoms: N2_9  and  C7_10 
REMARK    3  A    between atoms: C9_12  and  N3_13 
REMARK    4  A    between atoms: N3_13  and  C10_14 
REMARK    5  A    between atoms: C13_18  and  C14_19 
ROOT
HETATM    1  N1  UNL     1      22.000  -1.876  54.844  1.00  0.00    -0.191 NA
HETATM    2  C1  UNL     1      22.678  -1.141  54.233  1.00  0.00     0.099 C 
HETATM    3  C2  UNL     1      23.499  -0.244  53.471  1.00  0.00     0.044 A 
HETATM    4  C3  UNL     1      22.938   0.578  52.516  1.00  0.00     0.024 A 
HETATM    5  C4  UNL     1      23.691   1.455  51.763  1.00  0.00     0.018 A 
HETATM    6  C5  UNL     1      25.055   1.545  51.937  1.00  0.00     0.032 A 
HETATM    7  C21 UNL     1      25.634   0.716  52.905  1.00  0.00     0.018 A 
HETATM    8  C22 UNL     1      24.882  -0.179  53.675  1.00  0.00     0.024 A 
ENDROOT
BRANCH   6   9
HETATM    9  C6  UNL     1      25.967   2.425  51.212  1.00  0.00     0.256 C 
HETATM   10  O1  UNL     1      27.217   2.259  51.164  1.00  0.00    -0.267 OA
HETATM   11  N2  UNL     1      25.462   3.547  50.505  1.00  0.00    -0.323 N 
HETATM   12  H3  UNL     1      24.451   3.797  50.465  1.00  0.00     0.169 HD
BRANCH  11  13
HETATM   13  C7  UNL     1      26.134   4.521  49.746  1.00  0.00     0.033 A 
HETATM   14  C8  UNL     1      27.195   4.565  48.955  1.00  0.00     0.032 A 
HETATM   15  C9  UNL     1      27.417   5.914  48.425  1.00  0.00     0.148 A 
HETATM   16  C19 UNL     1      26.291   6.697  49.041  1.00  0.00     0.005 A 
HETATM   17  C20 UNL     1      25.554   5.877  49.805  1.00  0.00     0.027 A 
BRANCH  15  18
HETATM   18  N3  UNL     1      28.644   6.507  48.854  1.00  0.00    -0.211 N 
HETATM   19  H6  UNL     1      29.120   6.156  49.711  1.00  0.00     0.178 HD
BRANCH  18  20
HETATM   20  C10 UNL     1      29.181   7.571  48.080  1.00  0.00     0.723 A 
HETATM   21  N4  UNL     1      30.168   7.272  47.195  1.00  0.00    -0.075 NA
HETATM   22  C11 UNL     1      30.717   8.259  46.428  1.00  0.00     0.139 A 
HETATM   23  C12 UNL     1      30.188   9.535  46.637  1.00  0.00     0.053 A 
HETATM   24  C13 UNL     1      29.187   9.833  47.536  1.00  0.00     0.089 A 
HETATM   25  N6  UNL     1      28.689   8.809  48.262  1.00  0.00    -0.062 NA
BRANCH  24  26
HETATM   26  C14 UNL     1      28.692  11.195  47.691  1.00  0.00     0.011 A 
HETATM   27  C15 UNL     1      28.638  11.939  48.850  1.00  0.00     0.017 A 
HETATM   28  C16 UNL     1      28.137  13.225  48.832  1.00  0.00     0.020 A 
HETATM   29  C17 UNL     1      27.679  13.802  47.675  1.00  0.00     0.116 A 
HETATM   30  N5  UNL     1      27.719  13.096  46.524  1.00  0.00    -0.272 NA
HETATM   31  C18 UNL     1      28.211  11.843  46.555  1.00  0.00     0.130 A 
ENDBRANCH  24  26
ENDBRANCH  18  20
ENDBRANCH  15  18
ENDBRANCH  11  13
ENDBRANCH   6   9
TORSDOF 5
ENDMDL
MODEL 9
REMARK VINA RESULT:      -8.1      7.100     14.372
REMARK  5 active torsions:
REMARK  status: ('A' for Active; 'I' for Inactive)
REMARK    1  A    between atoms: C5_6  and  C6_7 
REMARK       I    between atoms: C6_7  and  N2_9 
REMARK    2  A    between atoms: N2_9  and  C7_10 
REMARK    3  A    between atoms: C9_12  and  N3_13 
REMARK    4  A    between atoms: N3_13  and  C10_14 
REMARK    5  A    between atoms: C13_18  and  C14_19 
ROOT
HETATM    1  N1  UNL     1      28.956  -0.932  53.722  1.00  0.00    -0.191 NA
HETATM    2  C1  UNL     1      27.855  -0.603  53.496  1.00  0.00     0.099 C 
HETATM    3  C2  UNL     1      26.511  -0.185  53.219  1.00  0.00     0.044 A 
HETATM    4  C3  UNL     1      26.267   0.843  52.331  1.00  0.00     0.024 A 
HETATM    5  C4  UNL     1      24.991   1.276  52.035  1.00  0.00     0.018 A 
HETATM    6  C5  UNL     1      23.892   0.689  52.625  1.00  0.00     0.032 A 
HETATM    7  C21 UNL     1      24.128  -0.355  53.526  1.00  0.00     0.018 A 
HETATM    8  C22 UNL     1      25.418  -0.803  53.835  1.00  0.00     0.024 A 
ENDROOT
BRANCH   6   9
HETATM    9  C6  UNL     1      22.494   1.047  52.403  1.00  0.00     0.256 C 
HETATM   10  O1  UNL     1      22.032   2.211  52.554  1.00  0.00    -0.267 OA
HETATM   11  N2  UNL     1      21.561   0.059  51.994  1.00  0.00    -0.323 N 
HETATM   12  H3  UNL     1      21.813  -0.940  51.834  1.00  0.00     0.169 HD
BRANCH  11  13
HETATM   13  C7  UNL     1      20.186   0.163  51.723  1.00  0.00     0.033 A 
HETATM   14  C8  UNL     1      19.428   0.675  50.766  1.00  0.00     0.032 A 
HETATM   15  C9  UNL     1      18.002   0.470  51.041  1.00  0.00     0.148 A 
HETATM   16  C19 UNL     1      18.023  -0.266  52.350  1.00  0.00     0.005 A 
HETATM   17  C20 UNL     1      19.297  -0.438  52.736  1.00  0.00     0.027 A 
BRANCH  15  18
HETATM   18  N3  UNL     1      17.273   1.683  51.234  1.00  0.00    -0.211 N 
HETATM   19  H6  UNL     1      17.782   2.573  51.418  1.00  0.00     0.178 HD
BRANCH  18  20
HETATM   20  C10 UNL     1      15.855   1.632  51.168  1.00  0.00     0.723 A 
HETATM   21  N4  UNL     1      15.282   1.576  49.937  1.00  0.00    -0.075 NA
HETATM   22  C11 UNL     1      13.923   1.525  49.820  1.00  0.00     0.139 A 
HETATM   23  C12 UNL     1      13.223   1.534  51.029  1.00  0.00     0.053 A 
HETATM   24  C13 UNL     1      13.808   1.591  52.275  1.00  0.00     0.089 A 
HETATM   25  N6  UNL     1      15.157   1.639  52.318  1.00  0.00    -0.062 NA
BRANCH  24  26
HETATM   26  C14 UNL     1      13.001   1.596  53.489  1.00  0.00     0.011 A 
HETATM   27  C15 UNL     1      12.649   0.513  54.264  1.00  0.00     0.017 A 
HETATM   28  C16 UNL     1      11.874   0.685  55.394  1.00  0.00     0.020 A 
HETATM   29  C17 UNL     1      11.432   1.924  55.781  1.00  0.00     0.116 A 
HETATM   30  N5  UNL     1      11.762   3.004  55.039  1.00  0.00    -0.272 NA
HETATM   31  C18 UNL     1      12.518   2.823  53.941  1.00  0.00     0.130 A 
ENDBRANCH  24  26
ENDBRANCH  18  20
ENDBRANCH  15  18
ENDBRANCH  11  13
ENDBRANCH   6   9
TORSDOF 5
ENDMDL
