MODEL 1
REMARK VINA RESULT:     -10.2      0.000      0.000
REMARK  0 active torsions:
REMARK  status: ('A' for Active; 'I' for Inactive)
ROOT
HETATM    1  C1  UNL     1      26.536   4.482  49.136  1.00  0.00     0.071 C 
HETATM    2  C2  UNL     1      26.353   3.887  50.398  1.00  0.00     0.329 C 
HETATM    3  O1  UNL     1      26.799   2.426  50.454  1.00  0.00    -0.318 OA
HETATM    4  C3  UNL     1      25.875   1.850  51.435  1.00  0.00     0.111 A 
HETATM    5  C4  UNL     1      24.671   2.591  51.659  1.00  0.00     0.338 A 
HETATM    6  C5  UNL     1      23.769   3.149  51.826  1.00  0.00     0.160 A 
HETATM    7  C6  UNL     1      24.120   1.788  52.509  1.00  0.00     0.097 A 
HETATM    8  C7  UNL     1      24.705   0.577  52.958  1.00  0.00     0.028 A 
HETATM    9  C8  UNL     1      24.713  -0.537  53.652  1.00  0.00     0.134 A 
HETATM   10  N1  UNL     1      25.774  -1.306  53.528  1.00  0.00    -0.224 NA
HETATM   11  C9  UNL     1      26.871  -1.138  52.791  1.00  0.00     0.236 A 
HETATM   12  N2  UNL     1      26.976  -0.001  52.009  1.00  0.00    -0.239 NA
HETATM   13  C10 UNL     1      25.837   0.741  52.196  1.00  0.00     0.100 A 
HETATM   14  N3  UNL     1      23.569  -0.821  54.391  1.00  0.00    -0.372 N 
HETATM   15  C11 UNL     1      22.261  -0.372  54.685  1.00  0.00     0.146 C 
HETATM   16  C12 UNL     1      21.308  -0.236  53.582  1.00  0.00     0.128 A 
HETATM   17  C13 UNL     1      20.256  -0.401  52.835  1.00  0.00    -0.005 A 
HETATM   18 CL1  UNL     1      20.162  -1.421  54.242  1.00  0.00    -0.179 Cl
HETATM   19  C14 UNL     1      19.459  -0.074  51.674  1.00  0.00     0.021 C 
HETATM   20  C15 UNL     1      20.146   0.913  51.031  1.00  0.00     0.055 C 
HETATM   21  C16 UNL     1      19.694   1.567  49.765  1.00  0.00    -0.016 C 
HETATM   22  C17 UNL     1      20.537   2.518  49.331  1.00  0.00    -0.051 C 
HETATM   23  C18 UNL     1      20.373   3.344  48.115  1.00  0.00     0.038 C 
HETATM   24  C19 UNL     1      20.003   4.743  48.637  1.00  0.00     0.034 C 
HETATM   25  C20 UNL     1      21.189   5.245  49.413  1.00  0.00     0.271 C 
HETATM   26  N4  UNL     1      21.775   4.344  50.336  1.00  0.00     0.092 N 
HETATM   27  C21 UNL     1      21.825   2.963  50.017  1.00  0.00     0.250 C 
HETATM   28  C22 UNL     1      23.040   2.568  49.265  1.00  0.00     0.068 C 
HETATM   29  C23 UNL     1      24.170   3.533  49.296  1.00  0.00     0.244 C 
HETATM   30  N5  UNL     1      24.853   3.559  50.686  1.00  0.00    -0.022 N 
HETATM   31  H8  UNL     1      23.762  -1.721  54.939  1.00  0.00     0.161 HD
HETATM   32  H21 UNL     1      21.368   4.522  51.300  1.00  0.00     0.316 HD
ENDROOT
TORSDOF 0
ENDMDL
MODEL 2
REMARK VINA RESULT:      -9.9      2.847      5.122
REMARK  0 active torsions:
REMARK  status: ('A' for Active; 'I' for Inactive)
ROOT
HETATM    1  C1  UNL     1      21.046  -1.471  54.207  1.00  0.00     0.071 C 
HETATM    2  C2  UNL     1      22.220  -1.204  53.480  1.00  0.00     0.329 C 
HETATM    3  O1  UNL     1      23.307  -0.518  54.306  1.00  0.00    -0.318 OA
HETATM    4  C3  UNL     1      23.990   0.310  53.308  1.00  0.00     0.111 A 
HETATM    5  C4  UNL     1      23.244   0.583  52.118  1.00  0.00     0.338 A 
HETATM    6  C5  UNL     1      22.682   0.787  51.225  1.00  0.00     0.160 A 
HETATM    7  C6  UNL     1      24.113   1.337  51.528  1.00  0.00     0.097 A 
HETATM    8  C7  UNL     1      25.379   1.671  52.072  1.00  0.00     0.028 A 
HETATM    9  C8  UNL     1      26.539   2.285  52.057  1.00  0.00     0.134 A 
HETATM   10  N1  UNL     1      27.318   2.107  53.103  1.00  0.00    -0.224 NA
HETATM   11  C9  UNL     1      27.118   1.390  54.207  1.00  0.00     0.236 A 
HETATM   12  N2  UNL     1      25.925   0.701  54.342  1.00  0.00    -0.239 NA
HETATM   13  C10 UNL     1      25.177   0.938  53.217  1.00  0.00     0.100 A 
HETATM   14  N3  UNL     1      26.793   3.114  50.968  1.00  0.00    -0.372 N 
HETATM   15  C11 UNL     1      26.231   3.647  49.786  1.00  0.00     0.146 C 
HETATM   16  C12 UNL     1      25.011   4.449  49.895  1.00  0.00     0.128 A 
HETATM   17  C13 UNL     1      24.184   5.450  49.824  1.00  0.00    -0.005 A 
HETATM   18 CL1  UNL     1      25.750   5.917  49.224  1.00  0.00    -0.179 Cl
HETATM   19  C14 UNL     1      22.868   6.024  49.991  1.00  0.00     0.021 C 
HETATM   20  C15 UNL     1      22.086   5.006  50.449  1.00  0.00     0.055 C 
HETATM   21  C16 UNL     1      20.630   5.139  50.765  1.00  0.00    -0.016 C 
HETATM   22  C17 UNL     1      20.075   3.993  51.192  1.00  0.00    -0.051 C 
HETATM   23  C18 UNL     1      18.662   3.796  51.583  1.00  0.00     0.038 C 
HETATM   24  C19 UNL     1      18.048   2.976  50.435  1.00  0.00     0.034 C 
HETATM   25  C20 UNL     1      18.744   1.644  50.433  1.00  0.00     0.271 C 
HETATM   26  N4  UNL     1      20.156   1.662  50.530  1.00  0.00     0.092 N 
HETATM   27  C21 UNL     1      20.781   2.647  51.336  1.00  0.00     0.250 C 
HETATM   28  C22 UNL     1      20.953   2.240  52.751  1.00  0.00     0.068 C 
HETATM   29  C23 UNL     1      20.826   0.786  53.033  1.00  0.00     0.244 C 
HETATM   30  N5  UNL     1      22.048  -0.001  52.498  1.00  0.00    -0.022 N 
HETATM   31  H8  UNL     1      27.792   3.484  51.079  1.00  0.00     0.161 HD
HETATM   32  H21 UNL     1      20.572   1.614  49.555  1.00  0.00     0.316 HD
ENDROOT
TORSDOF 0
ENDMDL
MODEL 3
REMARK VINA RESULT:      -9.5      2.742      5.213
REMARK  0 active torsions:
REMARK  status: ('A' for Active; 'I' for Inactive)
ROOT
HETATM    1  C1  UNL     1      17.383  -0.312  52.460  1.00  0.00     0.071 C 
HETATM    2  C2  UNL     1      18.695  -0.813  52.379  1.00  0.00     0.329 C 
HETATM    3  O1  UNL     1      19.446  -0.776  53.710  1.00  0.00    -0.318 OA
HETATM    4  C3  UNL     1      20.833  -0.566  53.287  1.00  0.00     0.111 A 
HETATM    5  C4  UNL     1      21.003  -0.034  51.969  1.00  0.00     0.338 A 
HETATM    6  C5  UNL     1      21.127   0.366  50.980  1.00  0.00     0.160 A 
HETATM    7  C6  UNL     1      22.293   0.049  51.972  1.00  0.00     0.097 A 
HETATM    8  C7  UNL     1      23.115  -0.330  53.063  1.00  0.00     0.028 A 
HETATM    9  C8  UNL     1      24.269  -0.472  53.671  1.00  0.00     0.134 A 
HETATM   10  N1  UNL     1      24.241  -0.956  54.894  1.00  0.00    -0.224 NA
HETATM   11  C9  UNL     1      23.205  -1.334  55.641  1.00  0.00     0.236 A 
HETATM   12  N2  UNL     1      21.931  -1.227  55.110  1.00  0.00    -0.239 NA
HETATM   13  C10 UNL     1      22.050  -0.718  53.842  1.00  0.00     0.100 A 
HETATM   14  N3  UNL     1      25.395  -0.029  52.983  1.00  0.00    -0.372 N 
HETATM   15  C11 UNL     1      25.829   0.615  51.803  1.00  0.00     0.146 C 
HETATM   16  C12 UNL     1      25.339   1.967  51.526  1.00  0.00     0.128 A 
HETATM   17  C13 UNL     1      25.317   3.247  51.300  1.00  0.00    -0.005 A 
HETATM   18 CL1  UNL     1      26.954   2.705  51.540  1.00  0.00    -0.179 Cl
HETATM   19  C14 UNL     1      24.611   4.470  50.989  1.00  0.00     0.021 C 
HETATM   20  C15 UNL     1      23.304   4.108  50.856  1.00  0.00     0.055 C 
HETATM   21  C16 UNL     1      22.196   5.058  50.531  1.00  0.00    -0.016 C 
HETATM   22  C17 UNL     1      20.996   4.460  50.445  1.00  0.00    -0.051 C 
HETATM   23  C18 UNL     1      19.709   5.122  50.139  1.00  0.00     0.038 C 
HETATM   24  C19 UNL     1      19.372   4.682  48.704  1.00  0.00     0.034 C 
HETATM   25  C20 UNL     1      19.159   3.194  48.745  1.00  0.00     0.271 C 
HETATM   26  N4  UNL     1      20.125   2.431  49.445  1.00  0.00     0.092 N 
HETATM   27  C21 UNL     1      20.715   2.970  50.616  1.00  0.00     0.250 C 
HETATM   28  C22 UNL     1      19.963   2.668  51.857  1.00  0.00     0.068 C 
HETATM   29  C23 UNL     1      18.971   1.565  51.768  1.00  0.00     0.244 C 
HETATM   30  N5  UNL     1      19.668   0.185  51.673  1.00  0.00    -0.022 N 
HETATM   31  H8  UNL     1      26.248  -0.271  53.585  1.00  0.00     0.161 HD
HETATM   32  H21 UNL     1      20.848   2.070  48.757  1.00  0.00     0.316 HD
ENDROOT
TORSDOF 0
ENDMDL
MODEL 4
REMARK VINA RESULT:      -9.4      3.564      7.812
REMARK  0 active torsions:
REMARK  status: ('A' for Active; 'I' for Inactive)
ROOT
HETATM    1  C1  UNL     1      20.409   1.390  52.938  1.00  0.00     0.071 C 
HETATM    2  C2  UNL     1      20.371   2.776  52.698  1.00  0.00     0.329 C 
HETATM    3  O1  UNL     1      19.743   3.146  51.354  1.00  0.00    -0.318 OA
HETATM    4  C3  UNL     1      20.471   4.365  50.989  1.00  0.00     0.111 A 
HETATM    5  C4  UNL     1      21.723   4.560  51.655  1.00  0.00     0.338 A 
HETATM    6  C5  UNL     1      22.663   4.704  52.155  1.00  0.00     0.160 A 
HETATM    7  C6  UNL     1      22.070   5.660  51.070  1.00  0.00     0.097 A 
HETATM    8  C7  UNL     1      21.292   6.320  50.085  1.00  0.00     0.028 A 
HETATM    9  C8  UNL     1      21.066   7.271  49.210  1.00  0.00     0.134 A 
HETATM   10  N1  UNL     1      19.940   7.200  48.533  1.00  0.00    -0.224 NA
HETATM   11  C9  UNL     1      18.964   6.295  48.588  1.00  0.00     0.236 A 
HETATM   12  N2  UNL     1      19.090   5.237  49.472  1.00  0.00    -0.239 NA
HETATM   13  C10 UNL     1      20.283   5.387  50.133  1.00  0.00     0.100 A 
HETATM   14  N3  UNL     1      22.074   8.215  49.040  1.00  0.00    -0.372 N 
HETATM   15  C11 UNL     1      23.385   8.567  49.435  1.00  0.00     0.146 C 
HETATM   16  C12 UNL     1      24.468   7.616  49.178  1.00  0.00     0.128 A 
HETATM   17  C13 UNL     1      25.570   7.097  48.722  1.00  0.00    -0.005 A 
HETATM   18 CL1  UNL     1      25.374   8.719  48.124  1.00  0.00    -0.179 Cl
HETATM   19  C14 UNL     1      26.529   6.017  48.647  1.00  0.00     0.021 C 
HETATM   20  C15 UNL     1      26.047   5.049  49.476  1.00  0.00     0.055 C 
HETATM   21  C16 UNL     1      26.720   3.735  49.715  1.00  0.00    -0.016 C 
HETATM   22  C17 UNL     1      26.057   2.951  50.581  1.00  0.00    -0.051 C 
HETATM   23  C18 UNL     1      26.459   1.599  51.024  1.00  0.00     0.038 C 
HETATM   24  C19 UNL     1      26.937   1.786  52.474  1.00  0.00     0.034 C 
HETATM   25  C20 UNL     1      25.741   2.225  53.272  1.00  0.00     0.271 C 
HETATM   26  N4  UNL     1      24.947   3.257  52.714  1.00  0.00     0.092 N 
HETATM   27  C21 UNL     1      24.763   3.304  51.309  1.00  0.00     0.250 C 
HETATM   28  C22 UNL     1      23.603   2.515  50.832  1.00  0.00     0.068 C 
HETATM   29  C23 UNL     1      22.605   2.130  51.864  1.00  0.00     0.244 C 
HETATM   30  N5  UNL     1      21.775   3.353  52.330  1.00  0.00    -0.022 N 
HETATM   31  H8  UNL     1      21.709   8.945  48.346  1.00  0.00     0.161 HD
HETATM   32  H21 UNL     1      25.259   4.189  53.113  1.00  0.00     0.316 HD
ENDROOT
TORSDOF 0
ENDMDL
MODEL 5
REMARK VINA RESULT:      -9.3      3.060      7.162
REMARK  0 active torsions:
REMARK  status: ('A' for Active; 'I' for Inactive)
ROOT
HETATM    1  C1  UNL     1      21.435  -0.586  53.903  1.00  0.00     0.071 C 
HETATM    2  C2  UNL     1      20.912   0.635  53.438  1.00  0.00     0.329 C 
HETATM    3  O1  UNL     1      20.261   0.534  52.058  1.00  0.00    -0.318 OA
HETATM    4  C3  UNL     1      20.517   1.859  51.489  1.00  0.00     0.111 A 
HETATM    5  C4  UNL     1      21.581   2.598  52.098  1.00  0.00     0.338 A 
HETATM    6  C5  UNL     1      22.380   3.151  52.557  1.00  0.00     0.160 A 
HETATM    7  C6  UNL     1      21.536   3.641  51.336  1.00  0.00     0.097 A 
HETATM    8  C7  UNL     1      20.623   3.809  50.264  1.00  0.00     0.028 A 
HETATM    9  C8  UNL     1      20.113   4.461  49.247  1.00  0.00     0.134 A 
HETATM   10  N1  UNL     1      19.122   3.880  48.604  1.00  0.00    -0.224 NA
HETATM   11  C9  UNL     1      18.536   2.703  48.820  1.00  0.00     0.236 A 
HETATM   12  N2  UNL     1      18.992   1.918  49.865  1.00  0.00    -0.239 NA
HETATM   13  C10 UNL     1      20.017   2.593  50.478  1.00  0.00     0.100 A 
HETATM   14  N3  UNL     1      20.720   5.668  48.911  1.00  0.00    -0.372 N 
HETATM   15  C11 UNL     1      21.795   6.529  49.226  1.00  0.00     0.146 C 
HETATM   16  C12 UNL     1      23.159   6.009  49.118  1.00  0.00     0.128 A 
HETATM   17  C13 UNL     1      24.395   5.860  48.742  1.00  0.00    -0.005 A 
HETATM   18 CL1  UNL     1      23.658   7.184  47.885  1.00  0.00    -0.179 Cl
HETATM   19  C14 UNL     1      25.681   5.206  48.834  1.00  0.00     0.021 C 
HETATM   20  C15 UNL     1      25.541   4.273  49.817  1.00  0.00     0.055 C 
HETATM   21  C16 UNL     1      26.629   3.349  50.263  1.00  0.00    -0.016 C 
HETATM   22  C17 UNL     1      26.250   2.525  51.254  1.00  0.00    -0.051 C 
HETATM   23  C18 UNL     1      27.091   1.500  51.910  1.00  0.00     0.038 C 
HETATM   24  C19 UNL     1      27.397   2.076  53.303  1.00  0.00     0.034 C 
HETATM   25  C20 UNL     1      26.085   2.171  54.031  1.00  0.00     0.271 C 
HETATM   26  N4  UNL     1      25.001   2.741  53.320  1.00  0.00     0.092 N 
HETATM   27  C21 UNL     1      24.882   2.495  51.929  1.00  0.00     0.250 C 
HETATM   28  C22 UNL     1      24.109   1.273  51.603  1.00  0.00     0.068 C 
HETATM   29  C23 UNL     1      23.267   0.721  52.696  1.00  0.00     0.244 C 
HETATM   30  N5  UNL     1      22.031   1.616  52.963  1.00  0.00    -0.022 N 
HETATM   31  H8  UNL     1      20.152   6.095  48.110  1.00  0.00     0.161 HD
HETATM   32  H21 UNL     1      24.937   3.774  53.556  1.00  0.00     0.316 HD
ENDROOT
TORSDOF 0
ENDMDL
MODEL 6
REMARK VINA RESULT:      -9.2      2.767      5.268
REMARK  0 active torsions:
REMARK  status: ('A' for Active; 'I' for Inactive)
ROOT
HETATM    1  C1  UNL     1      17.433   1.711  49.433  1.00  0.00     0.071 C 
HETATM    2  C2  UNL     1      18.449   0.886  49.951  1.00  0.00     0.329 C 
HETATM    3  O1  UNL     1      18.663   1.053  51.455  1.00  0.00    -0.318 OA
HETATM    4  C3  UNL     1      20.097   0.791  51.603  1.00  0.00     0.111 A 
HETATM    5  C4  UNL     1      20.875   0.922  50.409  1.00  0.00     0.338 A 
HETATM    6  C5  UNL     1      21.457   1.022  49.511  1.00  0.00     0.160 A 
HETATM    7  C6  UNL     1      22.035   0.670  50.920  1.00  0.00     0.097 A 
HETATM    8  C7  UNL     1      22.257   0.371  52.288  1.00  0.00     0.028 A 
HETATM    9  C8  UNL     1      23.016   0.091  53.321  1.00  0.00     0.134 A 
HETATM   10  N1  UNL     1      22.410  -0.055  54.480  1.00  0.00    -0.224 NA
HETATM   11  C9  UNL     1      21.118   0.040  54.789  1.00  0.00     0.236 A 
HETATM   12  N2  UNL     1      20.217   0.337  53.782  1.00  0.00    -0.239 NA
HETATM   13  C10 UNL     1      20.925   0.472  52.614  1.00  0.00     0.100 A 
HETATM   14  N3  UNL     1      24.388   0.048  53.094  1.00  0.00    -0.372 N 
HETATM   15  C11 UNL     1      25.389   0.250  52.117  1.00  0.00     0.146 C 
HETATM   16  C12 UNL     1      25.501   1.572  51.498  1.00  0.00     0.128 A 
HETATM   17  C13 UNL     1      25.983   2.720  51.121  1.00  0.00    -0.005 A 
HETATM   18 CL1  UNL     1      27.159   1.851  52.066  1.00  0.00    -0.179 Cl
HETATM   19  C14 UNL     1      25.874   3.968  50.400  1.00  0.00     0.021 C 
HETATM   20  C15 UNL     1      24.651   3.932  49.800  1.00  0.00     0.055 C 
HETATM   21  C16 UNL     1      24.103   5.025  48.939  1.00  0.00    -0.016 C 
HETATM   22  C17 UNL     1      22.881   4.754  48.454  1.00  0.00    -0.051 C 
HETATM   23  C18 UNL     1      22.073   5.628  47.575  1.00  0.00     0.038 C 
HETATM   24  C19 UNL     1      22.124   4.951  46.194  1.00  0.00     0.034 C 
HETATM   25  C20 UNL     1      21.431   3.625  46.334  1.00  0.00     0.271 C 
HETATM   26  N4  UNL     1      21.787   2.835  47.455  1.00  0.00     0.092 N 
HETATM   27  C21 UNL     1      22.082   3.474  48.685  1.00  0.00     0.250 C 
HETATM   28  C22 UNL     1      20.895   3.688  49.546  1.00  0.00     0.068 C 
HETATM   29  C23 UNL     1      19.688   2.890  49.206  1.00  0.00     0.244 C 
HETATM   30  N5  UNL     1      19.876   1.397  49.576  1.00  0.00    -0.022 N 
HETATM   31  H8  UNL     1      24.851  -0.249  54.014  1.00  0.00     0.161 HD
HETATM   32  H21 UNL     1      22.539   2.144  47.167  1.00  0.00     0.316 HD
ENDROOT
TORSDOF 0
ENDMDL
MODEL 7
REMARK VINA RESULT:      -9.1      7.816     11.562
REMARK  0 active torsions:
REMARK  status: ('A' for Active; 'I' for Inactive)
ROOT
HETATM    1  C1  UNL     1      26.726  12.777  48.060  1.00  0.00     0.071 C 
HETATM    2  C2  UNL     1      28.090  12.549  48.322  1.00  0.00     0.329 C 
HETATM    3  O1  UNL     1      28.960  12.546  47.064  1.00  0.00    -0.318 OA
HETATM    4  C3  UNL     1      30.016  11.591  47.412  1.00  0.00     0.111 A 
HETATM    5  C4  UNL     1      29.707  10.689  48.479  1.00  0.00     0.338 A 
HETATM    6  C5  UNL     1      29.472  10.012  49.280  1.00  0.00     0.160 A 
HETATM    7  C6  UNL     1      30.806  10.009  48.466  1.00  0.00     0.097 A 
HETATM    8  C7  UNL     1      31.882  10.249  47.574  1.00  0.00     0.028 A 
HETATM    9  C8  UNL     1      33.064   9.994  47.065  1.00  0.00     0.134 A 
HETATM   10  N1  UNL     1      33.461  10.762  46.072  1.00  0.00    -0.224 NA
HETATM   11  C9  UNL     1      32.843  11.783  45.480  1.00  0.00     0.236 A 
HETATM   12  N2  UNL     1      31.584  12.145  45.928  1.00  0.00    -0.239 NA
HETATM   13  C10 UNL     1      31.248  11.300  46.956  1.00  0.00     0.100 A 
HETATM   14  N3  UNL     1      33.743   8.893  47.580  1.00  0.00    -0.372 N 
HETATM   15  C11 UNL     1      33.640   7.812  48.484  1.00  0.00     0.146 C 
HETATM   16  C12 UNL     1      32.563   6.840  48.287  1.00  0.00     0.128 A 
HETATM   17  C13 UNL     1      31.937   5.720  48.073  1.00  0.00    -0.005 A 
HETATM   18 CL1  UNL     1      33.659   5.464  48.049  1.00  0.00    -0.179 Cl
HETATM   19  C14 UNL     1      30.722   4.948  47.948  1.00  0.00     0.021 C 
HETATM   20  C15 UNL     1      29.709   5.831  48.177  1.00  0.00     0.055 C 
HETATM   21  C16 UNL     1      28.257   5.473  48.152  1.00  0.00    -0.016 C 
HETATM   22  C17 UNL     1      27.451   6.514  48.416  1.00  0.00    -0.051 C 
HETATM   23  C18 UNL     1      25.973   6.486  48.466  1.00  0.00     0.038 C 
HETATM   24  C19 UNL     1      25.629   6.599  49.961  1.00  0.00     0.034 C 
HETATM   25  C20 UNL     1      26.107   7.949  50.416  1.00  0.00     0.271 C 
HETATM   26  N4  UNL     1      27.414   8.328  50.024  1.00  0.00     0.092 N 
HETATM   27  C21 UNL     1      27.893   7.936  48.748  1.00  0.00     0.250 C 
HETATM   28  C22 UNL     1      27.576   8.901  47.669  1.00  0.00     0.068 C 
HETATM   29  C23 UNL     1      27.175  10.263  48.107  1.00  0.00     0.244 C 
HETATM   30  N5  UNL     1      28.385  11.054  48.667  1.00  0.00    -0.022 N 
HETATM   31  H8  UNL     1      34.703   8.863  47.105  1.00  0.00     0.161 HD
HETATM   32  H21 UNL     1      28.094   8.087  50.802  1.00  0.00     0.316 HD
ENDROOT
TORSDOF 0
ENDMDL
MODEL 8
REMARK VINA RESULT:      -9.1      2.261      4.127
REMARK  0 active torsions:
REMARK  status: ('A' for Active; 'I' for Inactive)
ROOT
HETATM    1  C1  UNL     1      20.800   6.807  48.154  1.00  0.00     0.071 C 
HETATM    2  C2  UNL     1      21.843   6.588  49.074  1.00  0.00     0.329 C 
HETATM    3  O1  UNL     1      23.082   5.946  48.449  1.00  0.00    -0.318 OA
HETATM    4  C3  UNL     1      23.616   5.147  49.555  1.00  0.00     0.111 A 
HETATM    5  C4  UNL     1      22.689   4.843  50.603  1.00  0.00     0.338 A 
HETATM    6  C5  UNL     1      21.991   4.617  51.388  1.00  0.00     0.160 A 
HETATM    7  C6  UNL     1      23.474   4.126  51.338  1.00  0.00     0.097 A 
HETATM    8  C7  UNL     1      24.827   3.842  51.020  1.00  0.00     0.028 A 
HETATM    9  C8  UNL     1      25.990   3.276  51.237  1.00  0.00     0.134 A 
HETATM   10  N1  UNL     1      26.929   3.485  50.338  1.00  0.00    -0.224 NA
HETATM   11  C9  UNL     1      26.892   4.193  49.211  1.00  0.00     0.236 A 
HETATM   12  N2  UNL     1      25.714   4.834  48.870  1.00  0.00    -0.239 NA
HETATM   13  C10 UNL     1      24.794   4.567  49.853  1.00  0.00     0.100 A 
HETATM   14  N3  UNL     1      26.087   2.458  52.359  1.00  0.00    -0.372 N 
HETATM   15  C11 UNL     1      25.353   1.903  53.431  1.00  0.00     0.146 C 
HETATM   16  C12 UNL     1      24.203   1.053  53.121  1.00  0.00     0.128 A 
HETATM   17  C13 UNL     1      23.416   0.019  53.057  1.00  0.00    -0.005 A 
HETATM   18 CL1  UNL     1      24.874  -0.385  53.918  1.00  0.00    -0.179 Cl
HETATM   19  C14 UNL     1      22.171  -0.608  52.672  1.00  0.00     0.021 C 
HETATM   20  C15 UNL     1      21.439   0.378  52.080  1.00  0.00     0.055 C 
HETATM   21  C16 UNL     1      20.066   0.187  51.521  1.00  0.00    -0.016 C 
HETATM   22  C17 UNL     1      19.547   1.309  50.997  1.00  0.00    -0.051 C 
HETATM   23  C18 UNL     1      18.215   1.448  50.370  1.00  0.00     0.038 C 
HETATM   24  C19 UNL     1      17.381   2.243  51.390  1.00  0.00     0.034 C 
HETATM   25  C20 UNL     1      18.013   3.602  51.502  1.00  0.00     0.271 C 
HETATM   26  N4  UNL     1      19.421   3.641  51.647  1.00  0.00     0.092 N 
HETATM   27  C21 UNL     1      20.212   2.682  50.966  1.00  0.00     0.250 C 
HETATM   28  C22 UNL     1      20.608   3.096  49.599  1.00  0.00     0.068 C 
HETATM   29  C23 UNL     1      20.473   4.543  49.290  1.00  0.00     0.244 C 
HETATM   30  N5  UNL     1      21.553   5.379  50.020  1.00  0.00    -0.022 N 
HETATM   31  H8  UNL     1      27.105   2.129  52.422  1.00  0.00     0.161 HD
HETATM   32  H21 UNL     1      19.662   3.706  52.679  1.00  0.00     0.316 HD
ENDROOT
TORSDOF 0
ENDMDL
MODEL 9
REMARK VINA RESULT:      -9.0      1.773      5.582
REMARK  0 active torsions:
REMARK  status: ('A' for Active; 'I' for Inactive)
ROOT
HETATM    1  C1  UNL     1      25.665   5.022  49.923  1.00  0.00     0.071 C 
HETATM    2  C2  UNL     1      24.435   4.440  49.565  1.00  0.00     0.329 C 
HETATM    3  O1  UNL     1      23.224   5.157  50.161  1.00  0.00    -0.318 OA
HETATM    4  C3  UNL     1      22.266   4.063  50.344  1.00  0.00     0.111 A 
HETATM    5  C4  UNL     1      22.829   2.747  50.374  1.00  0.00     0.338 A 
HETATM    6  C5  UNL     1      23.255   1.761  50.397  1.00  0.00     0.160 A 
HETATM    7  C6  UNL     1      21.738   2.087  50.585  1.00  0.00     0.097 A 
HETATM    8  C7  UNL     1      20.458   2.683  50.716  1.00  0.00     0.028 A 
HETATM    9  C8  UNL     1      19.163   2.650  50.926  1.00  0.00     0.134 A 
HETATM   10  N1  UNL     1      18.531   3.805  50.920  1.00  0.00    -0.224 NA
HETATM   11  C9  UNL     1      19.002   5.037  50.736  1.00  0.00     0.236 A 
HETATM   12  N2  UNL     1      20.358   5.202  50.511  1.00  0.00    -0.239 NA
HETATM   13  C10 UNL     1      20.938   3.958  50.532  1.00  0.00     0.100 A 
HETATM   14  N3  UNL     1      18.606   1.405  51.201  1.00  0.00    -0.372 N 
HETATM   15  C11 UNL     1      18.912   0.041  51.412  1.00  0.00     0.146 C 
HETATM   16  C12 UNL     1      19.812  -0.308  52.511  1.00  0.00     0.128 A 
HETATM   17  C13 UNL     1      20.269  -0.830  53.612  1.00  0.00    -0.005 A 
HETATM   18 CL1  UNL     1      18.611  -1.297  53.366  1.00  0.00    -0.179 Cl
HETATM   19  C14 UNL     1      21.337  -1.066  54.557  1.00  0.00     0.021 C 
HETATM   20  C15 UNL     1      22.425  -0.430  54.039  1.00  0.00     0.055 C 
HETATM   21  C16 UNL     1      23.773  -0.405  54.685  1.00  0.00    -0.016 C 
HETATM   22  C17 UNL     1      24.686   0.280  53.978  1.00  0.00    -0.051 C 
HETATM   23  C18 UNL     1      26.104   0.488  54.346  1.00  0.00     0.038 C 
HETATM   24  C19 UNL     1      26.896  -0.411  53.381  1.00  0.00     0.034 C 
HETATM   25  C20 UNL     1      26.667   0.129  51.997  1.00  0.00     0.271 C 
HETATM   26  N4  UNL     1      25.329   0.434  51.646  1.00  0.00     0.092 N 
HETATM   27  C21 UNL     1      24.459   0.962  52.632  1.00  0.00     0.250 C 
HETATM   28  C22 UNL     1      24.492   2.441  52.727  1.00  0.00     0.068 C 
HETATM   29  C23 UNL     1      25.093   3.157  51.572  1.00  0.00     0.244 C 
HETATM   30  N5  UNL     1      24.166   3.105  50.332  1.00  0.00    -0.022 N 
HETATM   31  H8  UNL     1      17.547   1.544  51.284  1.00  0.00     0.161 HD
HETATM   32  H21 UNL     1      24.907  -0.395  51.135  1.00  0.00     0.316 HD
ENDROOT
TORSDOF 0
ENDMDL
