MODEL 1
REMARK VINA RESULT:      -7.8      0.000      0.000
REMARK  3 active torsions:
REMARK  status: ('A' for Active; 'I' for Inactive)
REMARK    1  A    between atoms: C3_3  and  C4_4 
REMARK    2  A    between atoms: N1_7  and  C7_8 
REMARK    3  A    between atoms: C13_17  and  O1_18 
ROOT
HETATM    1  C7  UNL     1      21.691   0.025  52.535  1.00  0.00     0.163 A 
HETATM    2  N2  UNL     1      20.678  -0.535  53.201  1.00  0.00    -0.222 NA
HETATM    3  C8  UNL     1      20.902  -1.213  54.364  1.00  0.00     0.238 A 
HETATM    4  N3  UNL     1      22.117  -1.404  54.971  1.00  0.00    -0.215 NA
HETATM    5  C9  UNL     1      23.185  -0.879  54.373  1.00  0.00     0.202 A 
HETATM    6  C10 UNL     1      22.853  -0.187  53.162  1.00  0.00     0.133 A 
HETATM    7  N4  UNL     1      23.888   0.480  52.336  1.00  0.00    -0.353 N 
HETATM    8  C11 UNL     1      25.285   0.450  52.671  1.00  0.00     0.018 C 
HETATM    9  C12 UNL     1      26.053   1.571  52.727  1.00  0.00     0.063 C 
HETATM   10  C13 UNL     1      26.884   1.371  54.008  1.00  0.00     0.083 C 
HETATM   11  C15 UNL     1      26.585   0.395  54.923  1.00  0.00     0.043 C 
HETATM   12  C16 UNL     1      25.639  -0.433  54.616  1.00  0.00     0.075 C 
HETATM   13  C17 UNL     1      26.020  -0.833  53.163  1.00  0.00     0.123 C 
HETATM   14  O2  UNL     1      24.473  -1.079  55.018  1.00  0.00    -0.293 OA
HETATM   15  H10 UNL     1      23.815   1.045  51.486  1.00  0.00     0.166 HD
ENDROOT
BRANCH   1  16
HETATM   16  N1  UNL     1      21.612   0.809  51.357  1.00  0.00    -0.326 N 
HETATM   17  C4  UNL     1      21.757   2.241  51.265  1.00  0.00     0.034 A 
HETATM   18  C5  UNL     1      21.540   2.120  49.966  1.00  0.00     0.023 A 
HETATM   19  C6  UNL     1      21.379   0.635  49.943  1.00  0.00     0.160 A 
BRANCH  17  20
HETATM   20  C3  UNL     1      22.016   3.376  52.148  1.00  0.00     0.025 C 
HETATM   21  C2  UNL     1      23.217   3.926  52.185  1.00  0.00    -0.029 C 
HETATM   22  C1  UNL     1      23.464   5.091  53.099  1.00  0.00     0.036 C 
ENDBRANCH  17  20
ENDBRANCH   1  16
BRANCH  10  23
HETATM   23  O1  UNL     1      27.823   2.317  53.923  1.00  0.00    -0.355 OA
HETATM   24  C14 UNL     1      29.181   1.950  54.139  1.00  0.00     0.210 C 
ENDBRANCH  10  23
TORSDOF 3
ENDMDL
MODEL 2
REMARK VINA RESULT:      -7.6      1.681      2.911
REMARK  3 active torsions:
REMARK  status: ('A' for Active; 'I' for Inactive)
REMARK    1  A    between atoms: C3_3  and  C4_4 
REMARK    2  A    between atoms: N1_7  and  C7_8 
REMARK    3  A    between atoms: C13_17  and  O1_18 
ROOT
HETATM    1  C7  UNL     1      22.402   2.862  52.238  1.00  0.00     0.163 A 
HETATM    2  N2  UNL     1      21.094   2.640  52.386  1.00  0.00    -0.222 NA
HETATM    3  C8  UNL     1      20.646   1.487  52.963  1.00  0.00     0.238 A 
HETATM    4  N3  UNL     1      21.424   0.462  53.439  1.00  0.00    -0.215 NA
HETATM    5  C9  UNL     1      22.744   0.599  53.330  1.00  0.00     0.202 A 
HETATM    6  C10 UNL     1      23.120   1.838  52.714  1.00  0.00     0.133 A 
HETATM    7  N4  UNL     1      24.541   2.203  52.498  1.00  0.00    -0.353 N 
HETATM    8  C11 UNL     1      25.626   1.333  52.857  1.00  0.00     0.018 C 
HETATM    9  C12 UNL     1      26.686   1.747  53.602  1.00  0.00     0.063 C 
HETATM   10  C13 UNL     1      26.901   0.590  54.594  1.00  0.00     0.083 C 
HETATM   11  C15 UNL     1      25.973  -0.407  54.759  1.00  0.00     0.043 C 
HETATM   12  C16 UNL     1      24.952  -0.401  53.964  1.00  0.00     0.075 C 
HETATM   13  C17 UNL     1      25.624  -0.200  52.578  1.00  0.00     0.123 C 
HETATM   14  O2  UNL     1      23.568  -0.486  53.836  1.00  0.00    -0.293 OA
HETATM   15  H10 UNL     1      24.973   3.051  52.123  1.00  0.00     0.166 HD
ENDROOT
BRANCH   1  16
HETATM   16  N1  UNL     1      23.020   4.027  51.720  1.00  0.00    -0.326 N 
HETATM   17  C4  UNL     1      23.444   4.245  50.358  1.00  0.00     0.034 A 
HETATM   18  C5  UNL     1      23.874   5.435  50.744  1.00  0.00     0.023 A 
HETATM   19  C6  UNL     1      23.469   5.321  52.178  1.00  0.00     0.160 A 
BRANCH  17  20
HETATM   20  C3  UNL     1      23.443   3.532  49.083  1.00  0.00     0.025 C 
HETATM   21  C2  UNL     1      22.478   2.673  48.805  1.00  0.00    -0.029 C 
HETATM   22  C1  UNL     1      22.495   1.950  47.489  1.00  0.00     0.036 C 
ENDBRANCH  17  20
ENDBRANCH   1  16
BRANCH  10  23
HETATM   23  O1  UNL     1      28.091   0.858  55.136  1.00  0.00    -0.355 OA
HETATM   24  C14 UNL     1      29.166   1.217  54.275  1.00  0.00     0.210 C 
ENDBRANCH  10  23
TORSDOF 3
ENDMDL
MODEL 3
REMARK VINA RESULT:      -7.4      2.562      5.987
REMARK  3 active torsions:
REMARK  status: ('A' for Active; 'I' for Inactive)
REMARK    1  A    between atoms: C3_3  and  C4_4 
REMARK    2  A    between atoms: N1_7  and  C7_8 
REMARK    3  A    between atoms: C13_17  and  O1_18 
ROOT
HETATM    1  C7  UNL     1      24.573  -0.189  53.801  1.00  0.00     0.163 A 
HETATM    2  N2  UNL     1      25.006  -0.966  54.797  1.00  0.00    -0.222 NA
HETATM    3  C8  UNL     1      24.120  -1.585  55.631  1.00  0.00     0.238 A 
HETATM    4  N3  UNL     1      22.752  -1.500  55.569  1.00  0.00    -0.215 NA
HETATM    5  C9  UNL     1      22.232  -0.743  54.604  1.00  0.00     0.202 A 
HETATM    6  C10 UNL     1      23.236  -0.136  53.779  1.00  0.00     0.133 A 
HETATM    7  N4  UNL     1      22.883   0.744  52.640  1.00  0.00    -0.353 N 
HETATM    8  C11 UNL     1      21.524   1.071  52.307  1.00  0.00     0.018 C 
HETATM    9  C12 UNL     1      21.022   0.940  51.050  1.00  0.00     0.063 C 
HETATM   10  C13 UNL     1      19.638   0.308  51.282  1.00  0.00     0.083 C 
HETATM   11  C15 UNL     1      19.274  -0.219  52.494  1.00  0.00     0.043 C 
HETATM   12  C16 UNL     1      20.100  -0.064  53.478  1.00  0.00     0.075 C 
HETATM   13  C17 UNL     1      20.449   1.446  53.370  1.00  0.00     0.123 C 
HETATM   14  O2  UNL     1      20.783  -0.655  54.537  1.00  0.00    -0.293 OA
HETATM   15  H10 UNL     1      23.464   1.209  51.937  1.00  0.00     0.166 HD
ENDROOT
BRANCH   1  16
HETATM   16  N1  UNL     1      25.360   0.464  52.821  1.00  0.00    -0.326 N 
HETATM   17  C4  UNL     1      26.732   0.173  52.483  1.00  0.00     0.034 A 
HETATM   18  C5  UNL     1      26.662   1.156  51.601  1.00  0.00     0.023 A 
HETATM   19  C6  UNL     1      25.242   1.539  51.864  1.00  0.00     0.160 A 
BRANCH  17  20
HETATM   20  C3  UNL     1      27.786  -0.756  52.885  1.00  0.00     0.025 C 
HETATM   21  C2  UNL     1      28.918  -0.296  53.387  1.00  0.00    -0.029 C 
HETATM   22  C1  UNL     1      29.990  -1.267  53.794  1.00  0.00     0.036 C 
ENDBRANCH  17  20
ENDBRANCH   1  16
BRANCH  10  23
HETATM   23  O1  UNL     1      19.034   0.431  50.096  1.00  0.00    -0.355 OA
HETATM   24  C14 UNL     1      17.620   0.291  50.034  1.00  0.00     0.210 C 
ENDBRANCH  10  23
TORSDOF 3
ENDMDL
MODEL 4
REMARK VINA RESULT:      -7.4      2.790      5.316
REMARK  3 active torsions:
REMARK  status: ('A' for Active; 'I' for Inactive)
REMARK    1  A    between atoms: C3_3  and  C4_4 
REMARK    2  A    between atoms: N1_7  and  C7_8 
REMARK    3  A    between atoms: C13_17  and  O1_18 
ROOT
HETATM    1  C7  UNL     1      24.550   4.808  50.147  1.00  0.00     0.163 A 
HETATM    2  N2  UNL     1      25.336   5.288  49.180  1.00  0.00    -0.222 NA
HETATM    3  C8  UNL     1      26.580   4.765  48.973  1.00  0.00     0.238 A 
HETATM    4  N3  UNL     1      27.160   3.745  49.683  1.00  0.00    -0.215 NA
HETATM    5  C9  UNL     1      26.446   3.208  50.670  1.00  0.00     0.202 A 
HETATM    6  C10 UNL     1      25.156   3.818  50.812  1.00  0.00     0.133 A 
HETATM    7  N4  UNL     1      24.191   3.372  51.846  1.00  0.00    -0.353 N 
HETATM    8  C11 UNL     1      24.493   2.331  52.788  1.00  0.00     0.018 C 
HETATM    9  C12 UNL     1      23.666   1.273  53.007  1.00  0.00     0.063 C 
HETATM   10  C13 UNL     1      24.628   0.073  53.066  1.00  0.00     0.083 C 
HETATM   11  C15 UNL     1      25.937   0.171  52.669  1.00  0.00     0.043 C 
HETATM   12  C16 UNL     1      26.369   1.346  52.345  1.00  0.00     0.075 C 
HETATM   13  C17 UNL     1      25.859   2.215  53.528  1.00  0.00     0.123 C 
HETATM   14  O2  UNL     1      27.061   2.125  51.421  1.00  0.00    -0.293 OA
HETATM   15  H10 UNL     1      23.231   3.663  52.047  1.00  0.00     0.166 HD
ENDROOT
BRANCH   1  16
HETATM   16  N1  UNL     1      23.220   5.199  50.443  1.00  0.00    -0.326 N 
HETATM   17  C4  UNL     1      22.012   4.566  49.972  1.00  0.00     0.034 A 
HETATM   18  C5  UNL     1      21.339   5.489  50.639  1.00  0.00     0.023 A 
HETATM   19  C6  UNL     1      22.522   6.218  51.190  1.00  0.00     0.160 A 
BRANCH  17  20
HETATM   20  C3  UNL     1      21.623   3.432  49.138  1.00  0.00     0.025 C 
HETATM   21  C2  UNL     1      21.921   2.200  49.512  1.00  0.00    -0.029 C 
HETATM   22  C1  UNL     1      21.512   1.047  48.641  1.00  0.00     0.036 C 
ENDBRANCH  17  20
ENDBRANCH   1  16
BRANCH  10  23
HETATM   23  O1  UNL     1      23.868  -0.914  53.550  1.00  0.00    -0.355 OA
HETATM   24  C14 UNL     1      22.457  -0.824  53.397  1.00  0.00     0.210 C 
ENDBRANCH  10  23
TORSDOF 3
ENDMDL
MODEL 5
REMARK VINA RESULT:      -7.2      2.641      5.869
REMARK  3 active torsions:
REMARK  status: ('A' for Active; 'I' for Inactive)
REMARK    1  A    between atoms: C3_3  and  C4_4 
REMARK    2  A    between atoms: N1_7  and  C7_8 
REMARK    3  A    between atoms: C13_17  and  O1_18 
ROOT
HETATM    1  C7  UNL     1      24.082   0.362  53.455  1.00  0.00     0.163 A 
HETATM    2  N2  UNL     1      23.758  -0.624  54.296  1.00  0.00    -0.222 NA
HETATM    3  C8  UNL     1      22.562  -1.272  54.177  1.00  0.00     0.238 A 
HETATM    4  N3  UNL     1      21.591  -1.019  53.242  1.00  0.00    -0.215 NA
HETATM    5  C9  UNL     1      21.831  -0.049  52.362  1.00  0.00     0.202 A 
HETATM    6  C10 UNL     1      23.108   0.574  52.564  1.00  0.00     0.133 A 
HETATM    7  N4  UNL     1      23.585   1.675  51.694  1.00  0.00    -0.353 N 
HETATM    8  C11 UNL     1      22.795   2.213  50.621  1.00  0.00     0.018 C 
HETATM    9  C12 UNL     1      23.274   2.365  49.358  1.00  0.00     0.063 C 
HETATM   10  C13 UNL     1      22.117   1.867  48.473  1.00  0.00     0.083 C 
HETATM   11  C15 UNL     1      21.050   1.180  48.992  1.00  0.00     0.043 C 
HETATM   12  C16 UNL     1      20.992   1.063  50.279  1.00  0.00     0.075 C 
HETATM   13  C17 UNL     1      21.272   2.517  50.749  1.00  0.00     0.123 C 
HETATM   14  O2  UNL     1      20.803   0.218  51.369  1.00  0.00    -0.293 OA
HETATM   15  H10 UNL     1      24.471   2.186  51.673  1.00  0.00     0.166 HD
ENDROOT
BRANCH   1  16
HETATM   16  N1  UNL     1      25.302   1.082  53.411  1.00  0.00    -0.326 N 
HETATM   17  C4  UNL     1      26.614   0.538  53.159  1.00  0.00     0.034 A 
HETATM   18  C5  UNL     1      27.086   1.765  53.309  1.00  0.00     0.023 A 
HETATM   19  C6  UNL     1      25.777   2.436  53.573  1.00  0.00     0.160 A 
BRANCH  17  20
HETATM   20  C3  UNL     1      27.227  -0.756  52.871  1.00  0.00     0.025 C 
HETATM   21  C2  UNL     1      28.412  -1.054  53.373  1.00  0.00    -0.029 C 
HETATM   22  C1  UNL     1      29.026  -2.389  53.065  1.00  0.00     0.036 C 
ENDBRANCH  17  20
ENDBRANCH   1  16
BRANCH  10  23
HETATM   23  O1  UNL     1      22.466   2.266  47.247  1.00  0.00    -0.355 OA
HETATM   24  C14 UNL     1      21.841   3.424  46.705  1.00  0.00     0.210 C 
ENDBRANCH  10  23
TORSDOF 3
ENDMDL
MODEL 6
REMARK VINA RESULT:      -7.1      2.072      4.221
REMARK  3 active torsions:
REMARK  status: ('A' for Active; 'I' for Inactive)
REMARK    1  A    between atoms: C3_3  and  C4_4 
REMARK    2  A    between atoms: N1_7  and  C7_8 
REMARK    3  A    between atoms: C13_17  and  O1_18 
ROOT
HETATM    1  C7  UNL     1      22.124   0.499  52.220  1.00  0.00     0.163 A 
HETATM    2  N2  UNL     1      21.479   1.025  51.176  1.00  0.00    -0.222 NA
HETATM    3  C8  UNL     1      22.123   1.866  50.314  1.00  0.00     0.238 A 
HETATM    4  N3  UNL     1      23.433   2.262  50.393  1.00  0.00    -0.215 NA
HETATM    5  C9  UNL     1      24.153   1.786  51.407  1.00  0.00     0.202 A 
HETATM    6  C10 UNL     1      23.396   0.914  52.258  1.00  0.00     0.133 A 
HETATM    7  N4  UNL     1      24.000   0.265  53.446  1.00  0.00    -0.353 N 
HETATM    8  C11 UNL     1      25.363   0.489  53.841  1.00  0.00     0.018 C 
HETATM    9  C12 UNL     1      26.229  -0.525  54.105  1.00  0.00     0.063 C 
HETATM   10  C13 UNL     1      27.528  -0.077  53.411  1.00  0.00     0.083 C 
HETATM   11  C15 UNL     1      27.554   0.969  52.524  1.00  0.00     0.043 C 
HETATM   12  C16 UNL     1      26.460   1.644  52.374  1.00  0.00     0.075 C 
HETATM   13  C17 UNL     1      26.033   1.896  53.847  1.00  0.00     0.123 C 
HETATM   14  O2  UNL     1      25.543   2.205  51.490  1.00  0.00    -0.293 OA
HETATM   15  H10 UNL     1      23.620  -0.408  54.117  1.00  0.00     0.166 HD
ENDROOT
BRANCH   1  16
HETATM   16  N1  UNL     1      21.616  -0.430  53.160  1.00  0.00    -0.326 N 
HETATM   17  C4  UNL     1      20.230  -0.768  53.375  1.00  0.00     0.034 A 
HETATM   18  C5  UNL     1      20.639  -1.591  54.327  1.00  0.00     0.023 A 
HETATM   19  C6  UNL     1      22.102  -1.322  54.186  1.00  0.00     0.160 A 
BRANCH  17  20
HETATM   20  C3  UNL     1      18.919  -0.411  52.838  1.00  0.00     0.025 C 
HETATM   21  C2  UNL     1      17.904  -1.248  52.956  1.00  0.00    -0.029 C 
HETATM   22  C1  UNL     1      16.564  -0.862  52.398  1.00  0.00     0.036 C 
ENDBRANCH  17  20
ENDBRANCH   1  16
BRANCH  10  23
HETATM   23  O1  UNL     1      28.447  -0.918  53.891  1.00  0.00    -0.355 OA
HETATM   24  C14 UNL     1      29.821  -0.632  53.656  1.00  0.00     0.210 C 
ENDBRANCH  10  23
TORSDOF 3
ENDMDL
MODEL 7
REMARK VINA RESULT:      -7.1      2.665      5.342
REMARK  3 active torsions:
REMARK  status: ('A' for Active; 'I' for Inactive)
REMARK    1  A    between atoms: C3_3  and  C4_4 
REMARK    2  A    between atoms: N1_7  and  C7_8 
REMARK    3  A    between atoms: C13_17  and  O1_18 
ROOT
HETATM    1  C7  UNL     1      24.257   1.516  51.875  1.00  0.00     0.163 A 
HETATM    2  N2  UNL     1      25.541   1.149  51.915  1.00  0.00    -0.222 NA
HETATM    3  C8  UNL     1      25.942   0.115  52.711  1.00  0.00     0.238 A 
HETATM    4  N3  UNL     1      25.139  -0.641  53.527  1.00  0.00    -0.215 NA
HETATM    5  C9  UNL     1      23.842  -0.342  53.550  1.00  0.00     0.202 A 
HETATM    6  C10 UNL     1      23.514   0.754  52.685  1.00  0.00     0.133 A 
HETATM    7  N4  UNL     1      22.124   1.253  52.550  1.00  0.00    -0.353 N 
HETATM    8  C11 UNL     1      21.027   0.699  53.294  1.00  0.00     0.018 C 
HETATM    9  C12 UNL     1      19.866   0.302  52.708  1.00  0.00     0.063 C 
HETATM   10  C13 UNL     1      19.556  -1.038  53.399  1.00  0.00     0.083 C 
HETATM   11  C15 UNL     1      20.483  -1.688  54.173  1.00  0.00     0.043 C 
HETATM   12  C16 UNL     1      21.600  -1.074  54.397  1.00  0.00     0.075 C 
HETATM   13  C17 UNL     1      21.113   0.343  54.809  1.00  0.00     0.123 C 
HETATM   14  O2  UNL     1      22.990  -1.144  54.414  1.00  0.00    -0.293 OA
HETATM   15  H10 UNL     1      21.720   1.980  51.954  1.00  0.00     0.166 HD
ENDROOT
BRANCH   1  16
HETATM   16  N1  UNL     1      23.679   2.520  51.059  1.00  0.00    -0.326 N 
HETATM   17  C4  UNL     1      24.354   3.310  50.058  1.00  0.00     0.034 A 
HETATM   18  C5  UNL     1      23.199   3.920  49.846  1.00  0.00     0.023 A 
HETATM   19  C6  UNL     1      22.400   3.156  50.851  1.00  0.00     0.160 A 
BRANCH  17  20
HETATM   20  C3  UNL     1      25.691   3.445  49.486  1.00  0.00     0.025 C 
HETATM   21  C2  UNL     1      26.213   4.643  49.295  1.00  0.00    -0.029 C 
HETATM   22  C1  UNL     1      27.589   4.761  48.705  1.00  0.00     0.036 C 
ENDBRANCH  17  20
ENDBRANCH   1  16
BRANCH  10  23
HETATM   23  O1  UNL     1      18.296  -1.294  53.037  1.00  0.00    -0.355 OA
HETATM   24  C14 UNL     1      17.670  -2.471  53.534  1.00  0.00     0.210 C 
ENDBRANCH  10  23
TORSDOF 3
ENDMDL
MODEL 8
REMARK VINA RESULT:      -6.8      3.579      5.996
REMARK  3 active torsions:
REMARK  status: ('A' for Active; 'I' for Inactive)
REMARK    1  A    between atoms: C3_3  and  C4_4 
REMARK    2  A    between atoms: N1_7  and  C7_8 
REMARK    3  A    between atoms: C13_17  and  O1_18 
ROOT
HETATM    1  C7  UNL     1      25.208   5.476  49.925  1.00  0.00     0.163 A 
HETATM    2  N2  UNL     1      26.161   5.641  49.003  1.00  0.00    -0.222 NA
HETATM    3  C8  UNL     1      27.136   4.700  48.836  1.00  0.00     0.238 A 
HETATM    4  N3  UNL     1      27.268   3.533  49.545  1.00  0.00    -0.215 NA
HETATM    5  C9  UNL     1      26.361   3.288  50.488  1.00  0.00     0.202 A 
HETATM    6  C10 UNL     1      25.378   4.327  50.590  1.00  0.00     0.133 A 
HETATM    7  N4  UNL     1      24.268   4.259  51.571  1.00  0.00    -0.353 N 
HETATM    8  C11 UNL     1      24.122   3.173  52.500  1.00  0.00     0.018 C 
HETATM    9  C12 UNL     1      22.957   2.490  52.658  1.00  0.00     0.063 C 
HETATM   10  C13 UNL     1      23.409   1.020  52.728  1.00  0.00     0.083 C 
HETATM   11  C15 UNL     1      24.680   0.635  52.389  1.00  0.00     0.043 C 
HETATM   12  C16 UNL     1      25.528   1.572  52.113  1.00  0.00     0.075 C 
HETATM   13  C17 UNL     1      25.314   2.558  53.294  1.00  0.00     0.123 C 
HETATM   14  O2  UNL     1      26.499   2.050  51.238  1.00  0.00    -0.293 OA
HETATM   15  H10 UNL     1      23.473   4.880  51.738  1.00  0.00     0.166 HD
ENDROOT
BRANCH   1  16
HETATM   16  N1  UNL     1      24.101   6.324  50.173  1.00  0.00    -0.326 N 
HETATM   17  C4  UNL     1      22.809   6.262  49.536  1.00  0.00     0.034 A 
HETATM   18  C5  UNL     1      22.462   7.306  50.271  1.00  0.00     0.023 A 
HETATM   19  C6  UNL     1      23.758   7.458  50.998  1.00  0.00     0.160 A 
BRANCH  17  20
HETATM   20  C3  UNL     1      22.120   5.457  48.530  1.00  0.00     0.025 C 
HETATM   21  C2  UNL     1      22.600   5.379  47.302  1.00  0.00    -0.029 C 
HETATM   22  C1  UNL     1      21.878   4.546  46.281  1.00  0.00     0.036 C 
ENDBRANCH  17  20
ENDBRANCH   1  16
BRANCH  10  23
HETATM   23  O1  UNL     1      22.319   0.377  53.156  1.00  0.00    -0.355 OA
HETATM   24  C14 UNL     1      22.383  -1.034  53.325  1.00  0.00     0.210 C 
ENDBRANCH  10  23
TORSDOF 3
ENDMDL
MODEL 9
REMARK VINA RESULT:      -6.7      2.122      2.754
REMARK  3 active torsions:
REMARK  status: ('A' for Active; 'I' for Inactive)
REMARK    1  A    between atoms: C3_3  and  C4_4 
REMARK    2  A    between atoms: N1_7  and  C7_8 
REMARK    3  A    between atoms: C13_17  and  O1_18 
ROOT
HETATM    1  C7  UNL     1      23.153   2.277  50.788  1.00  0.00     0.163 A 
HETATM    2  N2  UNL     1      21.828   2.117  50.754  1.00  0.00    -0.222 NA
HETATM    3  C8  UNL     1      21.223   1.172  51.531  1.00  0.00     0.238 A 
HETATM    4  N3  UNL     1      21.848   0.312  52.397  1.00  0.00    -0.215 NA
HETATM    5  C9  UNL     1      23.173   0.401  52.494  1.00  0.00     0.202 A 
HETATM    6  C10 UNL     1      23.720   1.418  51.643  1.00  0.00     0.133 A 
HETATM    7  N4  UNL     1      25.175   1.696  51.595  1.00  0.00    -0.353 N 
HETATM    8  C11 UNL     1      26.132   0.950  52.364  1.00  0.00     0.018 C 
HETATM    9  C12 UNL     1      27.072   1.544  53.146  1.00  0.00     0.063 C 
HETATM   10  C13 UNL     1      27.048   0.703  54.436  1.00  0.00     0.083 C 
HETATM   11  C15 UNL     1      26.049  -0.200  54.695  1.00  0.00     0.043 C 
HETATM   12  C16 UNL     1      25.180  -0.405  53.759  1.00  0.00     0.075 C 
HETATM   13  C17 UNL     1      26.088  -0.601  52.514  1.00  0.00     0.123 C 
HETATM   14  O2  UNL     1      23.835  -0.510  53.413  1.00  0.00    -0.293 OA
HETATM   15  H10 UNL     1      25.713   2.404  51.088  1.00  0.00     0.166 HD
ENDROOT
BRANCH   1  16
HETATM   16  N1  UNL     1      23.916   3.248  50.093  1.00  0.00    -0.326 N 
HETATM   17  C4  UNL     1      23.524   4.606  49.804  1.00  0.00     0.034 A 
HETATM   18  C5  UNL     1      24.686   4.749  49.189  1.00  0.00     0.023 A 
HETATM   19  C6  UNL     1      25.197   3.367  49.438  1.00  0.00     0.160 A 
BRANCH  17  20
HETATM   20  C3  UNL     1      22.386   5.492  50.039  1.00  0.00     0.025 C 
HETATM   21  C2  UNL     1      22.583   6.719  50.487  1.00  0.00    -0.029 C 
HETATM   22  C1  UNL     1      21.401   7.614  50.723  1.00  0.00     0.036 C 
ENDBRANCH  17  20
ENDBRANCH   1  16
BRANCH  10  23
HETATM   23  O1  UNL     1      28.143   1.100  55.089  1.00  0.00    -0.355 OA
HETATM   24  C14 UNL     1      29.383   1.117  54.392  1.00  0.00     0.210 C 
ENDBRANCH  10  23
TORSDOF 3
ENDMDL
