MODEL 1
REMARK VINA RESULT:      -8.2      0.000      0.000
REMARK  3 active torsions:
REMARK  status: ('A' for Active; 'I' for Inactive)
REMARK    1  A    between atoms: O1_2  and  C2_3 
REMARK    2  A    between atoms: C6_8  and  N2_9 
REMARK    3  A    between atoms: N2_9  and  C7_10 
ROOT
HETATM    1  C2  UNL     1      22.339   0.086  53.353  1.00  0.00     0.080 C 
HETATM    2  C3  UNL     1      22.202   1.355  52.968  1.00  0.00     0.027 C 
HETATM    3  C4  UNL     1      23.319   1.831  52.434  1.00  0.00     0.103 C 
HETATM    4  N1  UNL     1      24.647   1.348  52.480  1.00  0.00    -0.358 N 
HETATM    5  C5  UNL     1      25.951   1.528  53.019  1.00  0.00     0.132 A 
HETATM    6  C6  UNL     1      26.784   2.140  52.109  1.00  0.00     0.160 A 
HETATM    7  N3  UNL     1      28.094   2.475  52.300  1.00  0.00    -0.222 NA
HETATM    8  C13 UNL     1      28.551   2.146  53.518  1.00  0.00     0.238 A 
HETATM    9  N4  UNL     1      27.777   1.546  54.439  1.00  0.00    -0.216 NA
HETATM   10  C14 UNL     1      26.473   1.214  54.247  1.00  0.00     0.197 A 
HETATM   11  O2  UNL     1      26.167   0.623  55.499  1.00  0.00    -0.329 OA
HETATM   12  C15 UNL     1      25.736  -0.729  55.552  1.00  0.00     0.205 C 
HETATM   13  C16 UNL     1      24.431  -0.892  54.811  1.00  0.00     0.002 C 
HETATM   14  C17 UNL     1      23.450  -0.374  54.114  1.00  0.00     0.035 C 
HETATM   15  H5  UNL     1      24.636   0.550  51.813  1.00  0.00     0.165 HD
ENDROOT
BRANCH   6  16
HETATM   16  N2  UNL     1      26.234   2.439  50.833  1.00  0.00    -0.339 N 
HETATM   17  H6  UNL     1      25.820   1.664  50.268  1.00  0.00     0.167 HD
BRANCH  16  18
HETATM   18  C7  UNL     1      26.166   3.713  50.230  1.00  0.00     0.035 A 
HETATM   19  C8  UNL     1      27.046   4.105  49.224  1.00  0.00     0.029 A 
HETATM   20  C9  UNL     1      26.982   5.361  48.659  1.00  0.00     0.004 A 
HETATM   21  C10 UNL     1      26.054   6.300  49.048  1.00  0.00     0.019 A 
HETATM   22  C11 UNL     1      25.155   5.940  50.053  1.00  0.00     0.013 A 
HETATM   23 BR1  UNL     1      23.873   7.227  50.596  1.00  0.00    -0.051 Br
HETATM   24  C12 UNL     1      25.263   4.666  50.588  1.00  0.00     0.048 A 
ENDBRANCH  16  18
ENDBRANCH   6  16
BRANCH   1  25
HETATM   25  O1  UNL     1      21.561  -0.996  53.155  1.00  0.00    -0.355 OA
HETATM   26  C1  UNL     1      20.841  -1.648  54.141  1.00  0.00     0.210 C 
ENDBRANCH   1  25
TORSDOF 3
ENDMDL
MODEL 2
REMARK VINA RESULT:      -7.9      1.722      4.098
REMARK  3 active torsions:
REMARK  status: ('A' for Active; 'I' for Inactive)
REMARK    1  A    between atoms: O1_2  and  C2_3 
REMARK    2  A    between atoms: C6_8  and  N2_9 
REMARK    3  A    between atoms: N2_9  and  C7_10 
ROOT
HETATM    1  C2  UNL     1      26.707  -0.173  53.475  1.00  0.00     0.080 C 
HETATM    2  C3  UNL     1      26.937   0.390  52.289  1.00  0.00     0.027 C 
HETATM    3  C4  UNL     1      26.142   1.430  52.075  1.00  0.00     0.103 C 
HETATM    4  N1  UNL     1      24.950   1.834  52.720  1.00  0.00    -0.358 N 
HETATM    5  C5  UNL     1      23.535   1.938  52.629  1.00  0.00     0.132 A 
HETATM    6  C6  UNL     1      23.152   3.222  52.311  1.00  0.00     0.160 A 
HETATM    7  N3  UNL     1      21.875   3.671  52.131  1.00  0.00    -0.222 NA
HETATM    8  C13 UNL     1      20.950   2.712  52.298  1.00  0.00     0.238 A 
HETATM    9  N4  UNL     1      21.275   1.445  52.611  1.00  0.00    -0.216 NA
HETATM   10  C14 UNL     1      22.547   1.001  52.788  1.00  0.00     0.197 A 
HETATM   11  O2  UNL     1      22.307  -0.362  53.098  1.00  0.00    -0.329 OA
HETATM   12  C15 UNL     1      22.735  -0.885  54.346  1.00  0.00     0.205 C 
HETATM   13  C16 UNL     1      24.239  -0.808  54.457  1.00  0.00     0.002 C 
HETATM   14  C17 UNL     1      25.399  -0.486  53.941  1.00  0.00     0.035 C 
HETATM   15  H5  UNL     1      25.289   2.241  53.616  1.00  0.00     0.165 HD
ENDROOT
BRANCH   6  16
HETATM   16  N2  UNL     1      24.187   4.186  52.172  1.00  0.00    -0.339 N 
HETATM   17  H6  UNL     1      24.792   4.398  52.995  1.00  0.00     0.167 HD
BRANCH  16  18
HETATM   18  C7  UNL     1      24.509   4.902  50.999  1.00  0.00     0.035 A 
HETATM   19  C8  UNL     1      25.469   4.451  50.094  1.00  0.00     0.029 A 
HETATM   20  C9  UNL     1      25.789   5.172  48.964  1.00  0.00     0.004 A 
HETATM   21  C10 UNL     1      25.187   6.372  48.658  1.00  0.00     0.019 A 
HETATM   22  C11 UNL     1      24.220   6.853  49.541  1.00  0.00     0.013 A 
HETATM   23 BR1  UNL     1      23.386   8.505  49.128  1.00  0.00    -0.051 Br
HETATM   24  C12 UNL     1      23.936   6.090  50.663  1.00  0.00     0.048 A 
ENDBRANCH  16  18
ENDBRANCH   6  16
BRANCH   1  25
HETATM   25  O1  UNL     1      27.545  -0.559  54.457  1.00  0.00    -0.355 OA
HETATM   26  C1  UNL     1      28.643   0.162  54.895  1.00  0.00     0.210 C 
ENDBRANCH   1  25
TORSDOF 3
ENDMDL
MODEL 3
REMARK VINA RESULT:      -7.7      3.126      5.270
REMARK  3 active torsions:
REMARK  status: ('A' for Active; 'I' for Inactive)
REMARK    1  A    between atoms: O1_2  and  C2_3 
REMARK    2  A    between atoms: C6_8  and  N2_9 
REMARK    3  A    between atoms: N2_9  and  C7_10 
ROOT
HETATM    1  C2  UNL     1      21.156  -0.382  53.025  1.00  0.00     0.080 C 
HETATM    2  C3  UNL     1      22.306  -1.048  53.124  1.00  0.00     0.027 C 
HETATM    3  C4  UNL     1      23.354  -0.243  53.010  1.00  0.00     0.103 C 
HETATM    4  N1  UNL     1      23.456   1.081  52.523  1.00  0.00    -0.358 N 
HETATM    5  C5  UNL     1      23.893   1.917  51.459  1.00  0.00     0.132 A 
HETATM    6  C6  UNL     1      25.095   2.517  51.763  1.00  0.00     0.160 A 
HETATM    7  N3  UNL     1      25.806   3.368  50.966  1.00  0.00    -0.222 NA
HETATM    8  C13 UNL     1      25.216   3.599  49.782  1.00  0.00     0.238 A 
HETATM    9  N4  UNL     1      24.043   3.038  49.441  1.00  0.00    -0.216 NA
HETATM   10  C14 UNL     1      23.338   2.191  50.237  1.00  0.00     0.197 A 
HETATM   11  O2  UNL     1      22.219   1.923  49.406  1.00  0.00    -0.329 OA
HETATM   12  C15 UNL     1      20.915   2.253  49.857  1.00  0.00     0.205 C 
HETATM   13  C16 UNL     1      20.572   1.459  51.095  1.00  0.00     0.002 C 
HETATM   14  C17 UNL     1      20.900   0.568  51.998  1.00  0.00     0.035 C 
HETATM   15  H5  UNL     1      23.064   1.653  53.299  1.00  0.00     0.165 HD
ENDROOT
BRANCH   6  16
HETATM   16  N2  UNL     1      25.647   2.240  53.043  1.00  0.00    -0.339 N 
HETATM   17  H6  UNL     1      25.102   2.500  53.894  1.00  0.00     0.167 HD
BRANCH  16  18
HETATM   18  C7  UNL     1      26.887   1.617  53.301  1.00  0.00     0.035 A 
HETATM   19  C8  UNL     1      27.991   2.326  53.769  1.00  0.00     0.029 A 
HETATM   20  C9  UNL     1      29.202   1.707  53.996  1.00  0.00     0.004 A 
HETATM   21  C10 UNL     1      29.396   0.362  53.778  1.00  0.00     0.019 A 
HETATM   22  C11 UNL     1      28.310  -0.380  53.311  1.00  0.00     0.013 A 
HETATM   23 BR1  UNL     1      28.569  -2.234  53.008  1.00  0.00    -0.051 Br
HETATM   24  C12 UNL     1      27.116   0.290  53.099  1.00  0.00     0.048 A 
ENDBRANCH  16  18
ENDBRANCH   6  16
BRANCH   1  25
HETATM   25  O1  UNL     1      20.040  -0.411  53.780  1.00  0.00    -0.355 OA
HETATM   26  C1  UNL     1      18.830  -0.959  53.388  1.00  0.00     0.210 C 
ENDBRANCH   1  25
TORSDOF 3
ENDMDL
MODEL 4
REMARK VINA RESULT:      -7.6      1.549      1.824
REMARK  3 active torsions:
REMARK  status: ('A' for Active; 'I' for Inactive)
REMARK    1  A    between atoms: O1_2  and  C2_3 
REMARK    2  A    between atoms: C6_8  and  N2_9 
REMARK    3  A    between atoms: N2_9  and  C7_10 
ROOT
HETATM    1  C2  UNL     1      21.146   1.077  51.743  1.00  0.00     0.080 C 
HETATM    2  C3  UNL     1      21.260   2.402  51.644  1.00  0.00     0.027 C 
HETATM    3  C4  UNL     1      22.489   2.767  51.305  1.00  0.00     0.103 C 
HETATM    4  N1  UNL     1      23.708   2.052  51.329  1.00  0.00    -0.358 N 
HETATM    5  C5  UNL     1      24.959   1.874  51.980  1.00  0.00     0.132 A 
HETATM    6  C6  UNL     1      25.972   2.500  51.287  1.00  0.00     0.160 A 
HETATM    7  N3  UNL     1      27.292   2.543  51.634  1.00  0.00    -0.222 NA
HETATM    8  C13 UNL     1      27.560   1.890  52.776  1.00  0.00     0.238 A 
HETATM    9  N4  UNL     1      26.606   1.262  53.486  1.00  0.00    -0.216 NA
HETATM   10  C14 UNL     1      25.293   1.221  53.139  1.00  0.00     0.197 A 
HETATM   11  O2  UNL     1      24.764   0.448  54.204  1.00  0.00    -0.329 OA
HETATM   12  C15 UNL     1      24.116  -0.783  53.925  1.00  0.00     0.205 C 
HETATM   13  C16 UNL     1      22.886  -0.548  53.081  1.00  0.00     0.002 C 
HETATM   14  C17 UNL     1      22.081   0.274  52.454  1.00  0.00     0.035 C 
HETATM   15  H5  UNL     1      23.636   1.425  50.502  1.00  0.00     0.165 HD
ENDROOT
BRANCH   6  16
HETATM   16  N2  UNL     1      25.614   3.153  50.077  1.00  0.00    -0.339 N 
HETATM   17  H6  UNL     1      24.923   2.696  49.443  1.00  0.00     0.167 HD
BRANCH  16  18
HETATM   18  C7  UNL     1      26.094   4.403  49.628  1.00  0.00     0.035 A 
HETATM   19  C8  UNL     1      27.233   4.519  48.834  1.00  0.00     0.029 A 
HETATM   20  C9  UNL     1      27.702   5.747  48.422  1.00  0.00     0.004 A 
HETATM   21  C10 UNL     1      27.082   6.928  48.764  1.00  0.00     0.019 A 
HETATM   22  C11 UNL     1      25.937   6.849  49.557  1.00  0.00     0.013 A 
HETATM   23 BR1  UNL     1      25.076   8.470  50.033  1.00  0.00    -0.051 Br
HETATM   24  C12 UNL     1      25.507   5.589  49.945  1.00  0.00     0.048 A 
ENDBRANCH  16  18
ENDBRANCH   6  16
BRANCH   1  25
HETATM   25  O1  UNL     1      20.227   0.221  51.257  1.00  0.00    -0.355 OA
HETATM   26  C1  UNL     1      18.860   0.444  51.244  1.00  0.00     0.210 C 
ENDBRANCH   1  25
TORSDOF 3
ENDMDL
MODEL 5
REMARK VINA RESULT:      -7.5      2.461      4.713
REMARK  3 active torsions:
REMARK  status: ('A' for Active; 'I' for Inactive)
REMARK    1  A    between atoms: O1_2  and  C2_3 
REMARK    2  A    between atoms: C6_8  and  N2_9 
REMARK    3  A    between atoms: N2_9  and  C7_10 
ROOT
HETATM    1  C2  UNL     1      26.224   1.471  53.210  1.00  0.00     0.080 C 
HETATM    2  C3  UNL     1      27.188   1.656  52.308  1.00  0.00     0.027 C 
HETATM    3  C4  UNL     1      26.911   2.664  51.491  1.00  0.00     0.103 C 
HETATM    4  N1  UNL     1      25.696   3.341  51.233  1.00  0.00    -0.358 N 
HETATM    5  C5  UNL     1      24.631   3.546  50.313  1.00  0.00     0.132 A 
HETATM    6  C6  UNL     1      24.801   4.720  49.613  1.00  0.00     0.160 A 
HETATM    7  N3  UNL     1      23.977   5.216  48.644  1.00  0.00    -0.222 NA
HETATM    8  C13 UNL     1      22.914   4.433  48.401  1.00  0.00     0.238 A 
HETATM    9  N4  UNL     1      22.705   3.279  49.060  1.00  0.00    -0.216 NA
HETATM   10  C14 UNL     1      23.527   2.786  50.023  1.00  0.00     0.197 A 
HETATM   11  O2  UNL     1      22.842   1.592  50.365  1.00  0.00    -0.329 OA
HETATM   12  C15 UNL     1      22.385   1.401  51.695  1.00  0.00     0.205 C 
HETATM   13  C16 UNL     1      23.553   1.366  52.651  1.00  0.00     0.002 C 
HETATM   14  C17 UNL     1      24.844   1.423  52.866  1.00  0.00     0.035 C 
HETATM   15  H5  UNL     1      25.578   3.949  52.069  1.00  0.00     0.165 HD
ENDROOT
BRANCH   6  16
HETATM   16  N2  UNL     1      25.937   5.506  49.941  1.00  0.00    -0.339 N 
HETATM   17  H6  UNL     1      26.123   5.730  50.943  1.00  0.00     0.167 HD
BRANCH  16  18
HETATM   18  C7  UNL     1      26.886   6.023  49.033  1.00  0.00     0.035 A 
HETATM   19  C8  UNL     1      28.055   5.338  48.711  1.00  0.00     0.029 A 
HETATM   20  C9  UNL     1      28.983   5.865  47.838  1.00  0.00     0.004 A 
HETATM   21  C10 UNL     1      28.816   7.091  47.234  1.00  0.00     0.019 A 
HETATM   22  C11 UNL     1      27.655   7.804  47.533  1.00  0.00     0.013 A 
HETATM   23 BR1  UNL     1      27.417   9.494  46.706  1.00  0.00    -0.051 Br
HETATM   24  C12 UNL     1      26.755   7.230  48.417  1.00  0.00     0.048 A 
ENDBRANCH  16  18
ENDBRANCH   6  16
BRANCH   1  25
HETATM   25  O1  UNL     1      26.272   1.298  54.545  1.00  0.00    -0.355 OA
HETATM   26  C1  UNL     1      26.573   0.105  55.182  1.00  0.00     0.210 C 
ENDBRANCH   1  25
TORSDOF 3
ENDMDL
MODEL 6
REMARK VINA RESULT:      -7.5      2.268      4.576
REMARK  3 active torsions:
REMARK  status: ('A' for Active; 'I' for Inactive)
REMARK    1  A    between atoms: O1_2  and  C2_3 
REMARK    2  A    between atoms: C6_8  and  N2_9 
REMARK    3  A    between atoms: N2_9  and  C7_10 
ROOT
HETATM    1  C2  UNL     1      25.297  -0.166  53.465  1.00  0.00     0.080 C 
HETATM    2  C3  UNL     1      25.644   0.404  52.312  1.00  0.00     0.027 C 
HETATM    3  C4  UNL     1      24.925   1.490  52.063  1.00  0.00     0.103 C 
HETATM    4  N1  UNL     1      23.712   1.948  52.628  1.00  0.00    -0.358 N 
HETATM    5  C5  UNL     1      22.315   2.131  52.435  1.00  0.00     0.132 A 
HETATM    6  C6  UNL     1      22.027   3.440  52.118  1.00  0.00     0.160 A 
HETATM    7  N3  UNL     1      20.792   3.962  51.855  1.00  0.00    -0.222 NA
HETATM    8  C13 UNL     1      19.807   3.053  51.932  1.00  0.00     0.238 A 
HETATM    9  N4  UNL     1      20.039   1.765  52.239  1.00  0.00    -0.216 NA
HETATM   10  C14 UNL     1      21.269   1.248  52.500  1.00  0.00     0.197 A 
HETATM   11  O2  UNL     1      20.933  -0.105  52.761  1.00  0.00    -0.329 OA
HETATM   12  C15 UNL     1      21.239  -0.673  54.025  1.00  0.00     0.205 C 
HETATM   13  C16 UNL     1      22.732  -0.682  54.248  1.00  0.00     0.002 C 
HETATM   14  C17 UNL     1      23.943  -0.415  53.826  1.00  0.00     0.035 C 
HETATM   15  H5  UNL     1      24.004   2.319  53.555  1.00  0.00     0.165 HD
ENDROOT
BRANCH   6  16
HETATM   16  N2  UNL     1      23.119   4.348  52.077  1.00  0.00    -0.339 N 
HETATM   17  H6  UNL     1      23.580   4.623  52.972  1.00  0.00     0.167 HD
BRANCH  16  18
HETATM   18  C7  UNL     1      23.681   4.927  50.919  1.00  0.00     0.035 A 
HETATM   19  C8  UNL     1      22.961   5.789  50.095  1.00  0.00     0.029 A 
HETATM   20  C9  UNL     1      23.516   6.330  48.955  1.00  0.00     0.004 A 
HETATM   21  C10 UNL     1      24.806   6.056  48.561  1.00  0.00     0.019 A 
HETATM   22  C11 UNL     1      25.558   5.197  49.364  1.00  0.00     0.013 A 
HETATM   23 BR1  UNL     1      27.336   4.814  48.828  1.00  0.00    -0.051 Br
HETATM   24  C12 UNL     1      24.952   4.680  50.498  1.00  0.00     0.048 A 
ENDBRANCH  16  18
ENDBRANCH   6  16
BRANCH   1  25
HETATM   25  O1  UNL     1      26.037  -0.616  54.498  1.00  0.00    -0.355 OA
HETATM   26  C1  UNL     1      27.207  -0.031  54.952  1.00  0.00     0.210 C 
ENDBRANCH   1  25
TORSDOF 3
ENDMDL
MODEL 7
REMARK VINA RESULT:      -7.4      2.401      4.402
REMARK  3 active torsions:
REMARK  status: ('A' for Active; 'I' for Inactive)
REMARK    1  A    between atoms: O1_2  and  C2_3 
REMARK    2  A    between atoms: C6_8  and  N2_9 
REMARK    3  A    between atoms: N2_9  and  C7_10 
ROOT
HETATM    1  C2  UNL     1      25.004   0.346  53.097  1.00  0.00     0.080 C 
HETATM    2  C3  UNL     1      25.686   0.805  52.047  1.00  0.00     0.027 C 
HETATM    3  C4  UNL     1      25.325   2.041  51.728  1.00  0.00     0.103 C 
HETATM    4  N1  UNL     1      24.191   2.800  52.097  1.00  0.00    -0.358 N 
HETATM    5  C5  UNL     1      22.945   3.342  51.676  1.00  0.00     0.132 A 
HETATM    6  C6  UNL     1      23.064   4.680  51.374  1.00  0.00     0.160 A 
HETATM    7  N3  UNL     1      22.072   5.506  50.926  1.00  0.00    -0.222 NA
HETATM    8  C13 UNL     1      20.889   4.886  50.792  1.00  0.00     0.238 A 
HETATM    9  N4  UNL     1      20.724   3.582  51.076  1.00  0.00    -0.216 NA
HETATM   10  C14 UNL     1      21.712   2.762  51.520  1.00  0.00     0.197 A 
HETATM   11  O2  UNL     1      20.999   1.544  51.658  1.00  0.00    -0.329 OA
HETATM   12  C15 UNL     1      20.920   0.917  52.928  1.00  0.00     0.205 C 
HETATM   13  C16 UNL     1      22.296   0.519  53.404  1.00  0.00     0.002 C 
HETATM   14  C17 UNL     1      23.590   0.460  53.209  1.00  0.00     0.035 C 
HETATM   15  H5  UNL     1      24.399   3.084  53.076  1.00  0.00     0.165 HD
ENDROOT
BRANCH   6  16
HETATM   16  N2  UNL     1      24.342   5.271  51.562  1.00  0.00    -0.339 N 
HETATM   17  H6  UNL     1      24.733   5.331  52.527  1.00  0.00     0.167 HD
BRANCH  16  18
HETATM   18  C7  UNL     1      25.180   5.789  50.550  1.00  0.00     0.035 A 
HETATM   19  C8  UNL     1      25.832   4.967  49.633  1.00  0.00     0.029 A 
HETATM   20  C9  UNL     1      26.664   5.485  48.665  1.00  0.00     0.004 A 
HETATM   21  C10 UNL     1      26.903   6.835  48.541  1.00  0.00     0.019 A 
HETATM   22  C11 UNL     1      26.266   7.688  49.443  1.00  0.00     0.013 A 
HETATM   23 BR1  UNL     1      26.590   9.550  49.281  1.00  0.00    -0.051 Br
HETATM   24  C12 UNL     1      25.440   7.116  50.398  1.00  0.00     0.048 A 
ENDBRANCH  16  18
ENDBRANCH   6  16
BRANCH   1  25
HETATM   25  O1  UNL     1      25.408  -0.280  54.219  1.00  0.00    -0.355 OA
HETATM   26  C1  UNL     1      26.485   0.104  55.000  1.00  0.00     0.210 C 
ENDBRANCH   1  25
TORSDOF 3
ENDMDL
MODEL 8
REMARK VINA RESULT:      -7.4      2.649      4.713
REMARK  3 active torsions:
REMARK  status: ('A' for Active; 'I' for Inactive)
REMARK    1  A    between atoms: O1_2  and  C2_3 
REMARK    2  A    between atoms: C6_8  and  N2_9 
REMARK    3  A    between atoms: N2_9  and  C7_10 
ROOT
HETATM    1  C2  UNL     1      26.449  -0.300  53.842  1.00  0.00     0.080 C 
HETATM    2  C3  UNL     1      26.517   0.027  52.552  1.00  0.00     0.027 C 
HETATM    3  C4  UNL     1      25.560   0.880  52.209  1.00  0.00     0.103 C 
HETATM    4  N1  UNL     1      24.363   1.243  52.868  1.00  0.00    -0.358 N 
HETATM    5  C5  UNL     1      22.946   1.130  52.887  1.00  0.00     0.132 A 
HETATM    6  C6  UNL     1      22.352   2.254  52.357  1.00  0.00     0.160 A 
HETATM    7  N3  UNL     1      21.012   2.475  52.209  1.00  0.00    -0.222 NA
HETATM    8  C13 UNL     1      20.257   1.455  52.647  1.00  0.00     0.238 A 
HETATM    9  N4  UNL     1      20.790   0.339  53.174  1.00  0.00    -0.216 NA
HETATM   10  C14 UNL     1      22.124   0.121  53.319  1.00  0.00     0.197 A 
HETATM   11  O2  UNL     1      22.115  -1.167  53.914  1.00  0.00    -0.329 OA
HETATM   12  C15 UNL     1      22.694  -1.352  55.196  1.00  0.00     0.205 C 
HETATM   13  C16 UNL     1      24.173  -1.048  55.152  1.00  0.00     0.002 C 
HETATM   14  C17 UNL     1      25.235  -0.685  54.478  1.00  0.00     0.035 C 
HETATM   15  H5  UNL     1      24.689   1.871  53.630  1.00  0.00     0.165 HD
ENDROOT
BRANCH   6  16
HETATM   16  N2  UNL     1      23.216   3.300  51.935  1.00  0.00    -0.339 N 
HETATM   17  H6  UNL     1      24.179   3.348  52.332  1.00  0.00     0.167 HD
BRANCH  16  18
HETATM   18  C7  UNL     1      22.912   4.306  50.993  1.00  0.00     0.035 A 
HETATM   19  C8  UNL     1      22.790   5.646  51.352  1.00  0.00     0.029 A 
HETATM   20  C9  UNL     1      22.471   6.615  50.424  1.00  0.00     0.004 A 
HETATM   21  C10 UNL     1      22.256   6.324  49.096  1.00  0.00     0.019 A 
HETATM   22  C11 UNL     1      22.372   4.991  48.701  1.00  0.00     0.013 A 
HETATM   23 BR1  UNL     1      22.077   4.580  46.873  1.00  0.00    -0.051 Br
HETATM   24  C12 UNL     1      22.694   4.056  49.672  1.00  0.00     0.048 A 
ENDBRANCH  16  18
ENDBRANCH   6  16
BRANCH   1  25
HETATM   25  O1  UNL     1      27.395  -0.353  54.801  1.00  0.00    -0.355 OA
HETATM   26  C1  UNL     1      28.661   0.197  54.699  1.00  0.00     0.210 C 
ENDBRANCH   1  25
TORSDOF 3
ENDMDL
MODEL 9
REMARK VINA RESULT:      -7.4      3.613      6.692
REMARK  3 active torsions:
REMARK  status: ('A' for Active; 'I' for Inactive)
REMARK    1  A    between atoms: O1_2  and  C2_3 
REMARK    2  A    between atoms: C6_8  and  N2_9 
REMARK    3  A    between atoms: N2_9  and  C7_10 
ROOT
HETATM    1  C2  UNL     1      24.941   3.707  49.686  1.00  0.00     0.080 C 
HETATM    2  C3  UNL     1      23.899   3.056  49.169  1.00  0.00     0.027 C 
HETATM    3  C4  UNL     1      23.189   2.440  50.105  1.00  0.00     0.103 C 
HETATM    4  N1  UNL     1      23.504   2.118  51.445  1.00  0.00    -0.358 N 
HETATM    5  C5  UNL     1      23.845   1.087  52.363  1.00  0.00     0.132 A 
HETATM    6  C6  UNL     1      22.748   0.700  53.101  1.00  0.00     0.160 A 
HETATM    7  N3  UNL     1      22.714  -0.272  54.060  1.00  0.00    -0.222 NA
HETATM    8  C13 UNL     1      23.902  -0.868  54.252  1.00  0.00     0.238 A 
HETATM    9  N4  UNL     1      25.000  -0.523  53.557  1.00  0.00    -0.216 NA
HETATM   10  C14 UNL     1      25.032   0.445  52.603  1.00  0.00     0.197 A 
HETATM   11  O2  UNL     1      26.397   0.391  52.221  1.00  0.00    -0.329 OA
HETATM   12  C15 UNL     1      27.213   1.542  52.368  1.00  0.00     0.205 C 
HETATM   13  C16 UNL     1      26.698   2.664  51.498  1.00  0.00     0.002 C 
HETATM   14  C17 UNL     1      25.829   3.117  50.628  1.00  0.00     0.035 C 
HETATM   15  H5  UNL     1      23.415   3.030  51.938  1.00  0.00     0.165 HD
ENDROOT
BRANCH   6  16
HETATM   16  N2  UNL     1      21.531   1.390  52.857  1.00  0.00    -0.339 N 
HETATM   17  H6  UNL     1      21.482   2.412  53.061  1.00  0.00     0.167 HD
BRANCH  16  18
HETATM   18  C7  UNL     1      20.344   0.832  52.335  1.00  0.00     0.035 A 
HETATM   19  C8  UNL     1      19.762   1.296  51.157  1.00  0.00     0.029 A 
HETATM   20  C9  UNL     1      18.591   0.756  50.670  1.00  0.00     0.004 A 
HETATM   21  C10 UNL     1      17.928  -0.267  51.309  1.00  0.00     0.019 A 
HETATM   22  C11 UNL     1      18.484  -0.757  52.492  1.00  0.00     0.013 A 
HETATM   23 BR1  UNL     1      17.576  -2.166  53.379  1.00  0.00    -0.051 Br
HETATM   24  C12 UNL     1      19.662  -0.179  52.938  1.00  0.00     0.048 A 
ENDBRANCH  16  18
ENDBRANCH   6  16
BRANCH   1  25
HETATM   25  O1  UNL     1      25.397   4.960  49.491  1.00  0.00    -0.355 OA
HETATM   26  C1  UNL     1      26.622   5.281  48.930  1.00  0.00     0.210 C 
ENDBRANCH   1  25
TORSDOF 3
ENDMDL
