MODEL 1
REMARK VINA RESULT:      -7.7      0.000      0.000
REMARK  3 active torsions:
REMARK  status: ('A' for Active; 'I' for Inactive)
REMARK       I    between atoms: C1_2  and  N1_3 
REMARK    1  A    between atoms: C1_2  and  C8_10 
REMARK    2  A    between atoms: N1_3  and  C2_4 
REMARK    3  A    between atoms: N2_13  and  C10_14 
ROOT
HETATM    1  C8  UNL     1      26.867   0.553  52.038  1.00  0.00     0.244 A 
HETATM    2  C9  UNL     1      27.432   1.804  52.462  1.00  0.00     0.114 A 
HETATM    3  S1  UNL     1      28.481   2.284  53.643  1.00  0.00    -0.062 SA
HETATM    4  N2  UNL     1      26.472   1.765  51.295  1.00  0.00    -0.319 N 
ENDROOT
BRANCH   1   5
HETATM    5  C1  UNL     1      25.844  -0.047  52.933  1.00  0.00     0.252 C 
HETATM    6  O1  UNL     1      26.239  -0.922  53.773  1.00  0.00    -0.270 OA
HETATM    7  N1  UNL     1      24.515   0.392  52.788  1.00  0.00    -0.325 N 
HETATM    8  H1  UNL     1      24.272   1.115  52.073  1.00  0.00     0.169 HD
BRANCH   7   9
HETATM    9  C2  UNL     1      23.246   0.132  53.379  1.00  0.00     0.034 A 
HETATM   10  C3  UNL     1      22.237   0.984  52.978  1.00  0.00     0.029 A 
HETATM   11  C4  UNL     1      20.965   0.805  53.504  1.00  0.00     0.002 A 
HETATM   12  C5  UNL     1      20.738  -0.215  54.409  1.00  0.00     0.000 A 
HETATM   13  C6  UNL     1      21.739  -1.085  54.825  1.00  0.00     0.002 A 
HETATM   14  C7  UNL     1      22.995  -0.885  54.288  1.00  0.00     0.029 A 
ENDBRANCH   7   9
ENDBRANCH   1   5
BRANCH   4  15
HETATM   15  C10 UNL     1      26.040   2.900  50.520  1.00  0.00     0.036 A 
HETATM   16  C11 UNL     1      26.866   3.700  49.757  1.00  0.00     0.031 A 
HETATM   17  C12 UNL     1      26.296   4.755  49.070  1.00  0.00     0.026 A 
HETATM   18  C13 UNL     1      24.933   4.986  49.160  1.00  0.00     0.034 A 
HETATM   19 CL1  UNL     1      24.192   6.329  48.290  1.00  0.00    -0.084 Cl
HETATM   20  C14 UNL     1      24.082   4.203  49.916  1.00  0.00     0.026 A 
HETATM   21  C15 UNL     1      24.675   3.143  50.602  1.00  0.00     0.031 A 
ENDBRANCH   4  15
TORSDOF 3
ENDMDL
MODEL 2
REMARK VINA RESULT:      -7.7      3.382      4.723
REMARK  3 active torsions:
REMARK  status: ('A' for Active; 'I' for Inactive)
REMARK       I    between atoms: C1_2  and  N1_3 
REMARK    1  A    between atoms: C1_2  and  C8_10 
REMARK    2  A    between atoms: N1_3  and  C2_4 
REMARK    3  A    between atoms: N2_13  and  C10_14 
ROOT
HETATM    1  C8  UNL     1      24.457   3.237  52.388  1.00  0.00     0.244 A 
HETATM    2  C9  UNL     1      25.351   3.032  51.282  1.00  0.00     0.114 A 
HETATM    3  S1  UNL     1      25.391   3.495  49.698  1.00  0.00    -0.062 SA
HETATM    4  N2  UNL     1      25.666   2.426  52.630  1.00  0.00    -0.319 N 
ENDROOT
BRANCH   1   5
HETATM    5  C1  UNL     1      23.162   2.511  52.335  1.00  0.00     0.252 C 
HETATM    6  O1  UNL     1      22.263   2.969  51.555  1.00  0.00    -0.270 OA
HETATM    7  N1  UNL     1      23.022   1.371  53.148  1.00  0.00    -0.325 N 
HETATM    8  H1  UNL     1      23.809   1.059  53.761  1.00  0.00     0.169 HD
BRANCH   7   9
HETATM    9  C2  UNL     1      22.029   0.392  53.432  1.00  0.00     0.034 A 
HETATM   10  C3  UNL     1      22.496  -0.735  54.078  1.00  0.00     0.029 A 
HETATM   11  C4  UNL     1      21.596  -1.743  54.395  1.00  0.00     0.002 A 
HETATM   12  C5  UNL     1      20.263  -1.598  54.061  1.00  0.00     0.000 A 
HETATM   13  C6  UNL     1      19.771  -0.473  53.411  1.00  0.00     0.002 A 
HETATM   14  C7  UNL     1      20.686   0.516  53.106  1.00  0.00     0.029 A 
ENDBRANCH   7   9
ENDBRANCH   1   5
BRANCH   4  15
HETATM   15  C10 UNL     1      26.822   1.627  52.945  1.00  0.00     0.036 A 
HETATM   16  C11 UNL     1      28.028   2.120  53.397  1.00  0.00     0.031 A 
HETATM   17  C12 UNL     1      29.044   1.220  53.655  1.00  0.00     0.026 A 
HETATM   18  C13 UNL     1      28.836  -0.136  53.459  1.00  0.00     0.034 A 
HETATM   19 CL1  UNL     1      30.123  -1.298  53.784  1.00  0.00    -0.084 Cl
HETATM   20  C14 UNL     1      27.640  -0.660  53.009  1.00  0.00     0.026 A 
HETATM   21  C15 UNL     1      26.626   0.265  52.753  1.00  0.00     0.031 A 
ENDBRANCH   4  15
TORSDOF 3
ENDMDL
MODEL 3
REMARK VINA RESULT:      -7.6      3.006      4.539
REMARK  3 active torsions:
REMARK  status: ('A' for Active; 'I' for Inactive)
REMARK       I    between atoms: C1_2  and  N1_3 
REMARK    1  A    between atoms: C1_2  and  C8_10 
REMARK    2  A    between atoms: N1_3  and  C2_4 
REMARK    3  A    between atoms: N2_13  and  C10_14 
ROOT
HETATM    1  C8  UNL     1      24.167   2.862  51.976  1.00  0.00     0.244 A 
HETATM    2  C9  UNL     1      23.755   2.817  50.600  1.00  0.00     0.114 A 
HETATM    3  S1  UNL     1      22.547   2.074  49.756  1.00  0.00    -0.062 SA
HETATM    4  N2  UNL     1      24.956   3.641  51.003  1.00  0.00    -0.319 N 
ENDROOT
BRANCH   1   5
HETATM    5  C1  UNL     1      24.797   1.631  52.518  1.00  0.00     0.252 C 
HETATM    6  O1  UNL     1      24.026   0.749  53.023  1.00  0.00    -0.270 OA
HETATM    7  N1  UNL     1      26.198   1.527  52.434  1.00  0.00    -0.325 N 
HETATM    8  H1  UNL     1      26.761   2.296  52.004  1.00  0.00     0.169 HD
BRANCH   7   9
HETATM    9  C2  UNL     1      27.211   0.594  52.794  1.00  0.00     0.034 A 
HETATM   10  C3  UNL     1      28.362   1.160  53.307  1.00  0.00     0.029 A 
HETATM   11  C4  UNL     1      29.404   0.324  53.684  1.00  0.00     0.002 A 
HETATM   12  C5  UNL     1      29.269  -1.044  53.540  1.00  0.00     0.000 A 
HETATM   13  C6  UNL     1      28.121  -1.634  53.027  1.00  0.00     0.002 A 
HETATM   14  C7  UNL     1      27.098  -0.782  52.659  1.00  0.00     0.029 A 
ENDBRANCH   7   9
ENDBRANCH   1   5
BRANCH   4  15
HETATM   15  C10 UNL     1      25.774   4.428  50.116  1.00  0.00     0.036 A 
HETATM   16  C11 UNL     1      26.872   3.958  49.425  1.00  0.00     0.031 A 
HETATM   17  C12 UNL     1      27.554   4.841  48.610  1.00  0.00     0.026 A 
HETATM   18  C13 UNL     1      27.132   6.157  48.506  1.00  0.00     0.034 A 
HETATM   19 CL1  UNL     1      27.993   7.296  47.470  1.00  0.00    -0.084 Cl
HETATM   20  C14 UNL     1      26.037   6.655  49.184  1.00  0.00     0.026 A 
HETATM   21  C15 UNL     1      25.361   5.749  50.002  1.00  0.00     0.031 A 
ENDBRANCH   4  15
TORSDOF 3
ENDMDL
MODEL 4
REMARK VINA RESULT:      -7.6      2.598      4.465
REMARK  3 active torsions:
REMARK  status: ('A' for Active; 'I' for Inactive)
REMARK       I    between atoms: C1_2  and  N1_3 
REMARK    1  A    between atoms: C1_2  and  C8_10 
REMARK    2  A    between atoms: N1_3  and  C2_4 
REMARK    3  A    between atoms: N2_13  and  C10_14 
ROOT
HETATM    1  C8  UNL     1      23.754   1.734  52.755  1.00  0.00     0.244 A 
HETATM    2  C9  UNL     1      23.180   1.812  51.441  1.00  0.00     0.114 A 
HETATM    3  S1  UNL     1      21.926   1.078  50.657  1.00  0.00    -0.062 SA
HETATM    4  N2  UNL     1      24.367   2.675  51.800  1.00  0.00    -0.319 N 
ENDROOT
BRANCH   1   5
HETATM    5  C1  UNL     1      24.522   0.502  53.069  1.00  0.00     0.252 C 
HETATM    6  O1  UNL     1      23.873  -0.492  53.538  1.00  0.00    -0.270 OA
HETATM    7  N1  UNL     1      25.908   0.520  52.827  1.00  0.00    -0.325 N 
HETATM    8  H1  UNL     1      26.366   1.376  52.441  1.00  0.00     0.169 HD
BRANCH   7   9
HETATM    9  C2  UNL     1      27.014  -0.365  52.959  1.00  0.00     0.034 A 
HETATM   10  C3  UNL     1      28.179   0.227  53.407  1.00  0.00     0.029 A 
HETATM   11  C4  UNL     1      29.310  -0.561  53.564  1.00  0.00     0.002 A 
HETATM   12  C5  UNL     1      29.248  -1.911  53.272  1.00  0.00     0.000 A 
HETATM   13  C6  UNL     1      28.087  -2.528  52.821  1.00  0.00     0.002 A 
HETATM   14  C7  UNL     1      26.975  -1.722  52.672  1.00  0.00     0.029 A 
ENDBRANCH   7   9
ENDBRANCH   1   5
BRANCH   4  15
HETATM   15  C10 UNL     1      25.020   3.616  50.925  1.00  0.00     0.036 A 
HETATM   16  C11 UNL     1      24.609   4.916  50.711  1.00  0.00     0.031 A 
HETATM   17  C12 UNL     1      25.345   5.695  49.838  1.00  0.00     0.026 A 
HETATM   18  C13 UNL     1      26.459   5.166  49.207  1.00  0.00     0.034 A 
HETATM   19 CL1  UNL     1      27.408   6.148  48.090  1.00  0.00    -0.084 Cl
HETATM   20  C14 UNL     1      26.894   3.870  49.401  1.00  0.00     0.026 A 
HETATM   21  C15 UNL     1      26.139   3.098  50.286  1.00  0.00     0.031 A 
ENDBRANCH   4  15
TORSDOF 3
ENDMDL
MODEL 5
REMARK VINA RESULT:      -7.5      3.345      6.026
REMARK  3 active torsions:
REMARK  status: ('A' for Active; 'I' for Inactive)
REMARK       I    between atoms: C1_2  and  N1_3 
REMARK    1  A    between atoms: C1_2  and  C8_10 
REMARK    2  A    between atoms: N1_3  and  C2_4 
REMARK    3  A    between atoms: N2_13  and  C10_14 
ROOT
HETATM    1  C8  UNL     1      24.729   3.008  50.223  1.00  0.00     0.244 A 
HETATM    2  C9  UNL     1      23.800   3.729  51.049  1.00  0.00     0.114 A 
HETATM    3  S1  UNL     1      23.609   5.303  51.510  1.00  0.00    -0.062 SA
HETATM    4  N2  UNL     1      23.644   2.238  50.859  1.00  0.00    -0.319 N 
ENDROOT
BRANCH   1   5
HETATM    5  C1  UNL     1      26.096   2.821  50.773  1.00  0.00     0.252 C 
HETATM    6  O1  UNL     1      27.045   3.472  50.223  1.00  0.00    -0.270 OA
HETATM    7  N1  UNL     1      26.244   1.939  51.860  1.00  0.00    -0.325 N 
HETATM    8  H1  UNL     1      25.414   1.442  52.254  1.00  0.00     0.169 HD
BRANCH   7   9
HETATM    9  C2  UNL     1      27.294   1.453  52.690  1.00  0.00     0.034 A 
HETATM   10  C3  UNL     1      27.364   0.078  52.787  1.00  0.00     0.029 A 
HETATM   11  C4  UNL     1      28.357  -0.485  53.576  1.00  0.00     0.002 A 
HETATM   12  C5  UNL     1      29.247   0.336  54.242  1.00  0.00     0.000 A 
HETATM   13  C6  UNL     1      29.195   1.722  54.159  1.00  0.00     0.002 A 
HETATM   14  C7  UNL     1      28.198   2.258  53.367  1.00  0.00     0.029 A 
ENDBRANCH   7   9
ENDBRANCH   1   5
BRANCH   4  15
HETATM   15  C10 UNL     1      22.613   1.418  51.444  1.00  0.00     0.036 A 
HETATM   16  C11 UNL     1      21.388   1.154  50.869  1.00  0.00     0.031 A 
HETATM   17  C12 UNL     1      20.505   0.346  51.560  1.00  0.00     0.026 A 
HETATM   18  C13 UNL     1      20.861  -0.173  52.794  1.00  0.00     0.034 A 
HETATM   19 CL1  UNL     1      19.745  -1.206  53.688  1.00  0.00    -0.084 Cl
HETATM   20  C14 UNL     1      22.080   0.073  53.395  1.00  0.00     0.026 A 
HETATM   21  C15 UNL     1      22.958   0.890  52.683  1.00  0.00     0.031 A 
ENDBRANCH   4  15
TORSDOF 3
ENDMDL
MODEL 6
REMARK VINA RESULT:      -7.5      3.868      5.481
REMARK  3 active torsions:
REMARK  status: ('A' for Active; 'I' for Inactive)
REMARK       I    between atoms: C1_2  and  N1_3 
REMARK    1  A    between atoms: C1_2  and  C8_10 
REMARK    2  A    between atoms: N1_3  and  C2_4 
REMARK    3  A    between atoms: N2_13  and  C10_14 
ROOT
HETATM    1  C8  UNL     1      23.098   1.018  53.303  1.00  0.00     0.244 A 
HETATM    2  C9  UNL     1      23.930   1.429  52.206  1.00  0.00     0.114 A 
HETATM    3  S1  UNL     1      23.728   2.359  50.858  1.00  0.00    -0.062 SA
HETATM    4  N2  UNL     1      24.494   0.541  53.292  1.00  0.00    -0.319 N 
ENDROOT
BRANCH   1   5
HETATM    5  C1  UNL     1      22.045   0.017  52.996  1.00  0.00     0.252 C 
HETATM    6  O1  UNL     1      22.398  -1.207  52.931  1.00  0.00    -0.270 OA
HETATM    7  N1  UNL     1      20.735   0.491  52.799  1.00  0.00    -0.325 N 
HETATM    8  H1  UNL     1      20.526   1.513  52.870  1.00  0.00     0.169 HD
BRANCH   7   9
HETATM    9  C2  UNL     1      19.451  -0.046  52.498  1.00  0.00     0.034 A 
HETATM   10  C3  UNL     1      18.978  -0.961  53.416  1.00  0.00     0.029 A 
HETATM   11  C4  UNL     1      17.733  -1.537  53.203  1.00  0.00     0.002 A 
HETATM   12  C5  UNL     1      17.000  -1.184  52.085  1.00  0.00     0.000 A 
HETATM   13  C6  UNL     1      17.456  -0.265  51.149  1.00  0.00     0.002 A 
HETATM   14  C7  UNL     1      18.698   0.293  51.384  1.00  0.00     0.029 A 
ENDBRANCH   7   9
ENDBRANCH   1   5
BRANCH   4  15
HETATM   15  C10 UNL     1      25.842   0.037  53.352  1.00  0.00     0.036 A 
HETATM   16  C11 UNL     1      26.314  -1.051  52.647  1.00  0.00     0.031 A 
HETATM   17  C12 UNL     1      27.637  -1.411  52.814  1.00  0.00     0.026 A 
HETATM   18  C13 UNL     1      28.450  -0.687  53.671  1.00  0.00     0.034 A 
HETATM   19 CL1  UNL     1      30.141  -1.134  53.895  1.00  0.00    -0.084 Cl
HETATM   20  C14 UNL     1      28.007   0.406  54.390  1.00  0.00     0.026 A 
HETATM   21  C15 UNL     1      26.668   0.755  54.208  1.00  0.00     0.031 A 
ENDBRANCH   4  15
TORSDOF 3
ENDMDL
MODEL 7
REMARK VINA RESULT:      -7.4      2.632      6.084
REMARK  3 active torsions:
REMARK  status: ('A' for Active; 'I' for Inactive)
REMARK       I    between atoms: C1_2  and  N1_3 
REMARK    1  A    between atoms: C1_2  and  C8_10 
REMARK    2  A    between atoms: N1_3  and  C2_4 
REMARK    3  A    between atoms: N2_13  and  C10_14 
ROOT
HETATM    1  C8  UNL     1      26.256   0.960  53.608  1.00  0.00     0.244 A 
HETATM    2  C9  UNL     1      25.995  -0.361  53.107  1.00  0.00     0.114 A 
HETATM    3  S1  UNL     1      26.918  -1.628  52.589  1.00  0.00    -0.062 SA
HETATM    4  N2  UNL     1      24.846   0.541  53.493  1.00  0.00    -0.319 N 
ENDROOT
BRANCH   1   5
HETATM    5  C1  UNL     1      26.741   1.957  52.620  1.00  0.00     0.252 C 
HETATM    6  O1  UNL     1      28.000   2.154  52.553  1.00  0.00    -0.270 OA
HETATM    7  N1  UNL     1      25.778   2.612  51.830  1.00  0.00    -0.325 N 
HETATM    8  H1  UNL     1      24.763   2.393  51.945  1.00  0.00     0.169 HD
BRANCH   7   9
HETATM    9  C2  UNL     1      25.747   3.594  50.800  1.00  0.00     0.034 A 
HETATM   10  C3  UNL     1      24.604   4.368  50.773  1.00  0.00     0.029 A 
HETATM   11  C4  UNL     1      24.487   5.351  49.802  1.00  0.00     0.002 A 
HETATM   12  C5  UNL     1      25.509   5.536  48.890  1.00  0.00     0.000 A 
HETATM   13  C6  UNL     1      26.668   4.770  48.899  1.00  0.00     0.002 A 
HETATM   14  C7  UNL     1      26.760   3.797  49.875  1.00  0.00     0.029 A 
ENDBRANCH   7   9
ENDBRANCH   1   5
BRANCH   4  15
HETATM   15  C10 UNL     1      23.447   0.206  53.412  1.00  0.00     0.036 A 
HETATM   16  C11 UNL     1      22.800  -0.698  54.228  1.00  0.00     0.031 A 
HETATM   17  C12 UNL     1      21.450  -0.911  54.022  1.00  0.00     0.026 A 
HETATM   18  C13 UNL     1      20.786  -0.225  53.018  1.00  0.00     0.034 A 
HETATM   19 CL1  UNL     1      19.063  -0.486  52.742  1.00  0.00    -0.084 Cl
HETATM   20  C14 UNL     1      21.406   0.686  52.185  1.00  0.00     0.026 A 
HETATM   21  C15 UNL     1      22.769   0.887  52.409  1.00  0.00     0.031 A 
ENDBRANCH   4  15
TORSDOF 3
ENDMDL
MODEL 8
REMARK VINA RESULT:      -7.4      4.090      7.315
REMARK  3 active torsions:
REMARK  status: ('A' for Active; 'I' for Inactive)
REMARK       I    between atoms: C1_2  and  N1_3 
REMARK    1  A    between atoms: C1_2  and  C8_10 
REMARK    2  A    between atoms: N1_3  and  C2_4 
REMARK    3  A    between atoms: N2_13  and  C10_14 
ROOT
HETATM    1  C8  UNL     1      24.183   2.651  50.637  1.00  0.00     0.244 A 
HETATM    2  C9  UNL     1      24.359   3.071  52.000  1.00  0.00     0.114 A 
HETATM    3  S1  UNL     1      23.591   4.118  53.018  1.00  0.00    -0.062 SA
HETATM    4  N2  UNL     1      25.299   2.053  51.395  1.00  0.00    -0.319 N 
ENDROOT
BRANCH   1   5
HETATM    5  C1  UNL     1      24.539   3.642  49.589  1.00  0.00     0.252 C 
HETATM    6  O1  UNL     1      23.693   3.839  48.655  1.00  0.00    -0.270 OA
HETATM    7  N1  UNL     1      25.784   4.290  49.702  1.00  0.00    -0.325 N 
HETATM    8  H1  UNL     1      26.423   4.071  50.500  1.00  0.00     0.169 HD
BRANCH   7   9
HETATM    9  C2  UNL     1      26.536   5.264  48.988  1.00  0.00     0.034 A 
HETATM   10  C3  UNL     1      27.841   4.904  48.718  1.00  0.00     0.029 A 
HETATM   11  C4  UNL     1      28.649   5.794  48.026  1.00  0.00     0.002 A 
HETATM   12  C5  UNL     1      28.134   7.013  47.623  1.00  0.00     0.000 A 
HETATM   13  C6  UNL     1      26.825   7.396  47.883  1.00  0.00     0.002 A 
HETATM   14  C7  UNL     1      26.041   6.492  48.574  1.00  0.00     0.029 A 
ENDBRANCH   7   9
ENDBRANCH   1   5
BRANCH   4  15
HETATM   15  C10 UNL     1      26.407   1.425  52.068  1.00  0.00     0.036 A 
HETATM   16  C11 UNL     1      27.459   2.094  52.657  1.00  0.00     0.031 A 
HETATM   17  C12 UNL     1      28.449   1.346  53.265  1.00  0.00     0.026 A 
HETATM   18  C13 UNL     1      28.367  -0.038  53.269  1.00  0.00     0.034 A 
HETATM   19 CL1  UNL     1      29.622  -1.008  54.041  1.00  0.00    -0.084 Cl
HETATM   20  C14 UNL     1      27.326  -0.736  52.688  1.00  0.00     0.026 A 
HETATM   21  C15 UNL     1      26.337   0.038  52.080  1.00  0.00     0.031 A 
ENDBRANCH   4  15
TORSDOF 3
ENDMDL
MODEL 9
REMARK VINA RESULT:      -7.3      3.274      4.691
REMARK  3 active torsions:
REMARK  status: ('A' for Active; 'I' for Inactive)
REMARK       I    between atoms: C1_2  and  N1_3 
REMARK    1  A    between atoms: C1_2  and  C8_10 
REMARK    2  A    between atoms: N1_3  and  C2_4 
REMARK    3  A    between atoms: N2_13  and  C10_14 
ROOT
HETATM    1  C8  UNL     1      23.879   3.552  51.290  1.00  0.00     0.244 A 
HETATM    2  C9  UNL     1      23.751   3.387  49.869  1.00  0.00     0.114 A 
HETATM    3  S1  UNL     1      22.758   2.529  48.868  1.00  0.00    -0.062 SA
HETATM    4  N2  UNL     1      24.823   4.291  50.431  1.00  0.00    -0.319 N 
ENDROOT
BRANCH   1   5
HETATM    5  C1  UNL     1      24.424   2.394  52.045  1.00  0.00     0.252 C 
HETATM    6  O1  UNL     1      23.605   1.710  52.743  1.00  0.00    -0.270 OA
HETATM    7  N1  UNL     1      25.803   2.137  51.934  1.00  0.00    -0.325 N 
HETATM    8  H1  UNL     1      26.408   2.747  51.339  1.00  0.00     0.169 HD
BRANCH   7   9
HETATM    9  C2  UNL     1      26.746   1.197  52.436  1.00  0.00     0.034 A 
HETATM   10  C3  UNL     1      26.391  -0.126  52.262  1.00  0.00     0.029 A 
HETATM   11  C4  UNL     1      27.252  -1.113  52.722  1.00  0.00     0.002 A 
HETATM   12  C5  UNL     1      28.435  -0.754  53.340  1.00  0.00     0.000 A 
HETATM   13  C6  UNL     1      28.812   0.570  53.525  1.00  0.00     0.002 A 
HETATM   14  C7  UNL     1      27.939   1.534  53.059  1.00  0.00     0.029 A 
ENDBRANCH   7   9
ENDBRANCH   1   5
BRANCH   4  15
HETATM   15  C10 UNL     1      25.779   5.045  49.661  1.00  0.00     0.036 A 
HETATM   16  C11 UNL     1      25.630   6.363  49.283  1.00  0.00     0.031 A 
HETATM   17  C12 UNL     1      26.640   6.946  48.542  1.00  0.00     0.026 A 
HETATM   18  C13 UNL     1      27.762   6.209  48.198  1.00  0.00     0.034 A 
HETATM   19 CL1  UNL     1      29.059   6.939  47.252  1.00  0.00    -0.084 Cl
HETATM   20  C14 UNL     1      27.939   4.888  48.562  1.00  0.00     0.026 A 
HETATM   21  C15 UNL     1      26.909   4.317  49.310  1.00  0.00     0.031 A 
ENDBRANCH   4  15
TORSDOF 3
ENDMDL
