MODEL 1
REMARK VINA RESULT:      -7.4      0.000      0.000
REMARK  9 active torsions:
REMARK  status: ('A' for Active; 'I' for Inactive)
REMARK    1  A    between atoms: C2_2  and  C3_3 
REMARK    2  A    between atoms: C5_7  and  N3_8 
REMARK    3  A    between atoms: N3_8  and  C6_9 
REMARK    4  A    between atoms: C6_9  and  C7_10 
REMARK    5  A    between atoms: C6_9  and  C15_21 
REMARK    6  A    between atoms: C8_11  and  C9_13 
REMARK    7  A    between atoms: C9_13  and  O1_14 
REMARK    8  A    between atoms: O1_14  and  C10_15 
REMARK    9  A    between atoms: C10_15  and  C11_16 
ROOT
HETATM    1  C6  UNL     1      24.973   3.072  51.192  1.00  0.00     0.107 C 
ENDROOT
BRANCH   1   2
HETATM    2  N3  UNL     1      26.125   2.752  51.949  1.00  0.00    -0.366 N 
HETATM    3  H7  UNL     1      26.803   3.511  52.267  1.00  0.00     0.161 HD
BRANCH   2   4
HETATM    4  C5  UNL     1      26.612   1.493  52.423  1.00  0.00     0.133 A 
HETATM    5  N2  UNL     1      25.893   0.400  52.112  1.00  0.00    -0.224 NA
HETATM    6  C4  UNL     1      26.211  -0.854  52.461  1.00  0.00     0.235 A 
HETATM    7  N1  UNL     1      27.343  -1.055  53.183  1.00  0.00    -0.246 NA
HETATM    8  C3  UNL     1      28.129  -0.002  53.540  1.00  0.00     0.045 A 
HETATM    9  C17 UNL     1      27.780   1.276  53.169  1.00  0.00     0.008 A 
HETATM   10  C18 UNL     1      28.557   2.481  53.502  1.00  0.00     0.054 C 
BRANCH   8  11
HETATM   11  C2  UNL     1      29.353  -0.158  54.315  1.00  0.00     0.055 C 
HETATM   12  C1  UNL     1      30.120  -1.341  53.757  1.00  0.00     0.011 C 
ENDBRANCH   8  11
ENDBRANCH   2   4
ENDBRANCH   1   2
BRANCH   1  13
HETATM   13  C7  UNL     1      23.808   3.556  51.982  1.00  0.00     0.019 C 
HETATM   14  C8  UNL     1      22.678   2.883  51.808  1.00  0.00     0.033 C 
HETATM   15 CL1  UNL     1      22.994   1.585  50.634  1.00  0.00    -0.087 Cl
BRANCH  14  16
HETATM   16  C9  UNL     1      21.261   2.795  52.207  1.00  0.00     0.218 C 
BRANCH  16  17
HETATM   17  O1  UNL     1      20.689   1.554  52.129  1.00  0.00    -0.385 OA
BRANCH  17  18
HETATM   18  C10 UNL     1      20.664   0.968  53.376  1.00  0.00     0.177 C 
BRANCH  18  19
HETATM   19  C11 UNL     1      21.389  -0.379  53.335  1.00  0.00     0.041 A 
HETATM   20  C12 UNL     1      21.189  -1.202  54.514  1.00  0.00     0.018 A 
HETATM   21  C13 UNL     1      22.431  -1.104  54.883  1.00  0.00     0.091 A 
HETATM   22  F1  UNL     1      23.085  -1.621  55.950  1.00  0.00    -0.211 F 
HETATM   23  C14 UNL     1      22.809  -0.267  53.757  1.00  0.00     0.080 A 
ENDBRANCH  18  19
ENDBRANCH  17  18
ENDBRANCH  16  17
ENDBRANCH  14  16
ENDBRANCH   1  13
BRANCH   1  24
HETATM   24  C15 UNL     1      25.246   3.884  49.959  1.00  0.00     0.025 C 
HETATM   25  C16 UNL     1      26.651   3.855  49.461  1.00  0.00     0.007 C 
ENDBRANCH   1  24
TORSDOF 9
ENDMDL
MODEL 2
REMARK VINA RESULT:      -6.9      1.778      2.067
REMARK  9 active torsions:
REMARK  status: ('A' for Active; 'I' for Inactive)
REMARK    1  A    between atoms: C2_2  and  C3_3 
REMARK    2  A    between atoms: C5_7  and  N3_8 
REMARK    3  A    between atoms: N3_8  and  C6_9 
REMARK    4  A    between atoms: C6_9  and  C7_10 
REMARK    5  A    between atoms: C6_9  and  C15_21 
REMARK    6  A    between atoms: C8_11  and  C9_13 
REMARK    7  A    between atoms: C9_13  and  O1_14 
REMARK    8  A    between atoms: O1_14  and  C10_15 
REMARK    9  A    between atoms: C10_15  and  C11_16 
ROOT
HETATM    1  C6  UNL     1      24.688   3.188  51.654  1.00  0.00     0.107 C 
ENDROOT
BRANCH   1   2
HETATM    2  N3  UNL     1      25.449   2.877  52.806  1.00  0.00    -0.366 N 
HETATM    3  H7  UNL     1      25.764   3.641  53.480  1.00  0.00     0.161 HD
BRANCH   2   4
HETATM    4  C5  UNL     1      25.928   1.623  53.299  1.00  0.00     0.133 A 
HETATM    5  N2  UNL     1      25.024   0.640  53.456  1.00  0.00    -0.224 NA
HETATM    6  C4  UNL     1      25.303  -0.597  53.892  1.00  0.00     0.235 A 
HETATM    7  N1  UNL     1      26.589  -0.897  54.203  1.00  0.00    -0.246 NA
HETATM    8  C3  UNL     1      27.567   0.042  54.074  1.00  0.00     0.045 A 
HETATM    9  C17 UNL     1      27.255   1.305  53.624  1.00  0.00     0.008 A 
HETATM   10  C18 UNL     1      28.233   2.390  53.448  1.00  0.00     0.054 C 
BRANCH   8  11
HETATM   11  C2  UNL     1      28.963  -0.223  54.395  1.00  0.00     0.055 C 
HETATM   12  C1  UNL     1      29.487  -1.255  53.415  1.00  0.00     0.011 C 
ENDBRANCH   8  11
ENDBRANCH   2   4
ENDBRANCH   1   2
BRANCH   1  13
HETATM   13  C7  UNL     1      23.395   3.876  51.914  1.00  0.00     0.019 C 
HETATM   14  C8  UNL     1      22.307   3.208  51.551  1.00  0.00     0.033 C 
HETATM   15 CL1  UNL     1      22.829   1.658  50.854  1.00  0.00    -0.087 Cl
BRANCH  14  16
HETATM   16  C9  UNL     1      20.833   3.253  51.499  1.00  0.00     0.218 C 
BRANCH  16  17
HETATM   17  O1  UNL     1      20.175   2.663  52.544  1.00  0.00    -0.385 OA
BRANCH  17  18
HETATM   18  C10 UNL     1      19.058   2.001  52.083  1.00  0.00     0.177 C 
BRANCH  18  19
HETATM   19  C11 UNL     1      19.376   0.518  51.881  1.00  0.00     0.041 A 
HETATM   20  C12 UNL     1      18.217  -0.356  51.939  1.00  0.00     0.018 A 
HETATM   21  C13 UNL     1      18.613  -0.928  53.036  1.00  0.00     0.091 A 
HETATM   22  F1  UNL     1      18.050  -1.911  53.778  1.00  0.00    -0.211 F 
HETATM   23  C14 UNL     1      19.828  -0.137  53.135  1.00  0.00     0.080 A 
ENDBRANCH  18  19
ENDBRANCH  17  18
ENDBRANCH  16  17
ENDBRANCH  14  16
ENDBRANCH   1  13
BRANCH   1  24
HETATM   24  C15 UNL     1      25.480   3.795  50.532  1.00  0.00     0.025 C 
HETATM   25  C16 UNL     1      26.426   2.878  49.835  1.00  0.00     0.007 C 
ENDBRANCH   1  24
TORSDOF 9
ENDMDL
MODEL 3
REMARK VINA RESULT:      -6.9      2.895      5.385
REMARK  9 active torsions:
REMARK  status: ('A' for Active; 'I' for Inactive)
REMARK    1  A    between atoms: C2_2  and  C3_3 
REMARK    2  A    between atoms: C5_7  and  N3_8 
REMARK    3  A    between atoms: N3_8  and  C6_9 
REMARK    4  A    between atoms: C6_9  and  C7_10 
REMARK    5  A    between atoms: C6_9  and  C15_21 
REMARK    6  A    between atoms: C8_11  and  C9_13 
REMARK    7  A    between atoms: C9_13  and  O1_14 
REMARK    8  A    between atoms: O1_14  and  C10_15 
REMARK    9  A    between atoms: C10_15  and  C11_16 
ROOT
HETATM    1  C6  UNL     1      23.136   0.160  53.030  1.00  0.00     0.107 C 
ENDROOT
BRANCH   1   2
HETATM    2  N3  UNL     1      24.304  -0.636  53.101  1.00  0.00    -0.366 N 
HETATM    3  H7  UNL     1      24.273  -1.680  52.885  1.00  0.00     0.161 HD
BRANCH   2   4
HETATM    4  C5  UNL     1      25.652  -0.290  53.436  1.00  0.00     0.133 A 
HETATM    5  N2  UNL     1      25.838   0.841  54.139  1.00  0.00    -0.224 NA
HETATM    6  C4  UNL     1      27.028   1.303  54.547  1.00  0.00     0.235 A 
HETATM    7  N1  UNL     1      28.139   0.589  54.236  1.00  0.00    -0.246 NA
HETATM    8  C3  UNL     1      28.039  -0.568  53.525  1.00  0.00     0.045 A 
HETATM    9  C17 UNL     1      26.805  -1.022  53.118  1.00  0.00     0.008 A 
HETATM   10  C18 UNL     1      26.586  -2.257  52.348  1.00  0.00     0.054 C 
BRANCH   8  11
HETATM   11  C2  UNL     1      29.197  -1.374  53.161  1.00  0.00     0.055 C 
HETATM   12  C1  UNL     1      30.422  -0.768  53.820  1.00  0.00     0.011 C 
ENDBRANCH   8  11
ENDBRANCH   2   4
ENDBRANCH   1   2
BRANCH   1  13
HETATM   13  C7  UNL     1      22.626   0.417  51.656  1.00  0.00     0.019 C 
HETATM   14  C8  UNL     1      22.805   1.650  51.199  1.00  0.00     0.033 C 
HETATM   15 CL1  UNL     1      23.634   2.583  52.466  1.00  0.00    -0.087 Cl
BRANCH  14  16
HETATM   16  C9  UNL     1      22.583   2.548  50.050  1.00  0.00     0.218 C 
BRANCH  16  17
HETATM   17  O1  UNL     1      23.112   3.805  50.157  1.00  0.00    -0.385 OA
BRANCH  17  18
HETATM   18  C10 UNL     1      24.092   3.986  49.206  1.00  0.00     0.177 C 
BRANCH  18  19
HETATM   19  C11 UNL     1      25.378   4.484  49.869  1.00  0.00     0.041 A 
HETATM   20  C12 UNL     1      26.170   5.377  49.042  1.00  0.00     0.018 A 
HETATM   21  C13 UNL     1      27.144   4.524  48.928  1.00  0.00     0.091 A 
HETATM   22  F1  UNL     1      28.326   4.608  48.273  1.00  0.00    -0.211 F 
HETATM   23  C14 UNL     1      26.492   3.510  49.739  1.00  0.00     0.080 A 
ENDBRANCH  18  19
ENDBRANCH  17  18
ENDBRANCH  16  17
ENDBRANCH  14  16
ENDBRANCH   1  13
BRANCH   1  24
HETATM   24  C15 UNL     1      22.065  -0.222  54.010  1.00  0.00     0.025 C 
HETATM   25  C16 UNL     1      22.472  -1.184  55.075  1.00  0.00     0.007 C 
ENDBRANCH   1  24
TORSDOF 9
ENDMDL
MODEL 4
REMARK VINA RESULT:      -6.7      2.813      5.674
REMARK  9 active torsions:
REMARK  status: ('A' for Active; 'I' for Inactive)
REMARK    1  A    between atoms: C2_2  and  C3_3 
REMARK    2  A    between atoms: C5_7  and  N3_8 
REMARK    3  A    between atoms: N3_8  and  C6_9 
REMARK    4  A    between atoms: C6_9  and  C7_10 
REMARK    5  A    between atoms: C6_9  and  C15_21 
REMARK    6  A    between atoms: C8_11  and  C9_13 
REMARK    7  A    between atoms: C9_13  and  O1_14 
REMARK    8  A    between atoms: O1_14  and  C10_15 
REMARK    9  A    between atoms: C10_15  and  C11_16 
ROOT
HETATM    1  C6  UNL     1      24.626   3.174  50.873  1.00  0.00     0.107 C 
ENDROOT
BRANCH   1   2
HETATM    2  N3  UNL     1      23.345   3.042  50.282  1.00  0.00    -0.366 N 
HETATM    3  H7  UNL     1      23.218   3.106  49.225  1.00  0.00     0.161 HD
BRANCH   2   4
HETATM    4  C5  UNL     1      22.063   2.816  50.873  1.00  0.00     0.133 A 
HETATM    5  N2  UNL     1      21.701   3.626  51.884  1.00  0.00    -0.224 NA
HETATM    6  C4  UNL     1      20.533   3.564  52.538  1.00  0.00     0.235 A 
HETATM    7  N1  UNL     1      19.635   2.617  52.165  1.00  0.00    -0.246 NA
HETATM    8  C3  UNL     1      19.922   1.755  51.151  1.00  0.00     0.045 A 
HETATM    9  C17 UNL     1      21.129   1.840  50.495  1.00  0.00     0.008 A 
HETATM   10  C18 UNL     1      21.538   0.961  49.388  1.00  0.00     0.054 C 
BRANCH   8  11
HETATM   11  C2  UNL     1      18.998   0.719  50.710  1.00  0.00     0.055 C 
HETATM   12  C1  UNL     1      18.687  -0.176  51.895  1.00  0.00     0.011 C 
ENDBRANCH   8  11
ENDBRANCH   2   4
ENDBRANCH   1   2
BRANCH   1  13
HETATM   13  C7  UNL     1      25.333   1.895  51.147  1.00  0.00     0.019 C 
HETATM   14  C8  UNL     1      25.478   1.583  52.428  1.00  0.00     0.033 C 
HETATM   15 CL1  UNL     1      24.732   2.879  53.390  1.00  0.00    -0.087 Cl
BRANCH  14  16
HETATM   16  C9  UNL     1      26.020   0.581  53.365  1.00  0.00     0.218 C 
BRANCH  16  17
HETATM   17  O1  UNL     1      25.391  -0.634  53.378  1.00  0.00    -0.385 OA
BRANCH  17  18
HETATM   18  C10 UNL     1      24.462  -0.673  54.396  1.00  0.00     0.177 C 
BRANCH  18  19
HETATM   19  C11 UNL     1      23.069  -0.937  53.822  1.00  0.00     0.041 A 
HETATM   20  C12 UNL     1      22.292   0.262  53.563  1.00  0.00     0.018 A 
HETATM   21  C13 UNL     1      21.423  -0.013  54.488  1.00  0.00     0.091 A 
HETATM   22  F1  UNL     1      20.318   0.655  54.897  1.00  0.00    -0.211 F 
HETATM   23  C14 UNL     1      22.074  -1.251  54.880  1.00  0.00     0.080 A 
ENDBRANCH  18  19
ENDBRANCH  17  18
ENDBRANCH  16  17
ENDBRANCH  14  16
ENDBRANCH   1  13
BRANCH   1  24
HETATM   24  C15 UNL     1      25.495   4.222  50.240  1.00  0.00     0.025 C 
HETATM   25  C16 UNL     1      26.671   3.716  49.476  1.00  0.00     0.007 C 
ENDBRANCH   1  24
TORSDOF 9
ENDMDL
MODEL 5
REMARK VINA RESULT:      -6.6      3.152      5.550
REMARK  9 active torsions:
REMARK  status: ('A' for Active; 'I' for Inactive)
REMARK    1  A    between atoms: C2_2  and  C3_3 
REMARK    2  A    between atoms: C5_7  and  N3_8 
REMARK    3  A    between atoms: N3_8  and  C6_9 
REMARK    4  A    between atoms: C6_9  and  C7_10 
REMARK    5  A    between atoms: C6_9  and  C15_21 
REMARK    6  A    between atoms: C8_11  and  C9_13 
REMARK    7  A    between atoms: C9_13  and  O1_14 
REMARK    8  A    between atoms: O1_14  and  C10_15 
REMARK    9  A    between atoms: C10_15  and  C11_16 
ROOT
HETATM    1  C6  UNL     1      22.945   1.555  51.761  1.00  0.00     0.107 C 
ENDROOT
BRANCH   1   2
HETATM    2  N3  UNL     1      24.066   0.691  51.799  1.00  0.00    -0.366 N 
HETATM    3  H7  UNL     1      24.349   0.118  50.945  1.00  0.00     0.161 HD
BRANCH   2   4
HETATM    4  C5  UNL     1      24.988   0.403  52.854  1.00  0.00     0.133 A 
HETATM    5  N2  UNL     1      24.534  -0.334  53.883  1.00  0.00    -0.224 NA
HETATM    6  C4  UNL     1      25.265  -0.707  54.943  1.00  0.00     0.235 A 
HETATM    7  N1  UNL     1      26.564  -0.319  54.999  1.00  0.00    -0.246 NA
HETATM    8  C3  UNL     1      27.103   0.431  53.998  1.00  0.00     0.045 A 
HETATM    9  C17 UNL     1      26.332   0.801  52.920  1.00  0.00     0.008 A 
HETATM   10  C18 UNL     1      26.815   1.607  51.789  1.00  0.00     0.054 C 
BRANCH   8  11
HETATM   11  C2  UNL     1      28.490   0.877  54.007  1.00  0.00     0.055 C 
HETATM   12  C1  UNL     1      29.373  -0.311  53.674  1.00  0.00     0.011 C 
ENDBRANCH   8  11
ENDBRANCH   2   4
ENDBRANCH   1   2
BRANCH   1  13
HETATM   13  C7  UNL     1      22.948   2.549  50.654  1.00  0.00     0.019 C 
HETATM   14  C8  UNL     1      23.312   3.780  50.989  1.00  0.00     0.033 C 
HETATM   15 CL1  UNL     1      23.681   3.781  52.729  1.00  0.00    -0.087 Cl
BRANCH  14  16
HETATM   16  C9  UNL     1      23.527   5.148  50.481  1.00  0.00     0.218 C 
BRANCH  16  17
HETATM   17  O1  UNL     1      24.354   5.944  51.227  1.00  0.00    -0.385 OA
BRANCH  17  18
HETATM   18  C10 UNL     1      25.255   6.586  50.405  1.00  0.00     0.177 C 
BRANCH  18  19
HETATM   19  C11 UNL     1      25.534   5.732  49.167  1.00  0.00     0.041 A 
HETATM   20  C12 UNL     1      26.497   4.667  49.380  1.00  0.00     0.018 A 
HETATM   21  C13 UNL     1      27.380   5.209  48.596  1.00  0.00     0.091 A 
HETATM   22  F1  UNL     1      28.624   4.806  48.244  1.00  0.00    -0.211 F 
HETATM   23  C14 UNL     1      26.543   6.352  48.270  1.00  0.00     0.080 A 
ENDBRANCH  18  19
ENDBRANCH  17  18
ENDBRANCH  16  17
ENDBRANCH  14  16
ENDBRANCH   1  13
BRANCH   1  24
HETATM   24  C15 UNL     1      21.625   0.866  51.951  1.00  0.00     0.025 C 
HETATM   25  C16 UNL     1      21.123   0.800  53.353  1.00  0.00     0.007 C 
ENDBRANCH   1  24
TORSDOF 9
ENDMDL
MODEL 6
REMARK VINA RESULT:      -6.5      3.612      6.329
REMARK  9 active torsions:
REMARK  status: ('A' for Active; 'I' for Inactive)
REMARK    1  A    between atoms: C2_2  and  C3_3 
REMARK    2  A    between atoms: C5_7  and  N3_8 
REMARK    3  A    between atoms: N3_8  and  C6_9 
REMARK    4  A    between atoms: C6_9  and  C7_10 
REMARK    5  A    between atoms: C6_9  and  C15_21 
REMARK    6  A    between atoms: C8_11  and  C9_13 
REMARK    7  A    between atoms: C9_13  and  O1_14 
REMARK    8  A    between atoms: O1_14  and  C10_15 
REMARK    9  A    between atoms: C10_15  and  C11_16 
ROOT
HETATM    1  C6  UNL     1      23.637   1.591  52.731  1.00  0.00     0.107 C 
ENDROOT
BRANCH   1   2
HETATM    2  N3  UNL     1      24.574   1.186  53.712  1.00  0.00    -0.366 N 
HETATM    3  H7  UNL     1      24.255   0.870  54.680  1.00  0.00     0.161 HD
BRANCH   2   4
HETATM    4  C5  UNL     1      26.001   1.104  53.664  1.00  0.00     0.133 A 
HETATM    5  N2  UNL     1      26.689   2.229  53.927  1.00  0.00    -0.224 NA
HETATM    6  C4  UNL     1      28.026   2.326  53.940  1.00  0.00     0.235 A 
HETATM    7  N1  UNL     1      28.756   1.215  53.669  1.00  0.00    -0.246 NA
HETATM    8  C3  UNL     1      28.137   0.034  53.391  1.00  0.00     0.045 A 
HETATM    9  C17 UNL     1      26.763  -0.040  53.385  1.00  0.00     0.008 A 
HETATM   10  C18 UNL     1      25.997  -1.263  53.098  1.00  0.00     0.054 C 
BRANCH   8  11
HETATM   11  C2  UNL     1      28.870  -1.189  53.091  1.00  0.00     0.055 C 
HETATM   12  C1  UNL     1      30.217  -1.118  53.785  1.00  0.00     0.011 C 
ENDBRANCH   8  11
ENDBRANCH   2   4
ENDBRANCH   1   2
BRANCH   1  13
HETATM   13  C7  UNL     1      24.222   2.004  51.427  1.00  0.00     0.019 C 
HETATM   14  C8  UNL     1      24.253   3.311  51.201  1.00  0.00     0.033 C 
HETATM   15 CL1  UNL     1      23.547   4.124  52.616  1.00  0.00    -0.087 Cl
BRANCH  14  16
HETATM   16  C9  UNL     1      24.643   4.352  50.231  1.00  0.00     0.218 C 
BRANCH  16  17
HETATM   17  O1  UNL     1      25.983   4.611  50.131  1.00  0.00    -0.385 OA
BRANCH  17  18
HETATM   18  C10 UNL     1      26.181   5.885  49.643  1.00  0.00     0.177 C 
BRANCH  18  19
HETATM   19  C11 UNL     1      26.935   5.823  48.314  1.00  0.00     0.041 A 
HETATM   20  C12 UNL     1      28.298   5.335  48.421  1.00  0.00     0.018 A 
HETATM   21  C13 UNL     1      28.812   6.482  48.094  1.00  0.00     0.091 A 
HETATM   22  F1  UNL     1      30.102   6.872  47.959  1.00  0.00    -0.211 F 
HETATM   23  C14 UNL     1      27.524   7.135  47.939  1.00  0.00     0.080 A 
ENDBRANCH  18  19
ENDBRANCH  17  18
ENDBRANCH  16  17
ENDBRANCH  14  16
ENDBRANCH   1  13
BRANCH   1  24
HETATM   24  C15 UNL     1      22.447   0.686  52.599  1.00  0.00     0.025 C 
HETATM   25  C16 UNL     1      22.377  -0.442  53.573  1.00  0.00     0.007 C 
ENDBRANCH   1  24
TORSDOF 9
ENDMDL
MODEL 7
REMARK VINA RESULT:      -6.5      2.329      3.657
REMARK  9 active torsions:
REMARK  status: ('A' for Active; 'I' for Inactive)
REMARK    1  A    between atoms: C2_2  and  C3_3 
REMARK    2  A    between atoms: C5_7  and  N3_8 
REMARK    3  A    between atoms: N3_8  and  C6_9 
REMARK    4  A    between atoms: C6_9  and  C7_10 
REMARK    5  A    between atoms: C6_9  and  C15_21 
REMARK    6  A    between atoms: C8_11  and  C9_13 
REMARK    7  A    between atoms: C9_13  and  O1_14 
REMARK    8  A    between atoms: O1_14  and  C10_15 
REMARK    9  A    between atoms: C10_15  and  C11_16 
ROOT
HETATM    1  C6  UNL     1      25.660   3.604  50.168  1.00  0.00     0.107 C 
ENDROOT
BRANCH   1   2
HETATM    2  N3  UNL     1      26.059   3.038  51.403  1.00  0.00    -0.366 N 
HETATM    3  H7  UNL     1      26.629   3.600  52.108  1.00  0.00     0.161 HD
BRANCH   2   4
HETATM    4  C5  UNL     1      25.828   1.737  51.953  1.00  0.00     0.133 A 
HETATM    5  N2  UNL     1      26.776   0.806  51.745  1.00  0.00    -0.224 NA
HETATM    6  C4  UNL     1      26.727  -0.454  52.200  1.00  0.00     0.235 A 
HETATM    7  N1  UNL     1      25.647  -0.835  52.928  1.00  0.00    -0.246 NA
HETATM    8  C3  UNL     1      24.641   0.046  53.184  1.00  0.00     0.045 A 
HETATM    9  C17 UNL     1      24.715   1.334  52.706  1.00  0.00     0.008 A 
HETATM   10  C18 UNL     1      23.686   2.363  52.925  1.00  0.00     0.054 C 
BRANCH   8  11
HETATM   11  C2  UNL     1      23.459  -0.309  53.957  1.00  0.00     0.055 C 
HETATM   12  C1  UNL     1      22.478  -1.004  53.032  1.00  0.00     0.011 C 
ENDBRANCH   8  11
ENDBRANCH   2   4
ENDBRANCH   1   2
BRANCH   1  13
HETATM   13  C7  UNL     1      24.552   4.593  50.252  1.00  0.00     0.019 C 
HETATM   14  C8  UNL     1      23.398   4.207  49.723  1.00  0.00     0.033 C 
HETATM   15 CL1  UNL     1      23.618   2.564  49.080  1.00  0.00    -0.087 Cl
BRANCH  14  16
HETATM   16  C9  UNL     1      22.004   4.612  49.460  1.00  0.00     0.218 C 
BRANCH  16  17
HETATM   17  O1  UNL     1      21.081   3.602  49.417  1.00  0.00    -0.385 OA
BRANCH  17  18
HETATM   18  C10 UNL     1      20.493   3.449  50.654  1.00  0.00     0.177 C 
BRANCH  18  19
HETATM   19  C11 UNL     1      20.819   2.065  51.219  1.00  0.00     0.041 A 
HETATM   20  C12 UNL     1      20.368   0.960  50.393  1.00  0.00     0.018 A 
HETATM   21  C13 UNL     1      19.492   0.567  51.269  1.00  0.00     0.091 A 
HETATM   22  F1  UNL     1      18.614  -0.463  51.247  1.00  0.00    -0.211 F 
HETATM   23  C14 UNL     1      19.818   1.615  52.221  1.00  0.00     0.080 A 
ENDBRANCH  18  19
ENDBRANCH  17  18
ENDBRANCH  16  17
ENDBRANCH  14  16
ENDBRANCH   1  13
BRANCH   1  24
HETATM   24  C15 UNL     1      26.797   4.042  49.292  1.00  0.00     0.025 C 
HETATM   25  C16 UNL     1      26.738   5.452  48.809  1.00  0.00     0.007 C 
ENDBRANCH   1  24
TORSDOF 9
ENDMDL
MODEL 8
REMARK VINA RESULT:      -6.5      2.717      3.781
REMARK  9 active torsions:
REMARK  status: ('A' for Active; 'I' for Inactive)
REMARK    1  A    between atoms: C2_2  and  C3_3 
REMARK    2  A    between atoms: C5_7  and  N3_8 
REMARK    3  A    between atoms: N3_8  and  C6_9 
REMARK    4  A    between atoms: C6_9  and  C7_10 
REMARK    5  A    between atoms: C6_9  and  C15_21 
REMARK    6  A    between atoms: C8_11  and  C9_13 
REMARK    7  A    between atoms: C9_13  and  O1_14 
REMARK    8  A    between atoms: O1_14  and  C10_15 
REMARK    9  A    between atoms: C10_15  and  C11_16 
ROOT
HETATM    1  C6  UNL     1      24.872   3.101  51.716  1.00  0.00     0.107 C 
ENDROOT
BRANCH   1   2
HETATM    2  N3  UNL     1      25.533   2.622  52.873  1.00  0.00    -0.366 N 
HETATM    3  H7  UNL     1      25.608   3.221  53.752  1.00  0.00     0.161 HD
BRANCH   2   4
HETATM    4  C5  UNL     1      26.182   1.373  53.128  1.00  0.00     0.133 A 
HETATM    5  N2  UNL     1      25.420   0.265  53.088  1.00  0.00    -0.224 NA
HETATM    6  C4  UNL     1      25.867  -0.982  53.287  1.00  0.00     0.235 A 
HETATM    7  N1  UNL     1      27.186  -1.160  53.551  1.00  0.00    -0.246 NA
HETATM    8  C3  UNL     1      28.028  -0.091  53.610  1.00  0.00     0.045 A 
HETATM    9  C17 UNL     1      27.544   1.180  53.402  1.00  0.00     0.008 A 
HETATM   10  C18 UNL     1      28.366   2.400  53.443  1.00  0.00     0.054 C 
BRANCH   8  11
HETATM   11  C2  UNL     1      29.452  -0.223  53.891  1.00  0.00     0.055 C 
HETATM   12  C1  UNL     1      29.878  -1.633  53.531  1.00  0.00     0.011 C 
ENDBRANCH   8  11
ENDBRANCH   2   4
ENDBRANCH   1   2
BRANCH   1  13
HETATM   13  C7  UNL     1      23.701   3.981  51.974  1.00  0.00     0.019 C 
HETATM   14  C8  UNL     1      22.512   3.429  51.768  1.00  0.00     0.033 C 
HETATM   15 CL1  UNL     1      22.778   1.753  51.235  1.00  0.00    -0.087 Cl
BRANCH  14  16
HETATM   16  C9  UNL     1      21.057   3.664  51.807  1.00  0.00     0.218 C 
BRANCH  16  17
HETATM   17  O1  UNL     1      20.369   3.380  50.658  1.00  0.00    -0.385 OA
BRANCH  17  18
HETATM   18  C10 UNL     1      20.578   4.375  49.727  1.00  0.00     0.177 C 
BRANCH  18  19
HETATM   19  C11 UNL     1      20.584   3.778  48.318  1.00  0.00     0.041 A 
HETATM   20  C12 UNL     1      20.863   2.354  48.273  1.00  0.00     0.018 A 
HETATM   21  C13 UNL     1      22.003   2.522  47.673  1.00  0.00     0.091 A 
HETATM   22  F1  UNL     1      22.929   1.626  47.257  1.00  0.00    -0.211 F 
HETATM   23  C14 UNL     1      21.888   3.970  47.631  1.00  0.00     0.080 A 
ENDBRANCH  18  19
ENDBRANCH  17  18
ENDBRANCH  16  17
ENDBRANCH  14  16
ENDBRANCH   1  13
BRANCH   1  24
HETATM   24  C15 UNL     1      25.791   3.616  50.646  1.00  0.00     0.025 C 
HETATM   25  C16 UNL     1      25.134   4.050  49.380  1.00  0.00     0.007 C 
ENDBRANCH   1  24
TORSDOF 9
ENDMDL
MODEL 9
REMARK VINA RESULT:      -6.4      2.595      3.611
REMARK  9 active torsions:
REMARK  status: ('A' for Active; 'I' for Inactive)
REMARK    1  A    between atoms: C2_2  and  C3_3 
REMARK    2  A    between atoms: C5_7  and  N3_8 
REMARK    3  A    between atoms: N3_8  and  C6_9 
REMARK    4  A    between atoms: C6_9  and  C7_10 
REMARK    5  A    between atoms: C6_9  and  C15_21 
REMARK    6  A    between atoms: C8_11  and  C9_13 
REMARK    7  A    between atoms: C9_13  and  O1_14 
REMARK    8  A    between atoms: O1_14  and  C10_15 
REMARK    9  A    between atoms: C10_15  and  C11_16 
ROOT
HETATM    1  C6  UNL     1      24.514   2.222  52.176  1.00  0.00     0.107 C 
ENDROOT
BRANCH   1   2
HETATM    2  N3  UNL     1      25.361   2.197  53.310  1.00  0.00    -0.366 N 
HETATM    3  H7  UNL     1      25.043   2.602  54.243  1.00  0.00     0.161 HD
BRANCH   2   4
HETATM    4  C5  UNL     1      26.687   1.686  53.475  1.00  0.00     0.133 A 
HETATM    5  N2  UNL     1      27.638   2.557  53.855  1.00  0.00    -0.224 NA
HETATM    6  C4  UNL     1      28.924   2.245  54.069  1.00  0.00     0.235 A 
HETATM    7  N1  UNL     1      29.313   0.958  53.893  1.00  0.00    -0.246 NA
HETATM    8  C3  UNL     1      28.413   0.011  53.508  1.00  0.00     0.045 A 
HETATM    9  C17 UNL     1      27.098   0.357  53.295  1.00  0.00     0.008 A 
HETATM   10  C18 UNL     1      26.047  -0.586  52.879  1.00  0.00     0.054 C 
BRANCH   8  11
HETATM   11  C2  UNL     1      28.775  -1.385  53.303  1.00  0.00     0.055 C 
HETATM   12  C1  UNL     1      30.203  -1.579  53.774  1.00  0.00     0.011 C 
ENDBRANCH   8  11
ENDBRANCH   2   4
ENDBRANCH   1   2
BRANCH   1  13
HETATM   13  C7  UNL     1      23.246   2.982  52.347  1.00  0.00     0.019 C 
HETATM   14  C8  UNL     1      22.140   2.250  52.387  1.00  0.00     0.033 C 
HETATM   15 CL1  UNL     1      22.611   0.544  52.214  1.00  0.00    -0.087 Cl
BRANCH  14  16
HETATM   16  C9  UNL     1      20.672   2.302  52.517  1.00  0.00     0.218 C 
BRANCH  16  17
HETATM   17  O1  UNL     1      19.981   2.687  51.400  1.00  0.00    -0.385 OA
BRANCH  17  18
HETATM   18  C10 UNL     1      19.691   1.586  50.623  1.00  0.00     0.177 C 
BRANCH  18  19
HETATM   19  C11 UNL     1      20.125   1.839  49.178  1.00  0.00     0.041 A 
HETATM   20  C12 UNL     1      21.343   1.151  48.789  1.00  0.00     0.018 A 
HETATM   21  C13 UNL     1      22.013   2.257  48.663  1.00  0.00     0.091 A 
HETATM   22  F1  UNL     1      23.301   2.479  48.308  1.00  0.00    -0.211 F 
HETATM   23  C14 UNL     1      20.892   3.103  49.033  1.00  0.00     0.080 A 
ENDBRANCH  18  19
ENDBRANCH  17  18
ENDBRANCH  16  17
ENDBRANCH  14  16
ENDBRANCH   1  13
BRANCH   1  24
HETATM   24  C15 UNL     1      25.219   2.507  50.882  1.00  0.00     0.025 C 
HETATM   25  C16 UNL     1      25.311   3.944  50.495  1.00  0.00     0.007 C 
ENDBRANCH   1  24
TORSDOF 9
ENDMDL
