MODEL 1
REMARK VINA RESULT:      -8.5      0.000      0.000
REMARK  4 active torsions:
REMARK  status: ('A' for Active; 'I' for Inactive)
REMARK    1  A    between atoms: C2_2  and  C3_3 
REMARK       I    between atoms: C3_3  and  N1_5 
REMARK    2  A    between atoms: N1_5  and  C4_6 
REMARK    3  A    between atoms: C9_13  and  N4_14 
REMARK    4  A    between atoms: N4_14  and  C10_15 
ROOT
HETATM    1  C4  UNL     1      25.066  -0.722  54.197  1.00  0.00     0.036 A 
HETATM    2  C5  UNL     1      24.470  -1.270  55.308  1.00  0.00     0.032 A 
HETATM    3  C6  UNL     1      23.112  -1.319  55.500  1.00  0.00     0.035 A 
HETATM    4  C7  UNL     1      22.323  -0.782  54.509  1.00  0.00     0.072 A 
HETATM    5  N2  UNL     1      20.978  -0.759  54.558  1.00  0.00    -0.241 NA
HETATM    6  C8  UNL     1      20.245  -0.223  53.561  1.00  0.00     0.236 A 
HETATM    7  N3  UNL     1      20.793   0.326  52.450  1.00  0.00    -0.224 NA
HETATM    8  C9  UNL     1      22.153   0.323  52.363  1.00  0.00     0.142 A 
HETATM    9  C16 UNL     1      22.876  -0.225  53.383  1.00  0.00     0.041 A 
HETATM   10  C17 UNL     1      24.257  -0.203  53.243  1.00  0.00     0.047 A 
ENDROOT
BRANCH   8  11
HETATM   11  N4  UNL     1      22.587   0.919  51.170  1.00  0.00    -0.340 N 
HETATM   12  H8  UNL     1      22.649   0.503  50.215  1.00  0.00     0.167 HD
BRANCH  11  13
HETATM   13  C10 UNL     1      22.995   2.284  51.325  1.00  0.00     0.035 A 
HETATM   14  C11 UNL     1      22.396   3.170  52.179  1.00  0.00     0.029 A 
HETATM   15  C12 UNL     1      22.818   4.480  52.267  1.00  0.00     0.004 A 
HETATM   16  C13 UNL     1      23.870   4.952  51.492  1.00  0.00     0.019 A 
HETATM   17  C14 UNL     1      24.512   4.103  50.613  1.00  0.00     0.013 A 
HETATM   18 BR1  UNL     1      25.965   4.656  49.500  1.00  0.00    -0.051 Br
HETATM   19  C15 UNL     1      24.051   2.791  50.560  1.00  0.00     0.048 A 
ENDBRANCH  11  13
ENDBRANCH   8  11
BRANCH   1  20
HETATM   20  N1  UNL     1      26.469  -0.758  54.191  1.00  0.00    -0.324 N 
HETATM   21  C3  UNL     1      27.424   0.232  54.525  1.00  0.00     0.241 C 
HETATM   22  O1  UNL     1      26.964   1.351  54.886  1.00  0.00    -0.269 OA
HETATM   23  H4  UNL     1      26.991  -1.640  53.903  1.00  0.00     0.169 HD
BRANCH  21  24
HETATM   24  C2  UNL     1      28.867   0.046  54.481  1.00  0.00     0.048 C 
HETATM   25  C1  UNL     1      29.505  -0.771  53.660  1.00  0.00     0.037 C 
ENDBRANCH  21  24
ENDBRANCH   1  20
TORSDOF 4
ENDMDL
MODEL 2
REMARK VINA RESULT:      -8.0      1.855      2.010
REMARK  4 active torsions:
REMARK  status: ('A' for Active; 'I' for Inactive)
REMARK    1  A    between atoms: C2_2  and  C3_3 
REMARK       I    between atoms: C3_3  and  N1_5 
REMARK    2  A    between atoms: N1_5  and  C4_6 
REMARK    3  A    between atoms: C9_13  and  N4_14 
REMARK    4  A    between atoms: N4_14  and  C10_15 
ROOT
HETATM    1  C4  UNL     1      25.306  -0.575  54.131  1.00  0.00     0.036 A 
HETATM    2  C5  UNL     1      24.867  -1.217  55.264  1.00  0.00     0.032 A 
HETATM    3  C6  UNL     1      23.543  -1.391  55.579  1.00  0.00     0.035 A 
HETATM    4  C7  UNL     1      22.620  -0.886  54.692  1.00  0.00     0.072 A 
HETATM    5  N2  UNL     1      21.288  -0.982  54.867  1.00  0.00    -0.241 NA
HETATM    6  C8  UNL     1      20.421  -0.473  53.969  1.00  0.00     0.236 A 
HETATM    7  N3  UNL     1      20.812   0.166  52.840  1.00  0.00    -0.224 NA
HETATM    8  C9  UNL     1      22.153   0.285  52.628  1.00  0.00     0.142 A 
HETATM    9  C16 UNL     1      23.013  -0.238  53.549  1.00  0.00     0.041 A 
HETATM   10  C17 UNL     1      24.368  -0.090  53.282  1.00  0.00     0.047 A 
ENDROOT
BRANCH   8  11
HETATM   11  N4  UNL     1      22.418   0.965  51.429  1.00  0.00    -0.340 N 
HETATM   12  H8  UNL     1      22.696   0.574  50.502  1.00  0.00     0.167 HD
BRANCH  11  13
HETATM   13  C10 UNL     1      22.281   2.388  51.534  1.00  0.00     0.035 A 
HETATM   14  C11 UNL     1      23.070   3.176  52.327  1.00  0.00     0.029 A 
HETATM   15  C12 UNL     1      22.875   4.540  52.405  1.00  0.00     0.004 A 
HETATM   16  C13 UNL     1      21.870   5.167  51.679  1.00  0.00     0.019 A 
HETATM   17  C14 UNL     1      21.044   4.421  50.862  1.00  0.00     0.013 A 
HETATM   18 BR1  UNL     1      19.629   5.187  49.828  1.00  0.00    -0.051 Br
HETATM   19  C15 UNL     1      21.279   3.051  50.816  1.00  0.00     0.048 A 
ENDBRANCH  11  13
ENDBRANCH   8  11
BRANCH   1  20
HETATM   20  N1  UNL     1      26.700  -0.488  53.992  1.00  0.00    -0.324 N 
HETATM   21  C3  UNL     1      27.623  -1.344  53.346  1.00  0.00     0.241 C 
HETATM   22  O1  UNL     1      27.140  -2.375  52.799  1.00  0.00    -0.269 OA
HETATM   23  H4  UNL     1      27.239   0.330  54.409  1.00  0.00     0.169 HD
BRANCH  21  24
HETATM   24  C2  UNL     1      29.060  -1.117  53.274  1.00  0.00     0.048 C 
HETATM   25  C1  UNL     1      29.701  -0.110  53.842  1.00  0.00     0.037 C 
ENDBRANCH  21  24
ENDBRANCH   1  20
TORSDOF 4
ENDMDL
MODEL 3
REMARK VINA RESULT:      -7.8      2.840      5.610
REMARK  4 active torsions:
REMARK  status: ('A' for Active; 'I' for Inactive)
REMARK    1  A    between atoms: C2_2  and  C3_3 
REMARK       I    between atoms: C3_3  and  N1_5 
REMARK    2  A    between atoms: N1_5  and  C4_6 
REMARK    3  A    between atoms: C9_13  and  N4_14 
REMARK    4  A    between atoms: N4_14  and  C10_15 
ROOT
HETATM    1  C4  UNL     1      24.203   3.495  49.460  1.00  0.00     0.036 A 
HETATM    2  C5  UNL     1      23.323   3.140  48.465  1.00  0.00     0.032 A 
HETATM    3  C6  UNL     1      22.333   2.202  48.621  1.00  0.00     0.035 A 
HETATM    4  C7  UNL     1      22.235   1.598  49.853  1.00  0.00     0.072 A 
HETATM    5  N2  UNL     1      21.315   0.662  50.153  1.00  0.00    -0.241 NA
HETATM    6  C8  UNL     1      21.255   0.098  51.376  1.00  0.00     0.236 A 
HETATM    7  N3  UNL     1      22.102   0.421  52.383  1.00  0.00    -0.224 NA
HETATM    8  C9  UNL     1      23.050   1.364  52.119  1.00  0.00     0.142 A 
HETATM    9  C16 UNL     1      23.092   1.922  50.874  1.00  0.00     0.041 A 
HETATM   10  C17 UNL     1      24.076   2.878  50.659  1.00  0.00     0.047 A 
ENDROOT
BRANCH   8  11
HETATM   11  N4  UNL     1      23.857   1.601  53.242  1.00  0.00    -0.340 N 
HETATM   12  H8  UNL     1      23.644   2.165  54.094  1.00  0.00     0.167 HD
BRANCH  11  13
HETATM   13  C10 UNL     1      25.142   0.969  53.170  1.00  0.00     0.035 A 
HETATM   14  C11 UNL     1      25.329  -0.352  52.867  1.00  0.00     0.029 A 
HETATM   15  C12 UNL     1      26.590  -0.910  52.837  1.00  0.00     0.004 A 
HETATM   16  C13 UNL     1      27.721  -0.151  53.112  1.00  0.00     0.019 A 
HETATM   17  C14 UNL     1      27.592   1.187  53.424  1.00  0.00     0.013 A 
HETATM   18 BR1  UNL     1      29.084   2.315  53.823  1.00  0.00    -0.051 Br
HETATM   19  C15 UNL     1      26.301   1.705  53.441  1.00  0.00     0.048 A 
ENDBRANCH  11  13
ENDBRANCH   8  11
BRANCH   1  20
HETATM   20  N1  UNL     1      25.152   4.466  49.103  1.00  0.00    -0.324 N 
HETATM   21  C3  UNL     1      26.565   4.403  49.040  1.00  0.00     0.241 C 
HETATM   22  O1  UNL     1      27.089   3.301  49.363  1.00  0.00    -0.269 OA
HETATM   23  H4  UNL     1      24.849   5.443  48.811  1.00  0.00     0.169 HD
BRANCH  21  24
HETATM   24  C2  UNL     1      27.430   5.501  48.635  1.00  0.00     0.048 C 
HETATM   25  C1  UNL     1      28.718   5.394  48.356  1.00  0.00     0.037 C 
ENDBRANCH  21  24
ENDBRANCH   1  20
TORSDOF 4
ENDMDL
MODEL 4
REMARK VINA RESULT:      -7.7      2.154      2.581
REMARK  4 active torsions:
REMARK  status: ('A' for Active; 'I' for Inactive)
REMARK    1  A    between atoms: C2_2  and  C3_3 
REMARK       I    between atoms: C3_3  and  N1_5 
REMARK    2  A    between atoms: N1_5  and  C4_6 
REMARK    3  A    between atoms: C9_13  and  N4_14 
REMARK    4  A    between atoms: N4_14  and  C10_15 
ROOT
HETATM    1  C4  UNL     1      24.812   0.056  53.279  1.00  0.00     0.036 A 
HETATM    2  C5  UNL     1      23.979  -0.729  54.041  1.00  0.00     0.032 A 
HETATM    3  C6  UNL     1      22.631  -0.512  54.169  1.00  0.00     0.035 A 
HETATM    4  C7  UNL     1      22.105   0.560  53.484  1.00  0.00     0.072 A 
HETATM    5  N2  UNL     1      20.801   0.895  53.513  1.00  0.00    -0.241 NA
HETATM    6  C8  UNL     1      20.330   1.953  52.823  1.00  0.00     0.236 A 
HETATM    7  N3  UNL     1      21.116   2.751  52.061  1.00  0.00    -0.224 NA
HETATM    8  C9  UNL     1      22.443   2.445  52.007  1.00  0.00     0.142 A 
HETATM    9  C16 UNL     1      22.898   1.369  52.712  1.00  0.00     0.041 A 
HETATM   10  C17 UNL     1      24.258   1.102  52.620  1.00  0.00     0.047 A 
ENDROOT
BRANCH   8  11
HETATM   11  N4  UNL     1      23.138   3.347  51.188  1.00  0.00    -0.340 N 
HETATM   12  H8  UNL     1      23.847   4.065  51.458  1.00  0.00     0.167 HD
BRANCH  11  13
HETATM   13  C10 UNL     1      22.800   3.240  49.799  1.00  0.00     0.035 A 
HETATM   14  C11 UNL     1      22.602   2.053  49.149  1.00  0.00     0.029 A 
HETATM   15  C12 UNL     1      22.301   2.012  47.803  1.00  0.00     0.004 A 
HETATM   16  C13 UNL     1      22.186   3.177  47.054  1.00  0.00     0.019 A 
HETATM   17  C14 UNL     1      22.376   4.404  47.658  1.00  0.00     0.013 A 
HETATM   18 BR1  UNL     1      22.246   6.063  46.716  1.00  0.00    -0.051 Br
HETATM   19  C15 UNL     1      22.677   4.394  49.017  1.00  0.00     0.048 A 
ENDBRANCH  11  13
ENDBRANCH   8  11
BRANCH   1  20
HETATM   20  N1  UNL     1      26.164  -0.322  53.285  1.00  0.00    -0.324 N 
HETATM   21  C3  UNL     1      27.223   0.035  54.153  1.00  0.00     0.241 C 
HETATM   22  O1  UNL     1      26.934   0.836  55.085  1.00  0.00    -0.269 OA
HETATM   23  H4  UNL     1      26.546  -0.992  52.551  1.00  0.00     0.169 HD
BRANCH  21  24
HETATM   24  C2  UNL     1      28.591  -0.451  54.041  1.00  0.00     0.048 C 
HETATM   25  C1  UNL     1      29.623   0.266  53.629  1.00  0.00     0.037 C 
ENDBRANCH  21  24
ENDBRANCH   1  20
TORSDOF 4
ENDMDL
MODEL 5
REMARK VINA RESULT:      -7.6      2.148      3.032
REMARK  4 active torsions:
REMARK  status: ('A' for Active; 'I' for Inactive)
REMARK    1  A    between atoms: C2_2  and  C3_3 
REMARK       I    between atoms: C3_3  and  N1_5 
REMARK    2  A    between atoms: N1_5  and  C4_6 
REMARK    3  A    between atoms: C9_13  and  N4_14 
REMARK    4  A    between atoms: N4_14  and  C10_15 
ROOT
HETATM    1  C4  UNL     1      25.398   0.913  53.535  1.00  0.00     0.036 A 
HETATM    2  C5  UNL     1      24.525  -0.148  53.483  1.00  0.00     0.032 A 
HETATM    3  C6  UNL     1      23.209  -0.037  53.111  1.00  0.00     0.035 A 
HETATM    4  C7  UNL     1      22.761   1.219  52.774  1.00  0.00     0.072 A 
HETATM    5  N2  UNL     1      21.497   1.481  52.389  1.00  0.00    -0.241 NA
HETATM    6  C8  UNL     1      21.104   2.729  52.065  1.00  0.00     0.236 A 
HETATM    7  N3  UNL     1      21.931   3.801  52.103  1.00  0.00    -0.224 NA
HETATM    8  C9  UNL     1      23.219   3.578  52.490  1.00  0.00     0.142 A 
HETATM    9  C16 UNL     1      23.597   2.306  52.812  1.00  0.00     0.041 A 
HETATM   10  C17 UNL     1      24.920   2.135  53.197  1.00  0.00     0.047 A 
ENDROOT
BRANCH   8  11
HETATM   11  N4  UNL     1      23.963   4.766  52.485  1.00  0.00    -0.340 N 
HETATM   12  H8  UNL     1      24.284   5.341  53.295  1.00  0.00     0.167 HD
BRANCH  11  13
HETATM   13  C10 UNL     1      24.308   5.224  51.171  1.00  0.00     0.035 A 
HETATM   14  C11 UNL     1      25.158   4.561  50.329  1.00  0.00     0.029 A 
HETATM   15  C12 UNL     1      25.471   5.064  49.083  1.00  0.00     0.004 A 
HETATM   16  C13 UNL     1      24.933   6.264  48.633  1.00  0.00     0.019 A 
HETATM   17  C14 UNL     1      24.069   6.975  49.442  1.00  0.00     0.013 A 
HETATM   18 BR1  UNL     1      23.280   8.637  48.920  1.00  0.00    -0.051 Br
HETATM   19  C15 UNL     1      23.784   6.428  50.689  1.00  0.00     0.048 A 
ENDBRANCH  11  13
ENDBRANCH   8  11
BRANCH   1  20
HETATM   20  N1  UNL     1      26.701   0.598  53.951  1.00  0.00    -0.324 N 
HETATM   21  C3  UNL     1      27.959   1.019  53.457  1.00  0.00     0.241 C 
HETATM   22  O1  UNL     1      27.937   1.805  52.469  1.00  0.00    -0.269 OA
HETATM   23  H4  UNL     1      26.867  -0.058  54.772  1.00  0.00     0.169 HD
BRANCH  21  24
HETATM   24  C2  UNL     1      29.246   0.613  54.004  1.00  0.00     0.048 C 
HETATM   25  C1  UNL     1      29.960  -0.419  53.585  1.00  0.00     0.037 C 
ENDBRANCH  21  24
ENDBRANCH   1  20
TORSDOF 4
ENDMDL
MODEL 6
REMARK VINA RESULT:      -7.5      5.214      7.702
REMARK  4 active torsions:
REMARK  status: ('A' for Active; 'I' for Inactive)
REMARK    1  A    between atoms: C2_2  and  C3_3 
REMARK       I    between atoms: C3_3  and  N1_5 
REMARK    2  A    between atoms: N1_5  and  C4_6 
REMARK    3  A    between atoms: C9_13  and  N4_14 
REMARK    4  A    between atoms: N4_14  and  C10_15 
ROOT
HETATM    1  C4  UNL     1      28.800   5.677  48.203  1.00  0.00     0.036 A 
HETATM    2  C5  UNL     1      28.628   7.040  48.241  1.00  0.00     0.032 A 
HETATM    3  C6  UNL     1      27.479   7.653  48.673  1.00  0.00     0.035 A 
HETATM    4  C7  UNL     1      26.454   6.833  49.088  1.00  0.00     0.072 A 
HETATM    5  N2  UNL     1      25.270   7.290  49.538  1.00  0.00    -0.241 NA
HETATM    6  C8  UNL     1      24.295   6.448  49.936  1.00  0.00     0.236 A 
HETATM    7  N3  UNL     1      24.425   5.100  49.915  1.00  0.00    -0.224 NA
HETATM    8  C9  UNL     1      25.609   4.598  49.464  1.00  0.00     0.142 A 
HETATM    9  C16 UNL     1      26.582   5.467  49.067  1.00  0.00     0.041 A 
HETATM   10  C17 UNL     1      27.769   4.903  48.619  1.00  0.00     0.047 A 
ENDROOT
BRANCH   8  11
HETATM   11  N4  UNL     1      25.609   3.195  49.494  1.00  0.00    -0.340 N 
HETATM   12  H8  UNL     1      25.592   2.524  48.695  1.00  0.00     0.167 HD
BRANCH  11  13
HETATM   13  C10 UNL     1      25.632   2.648  50.818  1.00  0.00     0.035 A 
HETATM   14  C11 UNL     1      24.528   2.161  51.464  1.00  0.00     0.029 A 
HETATM   15  C12 UNL     1      24.608   1.668  52.750  1.00  0.00     0.004 A 
HETATM   16  C13 UNL     1      25.814   1.647  53.441  1.00  0.00     0.019 A 
HETATM   17  C14 UNL     1      26.959   2.126  52.838  1.00  0.00     0.013 A 
HETATM   18 BR1  UNL     1      28.665   2.146  53.704  1.00  0.00    -0.051 Br
HETATM   19  C15 UNL     1      26.829   2.612  51.541  1.00  0.00     0.048 A 
ENDBRANCH  11  13
ENDBRANCH   8  11
BRANCH   1  20
HETATM   20  N1  UNL     1      30.044   5.243  47.718  1.00  0.00    -0.324 N 
HETATM   21  C3  UNL     1      31.297   5.110  48.365  1.00  0.00     0.241 C 
HETATM   22  O1  UNL     1      31.333   5.439  49.584  1.00  0.00    -0.269 OA
HETATM   23  H4  UNL     1      30.158   4.939  46.705  1.00  0.00     0.169 HD
BRANCH  21  24
HETATM   24  C2  UNL     1      32.515   4.631  47.729  1.00  0.00     0.048 C 
HETATM   25  C1  UNL     1      32.616   3.522  47.015  1.00  0.00     0.037 C 
ENDBRANCH  21  24
ENDBRANCH   1  20
TORSDOF 4
ENDMDL
MODEL 7
REMARK VINA RESULT:      -7.4      2.838      4.389
REMARK  4 active torsions:
REMARK  status: ('A' for Active; 'I' for Inactive)
REMARK    1  A    between atoms: C2_2  and  C3_3 
REMARK       I    between atoms: C3_3  and  N1_5 
REMARK    2  A    between atoms: N1_5  and  C4_6 
REMARK    3  A    between atoms: C9_13  and  N4_14 
REMARK    4  A    between atoms: N4_14  and  C10_15 
ROOT
HETATM    1  C4  UNL     1      26.166   2.248  51.685  1.00  0.00     0.036 A 
HETATM    2  C5  UNL     1      26.958   1.275  52.247  1.00  0.00     0.032 A 
HETATM    3  C6  UNL     1      26.476   0.259  53.033  1.00  0.00     0.035 A 
HETATM    4  C7  UNL     1      25.119   0.234  53.256  1.00  0.00     0.072 A 
HETATM    5  N2  UNL     1      24.504  -0.702  54.005  1.00  0.00    -0.241 NA
HETATM    6  C8  UNL     1      23.168  -0.687  54.194  1.00  0.00     0.236 A 
HETATM    7  N3  UNL     1      22.354   0.253  53.658  1.00  0.00    -0.224 NA
HETATM    8  C9  UNL     1      22.939   1.219  52.894  1.00  0.00     0.142 A 
HETATM    9  C16 UNL     1      24.291   1.185  52.715  1.00  0.00     0.041 A 
HETATM   10  C17 UNL     1      24.835   2.191  51.927  1.00  0.00     0.047 A 
ENDROOT
BRANCH   8  11
HETATM   11  N4  UNL     1      21.986   2.124  52.404  1.00  0.00    -0.340 N 
HETATM   12  H8  UNL     1      21.407   2.814  52.931  1.00  0.00     0.167 HD
BRANCH  11  13
HETATM   13  C10 UNL     1      21.810   2.060  50.983  1.00  0.00     0.035 A 
HETATM   14  C11 UNL     1      21.497   0.915  50.302  1.00  0.00     0.029 A 
HETATM   15  C12 UNL     1      21.364   0.909  48.929  1.00  0.00     0.004 A 
HETATM   16  C13 UNL     1      21.541   2.068  48.183  1.00  0.00     0.019 A 
HETATM   17  C14 UNL     1      21.857   3.252  48.817  1.00  0.00     0.013 A 
HETATM   18 BR1  UNL     1      22.126   4.899  47.882  1.00  0.00    -0.051 Br
HETATM   19  C15 UNL     1      21.981   3.208  50.202  1.00  0.00     0.048 A 
ENDBRANCH  11  13
ENDBRANCH   8  11
BRANCH   1  20
HETATM   20  N1  UNL     1      26.848   3.209  50.921  1.00  0.00    -0.324 N 
HETATM   21  C3  UNL     1      26.526   3.805  49.678  1.00  0.00     0.241 C 
HETATM   22  O1  UNL     1      25.452   3.420  49.136  1.00  0.00    -0.269 OA
HETATM   23  H4  UNL     1      27.771   3.618  51.258  1.00  0.00     0.169 HD
BRANCH  21  24
HETATM   24  C2  UNL     1      27.335   4.809  49.002  1.00  0.00     0.048 C 
HETATM   25  C1  UNL     1      26.896   5.985  48.583  1.00  0.00     0.037 C 
ENDBRANCH  21  24
ENDBRANCH   1  20
TORSDOF 4
ENDMDL
MODEL 8
REMARK VINA RESULT:      -7.4      2.615      3.922
REMARK  4 active torsions:
REMARK  status: ('A' for Active; 'I' for Inactive)
REMARK    1  A    between atoms: C2_2  and  C3_3 
REMARK       I    between atoms: C3_3  and  N1_5 
REMARK    2  A    between atoms: N1_5  and  C4_6 
REMARK    3  A    between atoms: C9_13  and  N4_14 
REMARK    4  A    between atoms: N4_14  and  C10_15 
ROOT
HETATM    1  C4  UNL     1      24.516   1.944  53.127  1.00  0.00     0.036 A 
HETATM    2  C5  UNL     1      23.581   1.010  52.747  1.00  0.00     0.032 A 
HETATM    3  C6  UNL     1      22.391   1.324  52.139  1.00  0.00     0.035 A 
HETATM    4  C7  UNL     1      22.144   2.657  51.905  1.00  0.00     0.072 A 
HETATM    5  N2  UNL     1      21.023   3.115  51.317  1.00  0.00    -0.241 NA
HETATM    6  C8  UNL     1      20.824   4.432  51.106  1.00  0.00     0.236 A 
HETATM    7  N3  UNL     1      21.720   5.383  51.464  1.00  0.00    -0.224 NA
HETATM    8  C9  UNL     1      22.868   4.960  52.064  1.00  0.00     0.142 A 
HETATM    9  C16 UNL     1      23.049   3.623  52.267  1.00  0.00     0.041 A 
HETATM   10  C17 UNL     1      24.236   3.246  52.880  1.00  0.00     0.047 A 
ENDROOT
BRANCH   8  11
HETATM   11  N4  UNL     1      23.703   6.042  52.382  1.00  0.00    -0.340 N 
HETATM   12  H8  UNL     1      23.946   6.428  53.321  1.00  0.00     0.167 HD
BRANCH  11  13
HETATM   13  C10 UNL     1      24.279   6.680  51.235  1.00  0.00     0.035 A 
HETATM   14  C11 UNL     1      23.871   7.892  50.749  1.00  0.00     0.029 A 
HETATM   15  C12 UNL     1      24.448   8.446  49.625  1.00  0.00     0.004 A 
HETATM   16  C13 UNL     1      25.468   7.793  48.942  1.00  0.00     0.019 A 
HETATM   17  C14 UNL     1      25.918   6.567  49.387  1.00  0.00     0.013 A 
HETATM   18 BR1  UNL     1      27.311   5.587  48.517  1.00  0.00    -0.051 Br
HETATM   19  C15 UNL     1      25.307   6.050  50.525  1.00  0.00     0.048 A 
ENDBRANCH  11  13
ENDBRANCH   8  11
BRANCH   1  20
HETATM   20  N1  UNL     1      25.664   1.425  53.745  1.00  0.00    -0.324 N 
HETATM   21  C3  UNL     1      26.886   0.966  53.196  1.00  0.00     0.241 C 
HETATM   22  O1  UNL     1      26.984   1.010  51.938  1.00  0.00    -0.269 OA
HETATM   23  H4  UNL     1      25.716   1.327  54.803  1.00  0.00     0.169 HD
BRANCH  21  24
HETATM   24  C2  UNL     1      28.008   0.458  53.972  1.00  0.00     0.048 C 
HETATM   25  C1  UNL     1      29.272   0.474  53.584  1.00  0.00     0.037 C 
ENDBRANCH  21  24
ENDBRANCH   1  20
TORSDOF 4
ENDMDL
MODEL 9
REMARK VINA RESULT:      -7.2      3.021      5.060
REMARK  4 active torsions:
REMARK  status: ('A' for Active; 'I' for Inactive)
REMARK    1  A    between atoms: C2_2  and  C3_3 
REMARK       I    between atoms: C3_3  and  N1_5 
REMARK    2  A    between atoms: N1_5  and  C4_6 
REMARK    3  A    between atoms: C9_13  and  N4_14 
REMARK    4  A    between atoms: N4_14  and  C10_15 
ROOT
HETATM    1  C4  UNL     1      26.042   2.036  51.752  1.00  0.00     0.036 A 
HETATM    2  C5  UNL     1      26.726   2.439  50.629  1.00  0.00     0.032 A 
HETATM    3  C6  UNL     1      26.216   3.302  49.693  1.00  0.00     0.035 A 
HETATM    4  C7  UNL     1      24.945   3.780  49.913  1.00  0.00     0.072 A 
HETATM    5  N2  UNL     1      24.315   4.634  49.083  1.00  0.00    -0.241 NA
HETATM    6  C8  UNL     1      23.068   5.077  49.342  1.00  0.00     0.236 A 
HETATM    7  N3  UNL     1      22.361   4.705  50.436  1.00  0.00    -0.224 NA
HETATM    8  C9  UNL     1      22.963   3.841  51.300  1.00  0.00     0.142 A 
HETATM    9  C16 UNL     1      24.226   3.405  51.020  1.00  0.00     0.041 A 
HETATM   10  C17 UNL     1      24.793   2.527  51.934  1.00  0.00     0.047 A 
ENDROOT
BRANCH   8  11
HETATM   11  N4  UNL     1      22.125   3.540  52.383  1.00  0.00    -0.340 N 
HETATM   12  H8  UNL     1      22.006   4.055  53.283  1.00  0.00     0.167 HD
BRANCH  11  13
HETATM   13  C10 UNL     1      21.343   2.353  52.192  1.00  0.00     0.035 A 
HETATM   14  C11 UNL     1      20.389   2.214  51.222  1.00  0.00     0.029 A 
HETATM   15  C12 UNL     1      19.650   1.054  51.103  1.00  0.00     0.004 A 
HETATM   16  C13 UNL     1      19.848  -0.019  51.963  1.00  0.00     0.019 A 
HETATM   17  C14 UNL     1      20.799   0.066  52.960  1.00  0.00     0.013 A 
HETATM   18 BR1  UNL     1      21.144  -1.351  54.198  1.00  0.00    -0.051 Br
HETATM   19  C15 UNL     1      21.518   1.255  53.041  1.00  0.00     0.048 A 
ENDBRANCH  11  13
ENDBRANCH   8  11
BRANCH   1  20
HETATM   20  N1  UNL     1      26.730   1.139  52.584  1.00  0.00    -0.324 N 
HETATM   21  C3  UNL     1      27.599   1.369  53.678  1.00  0.00     0.241 C 
HETATM   22  O1  UNL     1      27.818   2.577  53.973  1.00  0.00    -0.269 OA
HETATM   23  H4  UNL     1      26.641   0.088  52.445  1.00  0.00     0.169 HD
BRANCH  21  24
HETATM   24  C2  UNL     1      28.241   0.326  54.465  1.00  0.00     0.048 C 
HETATM   25  C1  UNL     1      29.268  -0.406  54.067  1.00  0.00     0.037 C 
ENDBRANCH  21  24
ENDBRANCH   1  20
TORSDOF 4
ENDMDL
