MODEL 1
REMARK VINA RESULT:      -7.4      0.000      0.000
REMARK  3 active torsions:
REMARK  status: ('A' for Active; 'I' for Inactive)
REMARK    1  A    between atoms: C1_2  and  C2_4 
REMARK    2  A    between atoms: C2_4  and  O1_6 
REMARK    3  A    between atoms: O1_6  and  P1_7 
ROOT
HETATM    1  P1  UNL     1      26.017   0.833  53.202  1.00  0.00     0.128 P 
HETATM    2  C3  UNL     1      25.894   1.412  51.442  1.00  0.00     0.108 C 
HETATM    3  C4  UNL     1      25.335   2.753  51.275  1.00  0.00    -0.020 C 
HETATM    4  C5  UNL     1      24.289   3.265  50.631  1.00  0.00    -0.002 C 
HETATM    5  C6  UNL     1      23.301   2.552  49.825  1.00  0.00     0.129 C 
HETATM    6  C7  UNL     1      23.152   3.320  48.557  1.00  0.00    -0.002 C 
HETATM    7  C8  UNL     1      22.352   2.806  47.630  1.00  0.00    -0.027 C 
HETATM    8  C9  UNL     1      21.753   1.522  48.078  1.00  0.00     0.047 C 
HETATM    9  C10 UNL     1      21.108   1.748  49.416  1.00  0.00     0.127 C 
HETATM   10  N1  UNL     1      22.002   2.367  50.395  1.00  0.00    -0.377 N 
HETATM   11  C11 UNL     1      21.185   2.534  51.547  1.00  0.00     0.103 C 
HETATM   12  C12 UNL     1      21.246   1.950  52.727  1.00  0.00     0.108 C 
HETATM   13  N2  UNL     1      22.112   0.973  53.286  1.00  0.00    -0.349 N 
HETATM   14  C13 UNL     1      21.736  -0.216  53.965  1.00  0.00     0.110 C 
HETATM   15  C14 UNL     1      22.707  -1.120  54.191  1.00  0.00     0.119 C 
HETATM   16  N3  UNL     1      24.111  -0.785  54.156  1.00  0.00    -0.322 N 
HETATM   17  N4  UNL     1      24.419   0.541  53.965  1.00  0.00    -0.162 NA
HETATM   18  C15 UNL     1      23.499   1.250  53.127  1.00  0.00     0.249 C 
HETATM   19  H18 UNL     1      24.788  -1.571  54.278  1.00  0.00     0.180 HD
ENDROOT
BRANCH   1  20
HETATM   20  O1  UNL     1      26.777   2.110  54.107  1.00  0.00    -0.306 OA
BRANCH  20  21
HETATM   21  C2  UNL     1      28.149   2.055  54.085  1.00  0.00     0.377 C 
HETATM   22  F3  UNL     1      28.595   2.746  52.976  1.00  0.00    -0.213 F 
BRANCH  21  23
HETATM   23  C1  UNL     1      28.658   0.634  53.934  1.00  0.00     0.412 C 
HETATM   24  F1  UNL     1      28.822   0.077  55.188  1.00  0.00    -0.209 F 
HETATM   25  F2  UNL     1      29.903   0.623  53.343  1.00  0.00    -0.209 F 
ENDBRANCH  21  23
ENDBRANCH  20  21
ENDBRANCH   1  20
TORSDOF 3
ENDMDL
MODEL 2
REMARK VINA RESULT:      -7.4      3.492      5.505
REMARK  3 active torsions:
REMARK  status: ('A' for Active; 'I' for Inactive)
REMARK    1  A    between atoms: C1_2  and  C2_4 
REMARK    2  A    between atoms: C2_4  and  O1_6 
REMARK    3  A    between atoms: O1_6  and  P1_7 
ROOT
HETATM    1  P1  UNL     1      23.451   4.741  50.530  1.00  0.00     0.128 P 
HETATM    2  C3  UNL     1      23.908   3.588  51.911  1.00  0.00     0.108 C 
HETATM    3  C4  UNL     1      24.113   2.198  51.507  1.00  0.00    -0.020 C 
HETATM    4  C5  UNL     1      23.570   1.028  51.839  1.00  0.00    -0.002 C 
HETATM    5  C6  UNL     1      22.500   0.784  52.803  1.00  0.00     0.129 C 
HETATM    6  C7  UNL     1      22.950  -0.351  53.658  1.00  0.00    -0.002 C 
HETATM    7  C8  UNL     1      22.158  -0.699  54.666  1.00  0.00    -0.027 C 
HETATM    8  C9  UNL     1      20.945   0.156  54.726  1.00  0.00     0.047 C 
HETATM    9  C10 UNL     1      20.291   0.136  53.372  1.00  0.00     0.127 C 
HETATM   10  N1  UNL     1      21.207   0.470  52.281  1.00  0.00    -0.377 N 
HETATM   11  C11 UNL     1      20.407   0.339  51.112  1.00  0.00     0.103 C 
HETATM   12  C12 UNL     1      19.986   1.254  50.261  1.00  0.00     0.108 C 
HETATM   13  N2  UNL     1      20.161   2.661  50.180  1.00  0.00    -0.349 N 
HETATM   14  C13 UNL     1      19.147   3.641  50.002  1.00  0.00     0.110 C 
HETATM   15  C14 UNL     1      19.500   4.923  50.204  1.00  0.00     0.119 C 
HETATM   16  N3  UNL     1      20.873   5.369  50.183  1.00  0.00    -0.322 N 
HETATM   17  N4  UNL     1      21.817   4.427  49.855  1.00  0.00    -0.162 NA
HETATM   18  C15 UNL     1      21.510   3.098  50.295  1.00  0.00     0.249 C 
HETATM   19  H18 UNL     1      21.048   6.372  50.417  1.00  0.00     0.180 HD
ENDROOT
BRANCH   1  20
HETATM   20  O1  UNL     1      24.586   4.466  49.240  1.00  0.00    -0.306 OA
BRANCH  20  21
HETATM   21  C2  UNL     1      25.792   5.096  49.428  1.00  0.00     0.377 C 
HETATM   22  F3  UNL     1      26.000   5.964  48.375  1.00  0.00    -0.213 F 
BRANCH  21  23
HETATM   23  C1  UNL     1      26.952   4.118  49.411  1.00  0.00     0.412 C 
HETATM   24  F1  UNL     1      27.814   4.458  48.388  1.00  0.00    -0.209 F 
HETATM   25  F2  UNL     1      26.508   2.843  49.132  1.00  0.00    -0.209 F 
ENDBRANCH  21  23
ENDBRANCH  20  21
ENDBRANCH   1  20
TORSDOF 3
ENDMDL
MODEL 3
REMARK VINA RESULT:      -7.3      1.904      4.193
REMARK  3 active torsions:
REMARK  status: ('A' for Active; 'I' for Inactive)
REMARK    1  A    between atoms: C1_2  and  C2_4 
REMARK    2  A    between atoms: C2_4  and  O1_6 
REMARK    3  A    between atoms: O1_6  and  P1_7 
ROOT
HETATM    1  P1  UNL     1      26.081   2.076  53.035  1.00  0.00     0.128 P 
HETATM    2  C3  UNL     1      25.009   0.921  54.017  1.00  0.00     0.108 C 
HETATM    3  C4  UNL     1      24.668  -0.327  53.336  1.00  0.00    -0.020 C 
HETATM    4  C5  UNL     1      23.536  -0.929  52.979  1.00  0.00    -0.002 C 
HETATM    5  C6  UNL     1      22.170  -0.456  53.192  1.00  0.00     0.129 C 
HETATM    6  C7  UNL     1      21.402  -1.609  53.743  1.00  0.00    -0.002 C 
HETATM    7  C8  UNL     1      20.139  -1.383  54.089  1.00  0.00    -0.027 C 
HETATM    8  C9  UNL     1      19.750   0.029  53.841  1.00  0.00     0.047 C 
HETATM    9  C10 UNL     1      20.085   0.363  52.414  1.00  0.00     0.127 C 
HETATM   10  N1  UNL     1      21.468   0.050  52.053  1.00  0.00    -0.377 N 
HETATM   11  C11 UNL     1      21.546   0.389  50.674  1.00  0.00     0.103 C 
HETATM   12  C12 UNL     1      22.220   1.347  50.069  1.00  0.00     0.108 C 
HETATM   13  N2  UNL     1      23.091   2.367  50.535  1.00  0.00    -0.349 N 
HETATM   14  C13 UNL     1      23.029   3.753  50.226  1.00  0.00     0.110 C 
HETATM   15  C14 UNL     1      23.793   4.575  50.969  1.00  0.00     0.119 C 
HETATM   16  N3  UNL     1      24.922   4.111  51.739  1.00  0.00    -0.322 N 
HETATM   17  N4  UNL     1      25.245   2.781  51.611  1.00  0.00    -0.162 NA
HETATM   18  C15 UNL     1      24.123   1.914  51.403  1.00  0.00     0.249 C 
HETATM   19  H18 UNL     1      25.410   4.816  52.335  1.00  0.00     0.180 HD
ENDROOT
BRANCH   1  20
HETATM   20  O1  UNL     1      27.411   1.139  52.420  1.00  0.00    -0.306 OA
BRANCH  20  21
HETATM   21  C2  UNL     1      28.262   0.688  53.399  1.00  0.00     0.377 C 
HETATM   22  F3  UNL     1      29.520   1.202  53.154  1.00  0.00    -0.213 F 
BRANCH  21  23
HETATM   23  C1  UNL     1      28.406  -0.822  53.375  1.00  0.00     0.412 C 
HETATM   24  F1  UNL     1      29.686  -1.148  52.972  1.00  0.00    -0.209 F 
HETATM   25  F2  UNL     1      27.557  -1.377  52.442  1.00  0.00    -0.209 F 
ENDBRANCH  21  23
ENDBRANCH  20  21
ENDBRANCH   1  20
TORSDOF 3
ENDMDL
MODEL 4
REMARK VINA RESULT:      -7.3      1.812      2.080
REMARK  3 active torsions:
REMARK  status: ('A' for Active; 'I' for Inactive)
REMARK    1  A    between atoms: C1_2  and  C2_4 
REMARK    2  A    between atoms: C2_4  and  O1_6 
REMARK    3  A    between atoms: O1_6  and  P1_7 
ROOT
HETATM    1  P1  UNL     1      26.710   1.729  51.545  1.00  0.00     0.128 P 
HETATM    2  C3  UNL     1      26.429   2.690  49.982  1.00  0.00     0.108 C 
HETATM    3  C4  UNL     1      26.227   4.126  50.173  1.00  0.00    -0.020 C 
HETATM    4  C5  UNL     1      25.257   4.990  49.882  1.00  0.00    -0.002 C 
HETATM    5  C6  UNL     1      23.985   4.712  49.219  1.00  0.00     0.129 C 
HETATM    6  C7  UNL     1      23.820   5.752  48.165  1.00  0.00    -0.002 C 
HETATM    7  C8  UNL     1      22.757   5.647  47.375  1.00  0.00    -0.027 C 
HETATM    8  C9  UNL     1      21.929   4.466  47.729  1.00  0.00     0.047 C 
HETATM    9  C10 UNL     1      21.621   4.534  49.198  1.00  0.00     0.127 C 
HETATM   10  N1  UNL     1      22.810   4.704  50.034  1.00  0.00    -0.377 N 
HETATM   11  C11 UNL     1      22.290   4.796  51.354  1.00  0.00     0.103 C 
HETATM   12  C12 UNL     1      22.406   3.970  52.375  1.00  0.00     0.108 C 
HETATM   13  N2  UNL     1      23.066   2.725  52.549  1.00  0.00    -0.349 N 
HETATM   14  C13 UNL     1      22.516   1.532  53.089  1.00  0.00     0.110 C 
HETATM   15  C14 UNL     1      23.235   0.405  52.931  1.00  0.00     0.119 C 
HETATM   16  N3  UNL     1      24.646   0.414  52.630  1.00  0.00    -0.322 N 
HETATM   17  N4  UNL     1      25.257   1.644  52.596  1.00  0.00    -0.162 NA
HETATM   18  C15 UNL     1      24.424   2.709  52.122  1.00  0.00     0.249 C 
HETATM   19  H18 UNL     1      25.099  -0.511  52.460  1.00  0.00     0.180 HD
ENDROOT
BRANCH   1  20
HETATM   20  O1  UNL     1      27.934   2.571  52.450  1.00  0.00    -0.306 OA
BRANCH  20  21
HETATM   21  C2  UNL     1      28.175   2.022  53.686  1.00  0.00     0.377 C 
HETATM   22  F3  UNL     1      29.268   2.658  54.239  1.00  0.00    -0.213 F 
BRANCH  21  23
HETATM   23  C1  UNL     1      28.539   0.552  53.592  1.00  0.00     0.412 C 
HETATM   24  F1  UNL     1      28.393  -0.030  54.836  1.00  0.00    -0.209 F 
HETATM   25  F2  UNL     1      29.866   0.400  53.251  1.00  0.00    -0.209 F 
ENDBRANCH  21  23
ENDBRANCH  20  21
ENDBRANCH   1  20
TORSDOF 3
ENDMDL
MODEL 5
REMARK VINA RESULT:      -7.1      2.257      4.107
REMARK  3 active torsions:
REMARK  status: ('A' for Active; 'I' for Inactive)
REMARK    1  A    between atoms: C1_2  and  C2_4 
REMARK    2  A    between atoms: C2_4  and  O1_6 
REMARK    3  A    between atoms: O1_6  and  P1_7 
ROOT
HETATM    1  P1  UNL     1      24.393   1.504  53.011  1.00  0.00     0.128 P 
HETATM    2  C3  UNL     1      22.610   1.046  53.248  1.00  0.00     0.108 C 
HETATM    3  C4  UNL     1      22.117   0.008  52.343  1.00  0.00    -0.020 C 
HETATM    4  C5  UNL     1      21.144  -0.071  51.438  1.00  0.00    -0.002 C 
HETATM    5  C6  UNL     1      20.194   0.971  51.057  1.00  0.00     0.129 C 
HETATM    6  C7  UNL     1      18.846   0.337  51.053  1.00  0.00    -0.002 C 
HETATM    7  C8  UNL     1      17.807   1.129  50.808  1.00  0.00    -0.027 C 
HETATM    8  C9  UNL     1      18.233   2.533  50.580  1.00  0.00     0.047 C 
HETATM    9  C10 UNL     1      19.295   2.533  49.515  1.00  0.00     0.127 C 
HETATM   10  N1  UNL     1      20.396   1.609  49.793  1.00  0.00    -0.377 N 
HETATM   11  C11 UNL     1      21.239   1.731  48.654  1.00  0.00     0.103 C 
HETATM   12  C12 UNL     1      22.455   2.228  48.543  1.00  0.00     0.108 C 
HETATM   13  N2  UNL     1      23.358   2.806  49.474  1.00  0.00    -0.349 N 
HETATM   14  C13 UNL     1      24.054   4.037  49.340  1.00  0.00     0.110 C 
HETATM   15  C14 UNL     1      24.660   4.516  50.441  1.00  0.00     0.119 C 
HETATM   16  N3  UNL     1      24.977   3.690  51.581  1.00  0.00    -0.322 N 
HETATM   17  N4  UNL     1      24.709   2.348  51.458  1.00  0.00    -0.162 NA
HETATM   18  C15 UNL     1      23.560   2.043  50.658  1.00  0.00     0.249 C 
HETATM   19  H18 UNL     1      25.387   4.169  52.414  1.00  0.00     0.180 HD
ENDROOT
BRANCH   1  20
HETATM   20  O1  UNL     1      25.299   0.019  52.965  1.00  0.00    -0.306 OA
BRANCH  20  21
HETATM   21  C2  UNL     1      26.545   0.156  52.404  1.00  0.00     0.377 C 
HETATM   22  F3  UNL     1      26.741  -0.885  51.519  1.00  0.00    -0.213 F 
BRANCH  21  23
HETATM   23  C1  UNL     1      27.650   0.048  53.439  1.00  0.00     0.412 C 
HETATM   24  F1  UNL     1      28.434  -1.050  53.151  1.00  0.00    -0.209 F 
HETATM   25  F2  UNL     1      27.121  -0.174  54.692  1.00  0.00    -0.209 F 
ENDBRANCH  21  23
ENDBRANCH  20  21
ENDBRANCH   1  20
TORSDOF 3
ENDMDL
MODEL 6
REMARK VINA RESULT:      -7.1      4.948      7.054
REMARK  3 active torsions:
REMARK  status: ('A' for Active; 'I' for Inactive)
REMARK    1  A    between atoms: C1_2  and  C2_4 
REMARK    2  A    between atoms: C2_4  and  O1_6 
REMARK    3  A    between atoms: O1_6  and  P1_7 
ROOT
HETATM    1  P1  UNL     1      20.038   1.341  50.738  1.00  0.00     0.128 P 
HETATM    2  C3  UNL     1      21.481   0.196  50.970  1.00  0.00     0.108 C 
HETATM    3  C4  UNL     1      21.952   0.074  52.349  1.00  0.00    -0.020 C 
HETATM    4  C5  UNL     1      23.106   0.294  52.975  1.00  0.00    -0.002 C 
HETATM    5  C6  UNL     1      24.358   0.771  52.395  1.00  0.00     0.129 C 
HETATM    6  C7  UNL     1      25.433  -0.123  52.910  1.00  0.00    -0.002 C 
HETATM    7  C8  UNL     1      26.662   0.079  52.445  1.00  0.00    -0.027 C 
HETATM    8  C9  UNL     1      26.698   1.201  51.472  1.00  0.00     0.047 C 
HETATM    9  C10 UNL     1      26.059   2.400  52.116  1.00  0.00     0.127 C 
HETATM   10  N1  UNL     1      24.731   2.125  52.665  1.00  0.00    -0.377 N 
HETATM   11  C11 UNL     1      24.346   3.358  53.260  1.00  0.00     0.103 C 
HETATM   12  C12 UNL     1      23.393   4.205  52.925  1.00  0.00     0.108 C 
HETATM   13  N2  UNL     1      22.422   4.217  51.889  1.00  0.00    -0.349 N 
HETATM   14  C13 UNL     1      22.139   5.283  50.993  1.00  0.00     0.110 C 
HETATM   15  C14 UNL     1      21.361   4.996  49.934  1.00  0.00     0.119 C 
HETATM   16  N3  UNL     1      20.505   3.835  49.884  1.00  0.00    -0.322 N 
HETATM   17  N4  UNL     1      20.449   3.066  51.022  1.00  0.00    -0.162 NA
HETATM   18  C15 UNL     1      21.674   3.013  51.764  1.00  0.00     0.249 C 
HETATM   19  H18 UNL     1      19.991   3.664  48.991  1.00  0.00     0.180 HD
ENDROOT
BRANCH   1  20
HETATM   20  O1  UNL     1      18.847   0.909  51.930  1.00  0.00    -0.306 OA
BRANCH  20  21
HETATM   21  C2  UNL     1      18.344  -0.358  51.766  1.00  0.00     0.377 C 
HETATM   22  F3  UNL     1      17.110  -0.262  51.155  1.00  0.00    -0.213 F 
BRANCH  21  23
HETATM   23  C1  UNL     1      18.108  -1.051  53.096  1.00  0.00     0.412 C 
HETATM   24  F1  UNL     1      19.327  -1.385  53.653  1.00  0.00    -0.209 F 
HETATM   25  F2  UNL     1      17.431  -2.237  52.912  1.00  0.00    -0.209 F 
ENDBRANCH  21  23
ENDBRANCH  20  21
ENDBRANCH   1  20
TORSDOF 3
ENDMDL
MODEL 7
REMARK VINA RESULT:      -6.8      9.366     11.077
REMARK  3 active torsions:
REMARK  status: ('A' for Active; 'I' for Inactive)
REMARK    1  A    between atoms: C1_2  and  C2_4 
REMARK    2  A    between atoms: C2_4  and  O1_6 
REMARK    3  A    between atoms: O1_6  and  P1_7 
ROOT
HETATM    1  P1  UNL     1      33.481   5.437  47.968  1.00  0.00     0.128 P 
HETATM    2  C3  UNL     1      31.876   5.616  48.884  1.00  0.00     0.108 C 
HETATM    3  C4  UNL     1      30.679   5.490  48.054  1.00  0.00    -0.020 C 
HETATM    4  C5  UNL     1      29.636   6.270  47.777  1.00  0.00    -0.002 C 
HETATM    5  C6  UNL     1      29.371   7.615  48.279  1.00  0.00     0.129 C 
HETATM    6  C7  UNL     1      27.950   7.628  48.730  1.00  0.00    -0.002 C 
HETATM    7  C8  UNL     1      27.509   8.743  49.303  1.00  0.00    -0.027 C 
HETATM    8  C9  UNL     1      28.571   9.778  49.372  1.00  0.00     0.047 C 
HETATM    9  C10 UNL     1      29.141   9.958  47.993  1.00  0.00     0.127 C 
HETATM   10  N1  UNL     1      29.566   8.703  47.372  1.00  0.00    -0.377 N 
HETATM   11  C11 UNL     1      30.012   9.095  46.080  1.00  0.00     0.103 C 
HETATM   12  C12 UNL     1      31.222   9.087  45.556  1.00  0.00     0.108 C 
HETATM   13  N2  UNL     1      32.494   8.699  46.054  1.00  0.00    -0.349 N 
HETATM   14  C13 UNL     1      33.697   9.453  46.010  1.00  0.00     0.110 C 
HETATM   15  C14 UNL     1      34.722   9.007  46.758  1.00  0.00     0.119 C 
HETATM   16  N3  UNL     1      34.800   7.652  47.249  1.00  0.00    -0.322 N 
HETATM   17  N4  UNL     1      33.808   6.795  46.839  1.00  0.00    -0.162 NA
HETATM   18  C15 UNL     1      32.527   7.411  46.658  1.00  0.00     0.249 C 
HETATM   19  H18 UNL     1      35.602   7.422  47.877  1.00  0.00     0.180 HD
ENDROOT
BRANCH   1  20
HETATM   20  O1  UNL     1      33.357   3.999  46.997  1.00  0.00    -0.306 OA
BRANCH  20  21
HETATM   21  C2  UNL     1      33.164   2.856  47.734  1.00  0.00     0.377 C 
HETATM   22  F3  UNL     1      34.383   2.452  48.239  1.00  0.00    -0.213 F 
BRANCH  21  23
HETATM   23  C1  UNL     1      32.655   1.710  46.880  1.00  0.00     0.412 C 
HETATM   24  F1  UNL     1      31.396   2.023  46.406  1.00  0.00    -0.209 F 
HETATM   25  F2  UNL     1      32.507   0.568  47.637  1.00  0.00    -0.209 F 
ENDBRANCH  21  23
ENDBRANCH  20  21
ENDBRANCH   1  20
TORSDOF 3
ENDMDL
MODEL 8
REMARK VINA RESULT:      -6.6      3.702      5.241
REMARK  3 active torsions:
REMARK  status: ('A' for Active; 'I' for Inactive)
REMARK    1  A    between atoms: C1_2  and  C2_4 
REMARK    2  A    between atoms: C2_4  and  O1_6 
REMARK    3  A    between atoms: O1_6  and  P1_7 
ROOT
HETATM    1  P1  UNL     1      23.096   1.120  52.012  1.00  0.00     0.128 P 
HETATM    2  C3  UNL     1      24.234   2.586  51.962  1.00  0.00     0.108 C 
HETATM    3  C4  UNL     1      23.772   3.747  52.722  1.00  0.00    -0.020 C 
HETATM    4  C5  UNL     1      23.494   5.016  52.431  1.00  0.00    -0.002 C 
HETATM    5  C6  UNL     1      23.581   5.672  51.129  1.00  0.00     0.129 C 
HETATM    6  C7  UNL     1      24.303   6.957  51.348  1.00  0.00    -0.002 C 
HETATM    7  C8  UNL     1      24.568   7.692  50.272  1.00  0.00    -0.027 C 
HETATM    8  C9  UNL     1      24.066   7.045  49.033  1.00  0.00     0.047 C 
HETATM    9  C10 UNL     1      22.613   6.716  49.232  1.00  0.00     0.127 C 
HETATM   10  N1  UNL     1      22.352   5.954  50.454  1.00  0.00    -0.377 N 
HETATM   11  C11 UNL     1      20.938   5.804  50.468  1.00  0.00     0.103 C 
HETATM   12  C12 UNL     1      20.194   4.725  50.331  1.00  0.00     0.108 C 
HETATM   13  N2  UNL     1      20.499   3.352  50.128  1.00  0.00    -0.349 N 
HETATM   14  C13 UNL     1      19.951   2.491  49.141  1.00  0.00     0.110 C 
HETATM   15  C14 UNL     1      20.560   1.304  48.965  1.00  0.00     0.119 C 
HETATM   16  N3  UNL     1      21.432   0.718  49.955  1.00  0.00    -0.322 N 
HETATM   17  N4  UNL     1      21.548   1.394  51.145  1.00  0.00    -0.162 NA
HETATM   18  C15 UNL     1      21.463   2.820  51.030  1.00  0.00     0.249 C 
HETATM   19  H18 UNL     1      21.909  -0.175  49.696  1.00  0.00     0.180 HD
ENDROOT
BRANCH   1  20
HETATM   20  O1  UNL     1      22.692   0.844  53.681  1.00  0.00    -0.306 OA
BRANCH  20  21
HETATM   21  C2  UNL     1      21.576   0.063  53.852  1.00  0.00     0.377 C 
HETATM   22  F3  UNL     1      20.774   0.651  54.809  1.00  0.00    -0.213 F 
BRANCH  21  23
HETATM   23  C1  UNL     1      21.925  -1.318  54.378  1.00  0.00     0.412 C 
HETATM   24  F1  UNL     1      20.760  -1.993  54.682  1.00  0.00    -0.209 F 
HETATM   25  F2  UNL     1      22.634  -1.225  55.555  1.00  0.00    -0.209 F 
ENDBRANCH  21  23
ENDBRANCH  20  21
ENDBRANCH   1  20
TORSDOF 3
ENDMDL
MODEL 9
REMARK VINA RESULT:      -6.4      8.625     10.329
REMARK  3 active torsions:
REMARK  status: ('A' for Active; 'I' for Inactive)
REMARK    1  A    between atoms: C1_2  and  C2_4 
REMARK    2  A    between atoms: C2_4  and  O1_6 
REMARK    3  A    between atoms: O1_6  and  P1_7 
ROOT
HETATM    1  P1  UNL     1      32.484   6.643  47.935  1.00  0.00     0.128 P 
HETATM    2  C3  UNL     1      30.999   6.085  48.900  1.00  0.00     0.108 C 
HETATM    3  C4  UNL     1      29.880   5.613  48.084  1.00  0.00    -0.020 C 
HETATM    4  C5  UNL     1      28.605   5.964  47.938  1.00  0.00    -0.002 C 
HETATM    5  C6  UNL     1      27.891   7.036  48.627  1.00  0.00     0.129 C 
HETATM    6  C7  UNL     1      26.605   6.452  49.103  1.00  0.00    -0.002 C 
HETATM    7  C8  UNL     1      25.819   7.237  49.833  1.00  0.00    -0.027 C 
HETATM    8  C9  UNL     1      26.419   8.583  50.024  1.00  0.00     0.047 C 
HETATM    9  C10 UNL     1      26.779   9.130  48.672  1.00  0.00     0.127 C 
HETATM   10  N1  UNL     1      27.598   8.217  47.875  1.00  0.00    -0.377 N 
HETATM   11  C11 UNL     1      27.772   8.901  46.640  1.00  0.00     0.103 C 
HETATM   12  C12 UNL     1      28.856   9.418  46.097  1.00  0.00     0.108 C 
HETATM   13  N2  UNL     1      30.213   9.487  46.511  1.00  0.00    -0.349 N 
HETATM   14  C13 UNL     1      31.039  10.643  46.547  1.00  0.00     0.110 C 
HETATM   15  C14 UNL     1      32.207  10.534  47.206  1.00  0.00     0.119 C 
HETATM   16  N3  UNL     1      32.822   9.263  47.503  1.00  0.00    -0.322 N 
HETATM   17  N4  UNL     1      32.197   8.148  46.999  1.00  0.00    -0.162 NA
HETATM   18  C15 UNL     1      30.769   8.247  46.930  1.00  0.00     0.249 C 
HETATM   19  H18 UNL     1      33.694   9.282  48.077  1.00  0.00     0.180 HD
ENDROOT
BRANCH   1  20
HETATM   20  O1  UNL     1      32.840   5.394  46.778  1.00  0.00    -0.306 OA
BRANCH  20  21
HETATM   21  C2  UNL     1      33.519   4.328  47.314  1.00  0.00     0.377 C 
HETATM   22  F3  UNL     1      34.648   4.103  46.553  1.00  0.00    -0.213 F 
BRANCH  21  23
HETATM   23  C1  UNL     1      32.704   3.049  47.257  1.00  0.00     0.412 C 
HETATM   24  F1  UNL     1      33.448   2.067  46.633  1.00  0.00    -0.209 F 
HETATM   25  F2  UNL     1      31.576   3.225  46.485  1.00  0.00    -0.209 F 
ENDBRANCH  21  23
ENDBRANCH  20  21
ENDBRANCH   1  20
TORSDOF 3
ENDMDL
