MODEL 1
REMARK VINA RESULT:      -7.2      0.000      0.000
REMARK  6 active torsions:
REMARK  status: ('A' for Active; 'I' for Inactive)
REMARK    1  A    between atoms: C2_2  and  C3_3 
REMARK    2  A    between atoms: N2_8  and  C7_9 
REMARK    3  A    between atoms: C7_9  and  C8_10 
REMARK    4  A    between atoms: C8_10  and  C9_11 
REMARK    5  A    between atoms: C12_15  and  C13_16 
REMARK    6  A    between atoms: C13_16  and  O2_17 
ROOT
HETATM    1  C3  UNL     1      20.882   2.962  47.855  1.00  0.00     0.010 C 
HETATM    2  C4  UNL     1      21.282   2.640  49.097  1.00  0.00     0.067 C 
HETATM    3  N1  UNL     1      22.374   3.450  49.606  1.00  0.00    -0.364 N 
HETATM    4  C5  UNL     1      23.680   3.872  49.900  1.00  0.00     0.180 C 
HETATM    5  C6  UNL     1      23.638   5.314  50.472  1.00  0.00     0.055 C 
HETATM    6  N2  UNL     1      24.510   3.162  50.840  1.00  0.00    -0.363 N 
HETATM    7  C10 UNL     1      24.208   2.168  51.812  1.00  0.00     0.010 C 
HETATM    8  C11 UNL     1      24.870   1.794  52.881  1.00  0.00     0.010 C 
HETATM    9  C12 UNL     1      24.638   0.460  53.445  1.00  0.00     0.062 C 
HETATM   10  C14 UNL     1      23.276  -0.053  53.329  1.00  0.00    -0.067 C 
HETATM   11  C15 UNL     1      22.642  -1.131  54.094  1.00  0.00     0.044 C 
HETATM   12  C16 UNL     1      22.456   0.472  52.442  1.00  0.00    -0.049 C 
HETATM   13  C17 UNL     1      21.044   0.136  52.239  1.00  0.00     0.015 C 
HETATM   14  C18 UNL     1      20.438   0.535  51.134  1.00  0.00     0.052 C 
HETATM   15  S1  UNL     1      20.257   1.294  49.603  1.00  0.00    -0.085 SA
HETATM   16  C19 UNL     1      22.961   1.518  51.525  1.00  0.00     0.095 C 
HETATM   17  H7  UNL     1      21.576   4.071  49.955  1.00  0.00     0.162 HD
ENDROOT
BRANCH   6  18
HETATM   18  C7  UNL     1      25.909   3.524  50.834  1.00  0.00     0.132 C 
BRANCH  18  19
HETATM   19  C8  UNL     1      26.482   3.342  49.422  1.00  0.00     0.089 C 
BRANCH  19  20
HETATM   20  C9  UNL     1      27.035   4.658  48.933  1.00  0.00     0.232 C 
HETATM   21  O1  UNL     1      28.201   4.624  48.576  1.00  0.00    -0.307 OA
ENDBRANCH  19  20
ENDBRANCH  18  19
ENDBRANCH   6  18
BRANCH   9  22
HETATM   22  C13 UNL     1      25.690  -0.480  52.857  1.00  0.00     0.177 C 
BRANCH  22  23
HETATM   23  O2  UNL     1      26.267  -1.227  53.899  1.00  0.00    -0.400 OA
HETATM   24  H21 UNL     1      25.675  -1.996  54.052  1.00  0.00     0.209 HD
ENDBRANCH  22  23
ENDBRANCH   9  22
BRANCH   1  25
HETATM   25  C2  UNL     1      21.521   4.041  47.124  1.00  0.00     0.025 C 
HETATM   26  C1  UNL     1      21.933   3.649  45.715  1.00  0.00     0.009 C 
ENDBRANCH   1  25
TORSDOF 6
ENDMDL
MODEL 2
REMARK VINA RESULT:      -7.2      3.222      4.943
REMARK  6 active torsions:
REMARK  status: ('A' for Active; 'I' for Inactive)
REMARK    1  A    between atoms: C2_2  and  C3_3 
REMARK    2  A    between atoms: N2_8  and  C7_9 
REMARK    3  A    between atoms: C7_9  and  C8_10 
REMARK    4  A    between atoms: C8_10  and  C9_11 
REMARK    5  A    between atoms: C12_15  and  C13_16 
REMARK    6  A    between atoms: C13_16  and  O2_17 
ROOT
HETATM    1  C3  UNL     1      24.475   4.564  49.368  1.00  0.00     0.010 C 
HETATM    2  C4  UNL     1      24.368   3.373  49.984  1.00  0.00     0.067 C 
HETATM    3  N1  UNL     1      23.147   2.649  49.683  1.00  0.00    -0.364 N 
HETATM    4  C5  UNL     1      21.824   2.188  49.785  1.00  0.00     0.180 C 
HETATM    5  C6  UNL     1      21.464   1.372  48.515  1.00  0.00     0.055 C 
HETATM    6  N2  UNL     1      21.404   1.333  50.864  1.00  0.00    -0.363 N 
HETATM    7  C10 UNL     1      22.139   0.579  51.821  1.00  0.00     0.010 C 
HETATM    8  C11 UNL     1      21.782  -0.451  52.550  1.00  0.00     0.010 C 
HETATM    9  C12 UNL     1      22.511  -0.749  53.788  1.00  0.00     0.062 C 
HETATM   10  C14 UNL     1      23.938  -0.443  53.777  1.00  0.00    -0.067 C 
HETATM   11  C15 UNL     1      24.984  -0.954  54.666  1.00  0.00     0.044 C 
HETATM   12  C16 UNL     1      24.417   0.394  52.880  1.00  0.00    -0.049 C 
HETATM   13  C17 UNL     1      25.822   0.757  52.673  1.00  0.00     0.015 C 
HETATM   14  C18 UNL     1      26.114   1.814  51.936  1.00  0.00     0.052 C 
HETATM   15  S1  UNL     1      25.835   3.194  50.950  1.00  0.00    -0.085 SA
HETATM   16  C19 UNL     1      23.482   1.069  51.952  1.00  0.00     0.095 C 
HETATM   17  H7  UNL     1      23.735   2.254  48.881  1.00  0.00     0.162 HD
ENDROOT
BRANCH   6  18
HETATM   18  C7  UNL     1      19.975   1.170  51.011  1.00  0.00     0.132 C 
BRANCH  18  19
HETATM   19  C8  UNL     1      19.432   2.235  51.974  1.00  0.00     0.089 C 
BRANCH  19  20
HETATM   20  C9  UNL     1      18.446   3.113  51.245  1.00  0.00     0.232 C 
HETATM   21  O1  UNL     1      17.745   3.806  51.964  1.00  0.00    -0.307 OA
ENDBRANCH  19  20
ENDBRANCH  18  19
ENDBRANCH   6  18
BRANCH   9  22
HETATM   22  C13 UNL     1      21.759  -0.082  54.939  1.00  0.00     0.177 C 
BRANCH  22  23
HETATM   23  O2  UNL     1      20.378  -0.158  54.686  1.00  0.00    -0.400 OA
HETATM   24  H21 UNL     1      20.066  -0.997  55.091  1.00  0.00     0.209 HD
ENDBRANCH  22  23
ENDBRANCH   9  22
BRANCH   1  25
HETATM   25  C2  UNL     1      23.427   5.041  48.485  1.00  0.00     0.025 C 
HETATM   26  C1  UNL     1      23.699   6.427  47.924  1.00  0.00     0.009 C 
ENDBRANCH   1  25
TORSDOF 6
ENDMDL
MODEL 3
REMARK VINA RESULT:      -7.1      2.943      4.529
REMARK  6 active torsions:
REMARK  status: ('A' for Active; 'I' for Inactive)
REMARK    1  A    between atoms: C2_2  and  C3_3 
REMARK    2  A    between atoms: N2_8  and  C7_9 
REMARK    3  A    between atoms: C7_9  and  C8_10 
REMARK    4  A    between atoms: C8_10  and  C9_11 
REMARK    5  A    between atoms: C12_15  and  C13_16 
REMARK    6  A    between atoms: C13_16  and  O2_17 
ROOT
HETATM    1  C3  UNL     1      25.825   4.194  49.314  1.00  0.00     0.010 C 
HETATM    2  C4  UNL     1      25.147   3.713  50.370  1.00  0.00     0.067 C 
HETATM    3  N1  UNL     1      25.971   3.031  51.352  1.00  0.00    -0.364 N 
HETATM    4  C5  UNL     1      26.643   1.999  52.025  1.00  0.00     0.180 C 
HETATM    5  C6  UNL     1      27.567   2.609  53.113  1.00  0.00     0.055 C 
HETATM    6  N2  UNL     1      25.929   0.967  52.732  1.00  0.00    -0.363 N 
HETATM    7  C10 UNL     1      24.572   0.864  53.146  1.00  0.00     0.010 C 
HETATM    8  C11 UNL     1      24.019   0.120  54.074  1.00  0.00     0.010 C 
HETATM    9  C12 UNL     1      22.587  -0.185  53.999  1.00  0.00     0.062 C 
HETATM   10  C14 UNL     1      21.741   0.865  53.439  1.00  0.00    -0.067 C 
HETATM   11  C15 UNL     1      20.291   1.033  53.575  1.00  0.00     0.044 C 
HETATM   12  C16 UNL     1      22.282   1.816  52.707  1.00  0.00    -0.049 C 
HETATM   13  C17 UNL     1      21.604   2.981  52.131  1.00  0.00     0.015 C 
HETATM   14  C18 UNL     1      22.213   3.684  51.192  1.00  0.00     0.052 C 
HETATM   15  S1  UNL     1      23.455   4.132  50.093  1.00  0.00    -0.085 SA
HETATM   16  C19 UNL     1      23.729   1.753  52.400  1.00  0.00     0.095 C 
HETATM   17  H7  UNL     1      26.052   4.013  51.771  1.00  0.00     0.162 HD
ENDROOT
BRANCH   6  18
HETATM   18  C7  UNL     1      26.718  -0.178  53.128  1.00  0.00     0.132 C 
BRANCH  18  19
HETATM   19  C8  UNL     1      26.859  -1.141  51.941  1.00  0.00     0.089 C 
BRANCH  19  20
HETATM   20  C9  UNL     1      27.202  -2.518  52.453  1.00  0.00     0.232 C 
HETATM   21  O1  UNL     1      28.155  -2.562  53.213  1.00  0.00    -0.307 OA
ENDBRANCH  19  20
ENDBRANCH  18  19
ENDBRANCH   6  18
BRANCH   9  22
HETATM   22  C13 UNL     1      22.436  -1.527  53.285  1.00  0.00     0.177 C 
BRANCH  22  23
HETATM   23  O2  UNL     1      21.493  -2.308  53.974  1.00  0.00    -0.400 OA
HETATM   24  H21 UNL     1      21.886  -3.204  54.067  1.00  0.00     0.209 HD
ENDBRANCH  22  23
ENDBRANCH   9  22
BRANCH   1  25
HETATM   25  C2  UNL     1      27.263   4.022  49.211  1.00  0.00     0.025 C 
HETATM   26  C1  UNL     1      27.958   5.178  48.512  1.00  0.00     0.009 C 
ENDBRANCH   1  25
TORSDOF 6
ENDMDL
MODEL 4
REMARK VINA RESULT:      -7.1      1.948      5.790
REMARK  6 active torsions:
REMARK  status: ('A' for Active; 'I' for Inactive)
REMARK    1  A    between atoms: C2_2  and  C3_3 
REMARK    2  A    between atoms: N2_8  and  C7_9 
REMARK    3  A    between atoms: C7_9  and  C8_10 
REMARK    4  A    between atoms: C8_10  and  C9_11 
REMARK    5  A    between atoms: C12_15  and  C13_16 
REMARK    6  A    between atoms: C13_16  and  O2_17 
ROOT
HETATM    1  C3  UNL     1      22.038   0.236  53.758  1.00  0.00     0.010 C 
HETATM    2  C4  UNL     1      22.518   0.807  52.640  1.00  0.00     0.067 C 
HETATM    3  N1  UNL     1      23.948   0.649  52.451  1.00  0.00    -0.364 N 
HETATM    4  C5  UNL     1      25.326   0.914  52.506  1.00  0.00     0.180 C 
HETATM    5  C6  UNL     1      26.110  -0.328  52.003  1.00  0.00     0.055 C 
HETATM    6  N2  UNL     1      25.915   2.003  51.770  1.00  0.00    -0.363 N 
HETATM    7  C10 UNL     1      25.418   2.814  50.712  1.00  0.00     0.010 C 
HETATM    8  C11 UNL     1      26.055   3.539  49.823  1.00  0.00     0.010 C 
HETATM    9  C12 UNL     1      25.359   4.648  49.162  1.00  0.00     0.062 C 
HETATM   10  C14 UNL     1      23.933   4.451  48.918  1.00  0.00    -0.067 C 
HETATM   11  C15 UNL     1      23.066   5.162  47.974  1.00  0.00     0.044 C 
HETATM   12  C16 UNL     1      23.277   3.533  49.597  1.00  0.00    -0.049 C 
HETATM   13  C17 UNL     1      21.872   3.149  49.432  1.00  0.00     0.015 C 
HETATM   14  C18 UNL     1      21.286   2.425  50.370  1.00  0.00     0.052 C 
HETATM   15  S1  UNL     1      21.130   1.550  51.840  1.00  0.00    -0.085 SA
HETATM   16  C19 UNL     1      23.984   2.777  50.654  1.00  0.00     0.095 C 
HETATM   17  H7  UNL     1      23.649  -0.244  51.943  1.00  0.00     0.162 HD
ENDROOT
BRANCH   6  18
HETATM   18  C7  UNL     1      27.273   2.341  52.135  1.00  0.00     0.132 C 
BRANCH  18  19
HETATM   19  C8  UNL     1      27.409   2.338  53.664  1.00  0.00     0.089 C 
BRANCH  19  20
HETATM   20  C9  UNL     1      28.726   1.710  54.047  1.00  0.00     0.232 C 
HETATM   21  O1  UNL     1      28.729   1.139  55.125  1.00  0.00    -0.307 OA
ENDBRANCH  19  20
ENDBRANCH  18  19
ENDBRANCH   6  18
BRANCH   9  22
HETATM   22  C13 UNL     1      25.666   5.921  49.950  1.00  0.00     0.177 C 
BRANCH  22  23
HETATM   23  O2  UNL     1      26.928   6.405  49.562  1.00  0.00    -0.400 OA
HETATM   24  H21 UNL     1      26.771   7.266  49.115  1.00  0.00     0.209 HD
ENDBRANCH  22  23
ENDBRANCH   9  22
BRANCH   1  25
HETATM   25  C2  UNL     1      22.919  -0.470  54.670  1.00  0.00     0.025 C 
HETATM   26  C1  UNL     1      22.391  -1.836  55.077  1.00  0.00     0.009 C 
ENDBRANCH   1  25
TORSDOF 6
ENDMDL
MODEL 5
REMARK VINA RESULT:      -7.0      3.066      5.433
REMARK  6 active torsions:
REMARK  status: ('A' for Active; 'I' for Inactive)
REMARK    1  A    between atoms: C2_2  and  C3_3 
REMARK    2  A    between atoms: N2_8  and  C7_9 
REMARK    3  A    between atoms: C7_9  and  C8_10 
REMARK    4  A    between atoms: C8_10  and  C9_11 
REMARK    5  A    between atoms: C12_15  and  C13_16 
REMARK    6  A    between atoms: C13_16  and  O2_17 
ROOT
HETATM    1  C3  UNL     1      27.315   1.096  53.892  1.00  0.00     0.010 C 
HETATM    2  C4  UNL     1      26.153   0.970  53.228  1.00  0.00     0.067 C 
HETATM    3  N1  UNL     1      26.025   1.839  52.073  1.00  0.00    -0.364 N 
HETATM    4  C5  UNL     1      25.702   2.961  51.292  1.00  0.00     0.180 C 
HETATM    5  C6  UNL     1      26.330   2.803  49.881  1.00  0.00     0.055 C 
HETATM    6  N2  UNL     1      24.335   3.319  51.014  1.00  0.00    -0.363 N 
HETATM    7  C10 UNL     1      23.116   2.603  51.164  1.00  0.00     0.010 C 
HETATM    8  C11 UNL     1      21.948   2.781  50.594  1.00  0.00     0.010 C 
HETATM    9  C12 UNL     1      20.739   2.260  51.242  1.00  0.00     0.062 C 
HETATM   10  C14 UNL     1      20.901   1.014  51.985  1.00  0.00    -0.067 C 
HETATM   11  C15 UNL     1      19.866   0.064  52.402  1.00  0.00     0.044 C 
HETATM   12  C16 UNL     1      22.103   0.631  52.360  1.00  0.00    -0.049 C 
HETATM   13  C17 UNL     1      22.460  -0.617  53.041  1.00  0.00     0.015 C 
HETATM   14  C18 UNL     1      23.650  -0.728  53.605  1.00  0.00     0.052 C 
HETATM   15  S1  UNL     1      25.230  -0.260  54.095  1.00  0.00    -0.085 SA
HETATM   16  C19 UNL     1      23.258   1.518  52.092  1.00  0.00     0.095 C 
HETATM   17  H7  UNL     1      26.478   1.013  51.566  1.00  0.00     0.162 HD
ENDROOT
BRANCH   6  18
HETATM   18  C7  UNL     1      24.138   4.637  50.453  1.00  0.00     0.132 C 
BRANCH  18  19
HETATM   19  C8  UNL     1      23.868   5.642  51.581  1.00  0.00     0.089 C 
BRANCH  19  20
HETATM   20  C9  UNL     1      24.290   7.020  51.136  1.00  0.00     0.232 C 
HETATM   21  O1  UNL     1      25.383   7.073  50.596  1.00  0.00    -0.307 OA
ENDBRANCH  19  20
ENDBRANCH  18  19
ENDBRANCH   6  18
BRANCH   9  22
HETATM   22  C13 UNL     1      20.142   3.390  52.081  1.00  0.00     0.177 C 
BRANCH  22  23
HETATM   23  O2  UNL     1      18.749   3.410  51.895  1.00  0.00    -0.400 OA
HETATM   24  H21 UNL     1      18.472   2.476  51.763  1.00  0.00     0.209 HD
ENDBRANCH  22  23
ENDBRANCH   9  22
BRANCH   1  25
HETATM   25  C2  UNL     1      28.326   2.038  53.451  1.00  0.00     0.025 C 
HETATM   26  C1  UNL     1      29.518   2.124  54.389  1.00  0.00     0.009 C 
ENDBRANCH   1  25
TORSDOF 6
ENDMDL
MODEL 6
REMARK VINA RESULT:      -6.9      1.697      2.045
REMARK  6 active torsions:
REMARK  status: ('A' for Active; 'I' for Inactive)
REMARK    1  A    between atoms: C2_2  and  C3_3 
REMARK    2  A    between atoms: N2_8  and  C7_9 
REMARK    3  A    between atoms: C7_9  and  C8_10 
REMARK    4  A    between atoms: C8_10  and  C9_11 
REMARK    5  A    between atoms: C12_15  and  C13_16 
REMARK    6  A    between atoms: C13_16  and  O2_17 
ROOT
HETATM    1  C3  UNL     1      19.307   2.043  49.795  1.00  0.00     0.010 C 
HETATM    2  C4  UNL     1      20.254   1.971  50.746  1.00  0.00     0.067 C 
HETATM    3  N1  UNL     1      21.033   3.185  50.911  1.00  0.00    -0.364 N 
HETATM    4  C5  UNL     1      22.061   4.127  50.749  1.00  0.00     0.180 C 
HETATM    5  C6  UNL     1      21.672   5.443  51.476  1.00  0.00     0.055 C 
HETATM    6  N2  UNL     1      23.400   3.872  51.213  1.00  0.00    -0.363 N 
HETATM    7  C10 UNL     1      23.930   2.885  52.091  1.00  0.00     0.010 C 
HETATM    8  C11 UNL     1      25.046   2.869  52.779  1.00  0.00     0.010 C 
HETATM    9  C12 UNL     1      25.610   1.586  53.213  1.00  0.00     0.062 C 
HETATM   10  C14 UNL     1      24.642   0.545  53.547  1.00  0.00    -0.067 C 
HETATM   11  C15 UNL     1      24.849  -0.665  54.348  1.00  0.00     0.044 C 
HETATM   12  C16 UNL     1      23.406   0.640  53.104  1.00  0.00    -0.049 C 
HETATM   13  C17 UNL     1      22.291  -0.265  53.400  1.00  0.00     0.015 C 
HETATM   14  C18 UNL     1      21.197  -0.204  52.661  1.00  0.00     0.052 C 
HETATM   15  S1  UNL     1      20.143   0.343  51.419  1.00  0.00    -0.085 SA
HETATM   16  C19 UNL     1      23.045   1.761  52.208  1.00  0.00     0.095 C 
HETATM   17  H7  UNL     1      20.260   3.429  51.609  1.00  0.00     0.162 HD
ENDROOT
BRANCH   6  18
HETATM   18  C7  UNL     1      24.412   4.786  50.733  1.00  0.00     0.132 C 
BRANCH  18  19
HETATM   19  C8  UNL     1      24.917   4.321  49.360  1.00  0.00     0.089 C 
BRANCH  19  20
HETATM   20  C9  UNL     1      26.387   4.636  49.235  1.00  0.00     0.232 C 
HETATM   21  O1  UNL     1      27.136   3.743  49.594  1.00  0.00    -0.307 OA
ENDBRANCH  19  20
ENDBRANCH  18  19
ENDBRANCH   6  18
BRANCH   9  22
HETATM   22  C13 UNL     1      26.628   1.149  52.160  1.00  0.00     0.177 C 
BRANCH  22  23
HETATM   23  O2  UNL     1      27.538   2.198  51.942  1.00  0.00    -0.400 OA
HETATM   24  H21 UNL     1      28.342   1.984  52.465  1.00  0.00     0.209 HD
ENDBRANCH  22  23
ENDBRANCH   9  22
BRANCH   1  25
HETATM   25  C2  UNL     1      19.119   3.258  49.023  1.00  0.00     0.025 C 
HETATM   26  C1  UNL     1      19.591   3.135  47.584  1.00  0.00     0.009 C 
ENDBRANCH   1  25
TORSDOF 6
ENDMDL
MODEL 7
REMARK VINA RESULT:      -6.9      2.439      3.667
REMARK  6 active torsions:
REMARK  status: ('A' for Active; 'I' for Inactive)
REMARK    1  A    between atoms: C2_2  and  C3_3 
REMARK    2  A    between atoms: N2_8  and  C7_9 
REMARK    3  A    between atoms: C7_9  and  C8_10 
REMARK    4  A    between atoms: C8_10  and  C9_11 
REMARK    5  A    between atoms: C12_15  and  C13_16 
REMARK    6  A    between atoms: C13_16  and  O2_17 
ROOT
HETATM    1  C3  UNL     1      21.907   3.114  48.264  1.00  0.00     0.010 C 
HETATM    2  C4  UNL     1      21.392   2.657  49.419  1.00  0.00     0.067 C 
HETATM    3  N1  UNL     1      22.185   2.968  50.594  1.00  0.00    -0.364 N 
HETATM    4  C5  UNL     1      23.137   2.838  51.619  1.00  0.00     0.180 C 
HETATM    5  C6  UNL     1      23.243   4.179  52.394  1.00  0.00     0.055 C 
HETATM    6  N2  UNL     1      22.994   1.857  52.663  1.00  0.00    -0.363 N 
HETATM    7  C10 UNL     1      21.888   1.061  53.074  1.00  0.00     0.010 C 
HETATM    8  C11 UNL     1      21.653   0.454  54.213  1.00  0.00     0.010 C 
HETATM    9  C12 UNL     1      20.724  -0.680  54.250  1.00  0.00     0.062 C 
HETATM   10  C14 UNL     1      19.599  -0.613  53.321  1.00  0.00    -0.067 C 
HETATM   11  C15 UNL     1      18.335  -1.353  53.370  1.00  0.00     0.044 C 
HETATM   12  C16 UNL     1      19.659   0.195  52.283  1.00  0.00    -0.049 C 
HETATM   13  C17 UNL     1      18.604   0.446  51.298  1.00  0.00     0.015 C 
HETATM   14  C18 UNL     1      18.909   1.054  50.165  1.00  0.00     0.052 C 
HETATM   15  S1  UNL     1      19.896   1.826  48.988  1.00  0.00    -0.085 SA
HETATM   16  C19 UNL     1      20.903   0.958  52.036  1.00  0.00     0.095 C 
HETATM   17  H7  UNL     1      21.585   3.854  50.603  1.00  0.00     0.162 HD
ENDROOT
BRANCH   6  18
HETATM   18  C7  UNL     1      24.168   1.636  53.476  1.00  0.00     0.132 C 
BRANCH  18  19
HETATM   19  C8  UNL     1      25.026   0.527  52.851  1.00  0.00     0.089 C 
BRANCH  19  20
HETATM   20  C9  UNL     1      25.258  -0.560  53.871  1.00  0.00     0.232 C 
HETATM   21  O1  UNL     1      26.185  -1.312  53.618  1.00  0.00    -0.307 OA
ENDBRANCH  19  20
ENDBRANCH  18  19
ENDBRANCH   6  18
BRANCH   9  22
HETATM   22  C13 UNL     1      21.549  -1.958  54.107  1.00  0.00     0.177 C 
BRANCH  22  23
HETATM   23  O2  UNL     1      22.289  -2.158  55.285  1.00  0.00    -0.400 OA
HETATM   24  H21 UNL     1      23.233  -2.210  55.016  1.00  0.00     0.209 HD
ENDBRANCH  22  23
ENDBRANCH   9  22
BRANCH   1  25
HETATM   25  C2  UNL     1      23.156   3.852  48.247  1.00  0.00     0.025 C 
HETATM   26  C1  UNL     1      22.982   5.319  47.890  1.00  0.00     0.009 C 
ENDBRANCH   1  25
TORSDOF 6
ENDMDL
MODEL 8
REMARK VINA RESULT:      -6.6      2.341      3.588
REMARK  6 active torsions:
REMARK  status: ('A' for Active; 'I' for Inactive)
REMARK    1  A    between atoms: C2_2  and  C3_3 
REMARK    2  A    between atoms: N2_8  and  C7_9 
REMARK    3  A    between atoms: C7_9  and  C8_10 
REMARK    4  A    between atoms: C8_10  and  C9_11 
REMARK    5  A    between atoms: C12_15  and  C13_16 
REMARK    6  A    between atoms: C13_16  and  O2_17 
ROOT
HETATM    1  C3  UNL     1      19.515  -0.088  51.631  1.00  0.00     0.010 C 
HETATM    2  C4  UNL     1      20.605   0.307  52.312  1.00  0.00     0.067 C 
HETATM    3  N1  UNL     1      20.955   1.703  52.127  1.00  0.00    -0.364 N 
HETATM    4  C5  UNL     1      21.559   2.855  51.598  1.00  0.00     0.180 C 
HETATM    5  C6  UNL     1      20.913   4.114  52.237  1.00  0.00     0.055 C 
HETATM    6  N2  UNL     1      22.972   3.098  51.733  1.00  0.00    -0.363 N 
HETATM    7  C10 UNL     1      23.963   2.500  52.560  1.00  0.00     0.010 C 
HETATM    8  C11 UNL     1      25.138   2.945  52.938  1.00  0.00     0.010 C 
HETATM    9  C12 UNL     1      26.169   1.994  53.365  1.00  0.00     0.062 C 
HETATM   10  C14 UNL     1      25.689   0.801  54.056  1.00  0.00    -0.067 C 
HETATM   11  C15 UNL     1      26.441  -0.115  54.918  1.00  0.00     0.044 C 
HETATM   12  C16 UNL     1      24.428   0.442  53.935  1.00  0.00    -0.049 C 
HETATM   13  C17 UNL     1      23.759  -0.674  54.610  1.00  0.00     0.015 C 
HETATM   14  C18 UNL     1      22.580  -1.081  54.172  1.00  0.00     0.052 C 
HETATM   15  S1  UNL     1      21.176  -1.119  53.182  1.00  0.00    -0.085 SA
HETATM   16  C19 UNL     1      23.543   1.212  53.032  1.00  0.00     0.095 C 
HETATM   17  H7  UNL     1      20.303   1.842  52.964  1.00  0.00     0.162 HD
ENDROOT
BRANCH   6  18
HETATM   18  C7  UNL     1      23.505   4.157  50.906  1.00  0.00     0.132 C 
BRANCH  18  19
HETATM   19  C8  UNL     1      23.926   3.585  49.545  1.00  0.00     0.089 C 
BRANCH  19  20
HETATM   20  C9  UNL     1      25.383   3.892  49.303  1.00  0.00     0.232 C 
HETATM   21  O1  UNL     1      25.864   4.724  50.053  1.00  0.00    -0.307 OA
ENDBRANCH  19  20
ENDBRANCH  18  19
ENDBRANCH   6  18
BRANCH   9  22
HETATM   22  C13 UNL     1      27.038   1.678  52.149  1.00  0.00     0.177 C 
BRANCH  22  23
HETATM   23  O2  UNL     1      27.590   2.875  51.659  1.00  0.00    -0.400 OA
HETATM   24  H21 UNL     1      27.138   3.063  50.807  1.00  0.00     0.209 HD
ENDBRANCH  22  23
ENDBRANCH   9  22
BRANCH   1  25
HETATM   25  C2  UNL     1      18.784   0.844  50.793  1.00  0.00     0.025 C 
HETATM   26  C1  UNL     1      17.305   0.925  51.133  1.00  0.00     0.009 C 
ENDBRANCH   1  25
TORSDOF 6
ENDMDL
MODEL 9
REMARK VINA RESULT:      -6.4      6.970     11.308
REMARK  6 active torsions:
REMARK  status: ('A' for Active; 'I' for Inactive)
REMARK    1  A    between atoms: C2_2  and  C3_3 
REMARK    2  A    between atoms: N2_8  and  C7_9 
REMARK    3  A    between atoms: C7_9  and  C8_10 
REMARK    4  A    between atoms: C8_10  and  C9_11 
REMARK    5  A    between atoms: C12_15  and  C13_16 
REMARK    6  A    between atoms: C13_16  and  O2_17 
ROOT
HETATM    1  C3  UNL     1      28.328   5.293  48.373  1.00  0.00     0.010 C 
HETATM    2  C4  UNL     1      29.189   6.318  48.488  1.00  0.00     0.067 C 
HETATM    3  N1  UNL     1      28.587   7.561  48.935  1.00  0.00    -0.364 N 
HETATM    4  C5  UNL     1      27.967   8.820  48.890  1.00  0.00     0.180 C 
HETATM    5  C6  UNL     1      27.545   9.237  50.325  1.00  0.00     0.055 C 
HETATM    6  N2  UNL     1      28.653   9.983  48.391  1.00  0.00    -0.363 N 
HETATM    7  C10 UNL     1      30.028  10.232  48.119  1.00  0.00     0.010 C 
HETATM    8  C11 UNL     1      30.684  11.363  48.015  1.00  0.00     0.010 C 
HETATM    9  C12 UNL     1      31.944  11.401  47.265  1.00  0.00     0.062 C 
HETATM   10  C14 UNL     1      32.763  10.195  47.333  1.00  0.00    -0.067 C 
HETATM   11  C15 UNL     1      34.191  10.048  47.036  1.00  0.00     0.044 C 
HETATM   12  C16 UNL     1      32.215   9.056  47.701  1.00  0.00    -0.049 C 
HETATM   13  C17 UNL     1      32.895   7.772  47.897  1.00  0.00     0.015 C 
HETATM   14  C18 UNL     1      32.175   6.667  47.985  1.00  0.00     0.052 C 
HETATM   15  S1  UNL     1      30.767   5.682  48.015  1.00  0.00    -0.085 SA
HETATM   16  C19 UNL     1      30.758   9.007  47.959  1.00  0.00     0.095 C 
HETATM   17  H7  UNL     1      28.821   7.173  49.904  1.00  0.00     0.162 HD
ENDROOT
BRANCH   6  18
HETATM   18  C7  UNL     1      27.821  11.136  48.132  1.00  0.00     0.132 C 
BRANCH  18  19
HETATM   19  C8  UNL     1      26.999  10.902  46.857  1.00  0.00     0.089 C 
BRANCH  19  20
HETATM   20  C9  UNL     1      27.062  12.134  45.988  1.00  0.00     0.232 C 
HETATM   21  O1  UNL     1      28.075  12.801  46.116  1.00  0.00    -0.307 OA
ENDBRANCH  19  20
ENDBRANCH  18  19
ENDBRANCH   6  18
BRANCH   9  22
HETATM   22  C13 UNL     1      31.617  11.829  45.834  1.00  0.00     0.177 C 
BRANCH  22  23
HETATM   23  O2  UNL     1      30.916  13.047  45.871  1.00  0.00    -0.400 OA
HETATM   24  H21 UNL     1      31.400  13.628  46.498  1.00  0.00     0.209 HD
ENDBRANCH  22  23
ENDBRANCH   9  22
BRANCH   1  25
HETATM   25  C2  UNL     1      26.921   5.464  48.684  1.00  0.00     0.025 C 
HETATM   26  C1  UNL     1      26.320   4.281  49.424  1.00  0.00     0.009 C 
ENDBRANCH   1  25
TORSDOF 6
ENDMDL
