MODEL 1
REMARK VINA RESULT:      -8.2      0.000      0.000
REMARK  3 active torsions:
REMARK  status: ('A' for Active; 'I' for Inactive)
REMARK    1  A    between atoms: N1_8  and  C8_9 
REMARK    2  A    between atoms: C12_16  and  C13_17 
REMARK    3  A    between atoms: C16_20  and  O1_21 
ROOT
HETATM    1  C8  UNL     1      25.752   0.169  52.853  1.00  0.00     0.172 A 
HETATM    2  N2  UNL     1      24.578  -0.342  53.188  1.00  0.00    -0.217 NA
HETATM    3  C9  UNL     1      23.390   0.309  52.667  1.00  0.00     0.238 A 
HETATM    4  N3  UNL     1      23.086   1.330  51.902  1.00  0.00    -0.218 NA
HETATM    5  C10 UNL     1      24.125   2.147  51.336  1.00  0.00     0.169 A 
HETATM    6  S1  UNL     1      25.813   1.657  51.758  1.00  0.00    -0.054 SA
HETATM    7  C11 UNL     1      26.680   2.854  50.904  1.00  0.00     0.080 A 
HETATM    8  C12 UNL     1      25.766   3.611  50.313  1.00  0.00     0.050 A 
HETATM    9  N4  UNL     1      24.407   3.272  50.516  1.00  0.00    -0.334 N 
HETATM   10  H18 UNL     1      23.581   3.768  50.121  1.00  0.00     0.168 HD
ENDROOT
BRANCH   1  11
HETATM   11  N1  UNL     1      27.092  -0.188  53.162  1.00  0.00    -0.322 N 
HETATM   12  C2  UNL     1      27.533  -1.483  52.771  1.00  0.00     0.010 A 
HETATM   13  C1  UNL     1      26.673  -2.462  52.067  1.00  0.00     0.068 C 
HETATM   14  C3  UNL     1      28.777  -1.841  53.047  1.00  0.00     0.024 A 
HETATM   15  C4  UNL     1      29.726  -0.970  53.736  1.00  0.00    -0.000 A 
HETATM   16  C5  UNL     1      29.282   0.239  54.090  1.00  0.00    -0.002 A 
HETATM   17  C6  UNL     1      27.912   0.786  53.850  1.00  0.00     0.110 A 
HETATM   18  C7  UNL     1      27.303   0.963  55.246  1.00  0.00     0.037 C 
ENDBRANCH   1  11
BRANCH   8  19
HETATM   19  C13 UNL     1      26.147   4.747  49.488  1.00  0.00    -0.009 A 
HETATM   20  C14 UNL     1      27.403   4.855  48.976  1.00  0.00     0.016 A 
HETATM   21  C15 UNL     1      27.774   5.928  48.193  1.00  0.00     0.037 A 
HETATM   22  C16 UNL     1      26.889   6.954  47.885  1.00  0.00     0.065 A 
HETATM   23  C17 UNL     1      25.613   6.867  48.391  1.00  0.00     0.037 A 
HETATM   24  C18 UNL     1      25.301   5.784  49.160  1.00  0.00     0.016 A 
BRANCH  22  25
HETATM   25  O1  UNL     1      27.310   7.999  47.101  1.00  0.00    -0.361 OA
HETATM   26  H15 UNL     1      26.597   8.640  46.732  1.00  0.00     0.217 HD
ENDBRANCH  22  25
ENDBRANCH   8  19
TORSDOF 3
ENDMDL
MODEL 2
REMARK VINA RESULT:      -8.1      3.658      7.425
REMARK  3 active torsions:
REMARK  status: ('A' for Active; 'I' for Inactive)
REMARK    1  A    between atoms: N1_8  and  C8_9 
REMARK    2  A    between atoms: C12_16  and  C13_17 
REMARK    3  A    between atoms: C16_20  and  O1_21 
ROOT
HETATM    1  C8  UNL     1      21.659   1.839  51.514  1.00  0.00     0.172 A 
HETATM    2  N2  UNL     1      20.521   1.526  52.111  1.00  0.00    -0.217 NA
HETATM    3  C9  UNL     1      20.588   0.642  53.261  1.00  0.00     0.238 A 
HETATM    4  N3  UNL     1      21.497   0.001  53.955  1.00  0.00    -0.218 NA
HETATM    5  C10 UNL     1      22.887   0.102  53.597  1.00  0.00     0.169 A 
HETATM    6  S1  UNL     1      23.245   1.147  52.165  1.00  0.00    -0.054 SA
HETATM    7  C11 UNL     1      24.942   0.981  52.109  1.00  0.00     0.080 A 
HETATM    8  C12 UNL     1      25.263   0.178  53.113  1.00  0.00     0.050 A 
HETATM    9  N4  UNL     1      24.207  -0.308  53.922  1.00  0.00    -0.334 N 
HETATM   10  H18 UNL     1      24.300  -0.943  54.742  1.00  0.00     0.168 HD
ENDROOT
BRANCH   1  11
HETATM   11  N1  UNL     1      21.978   2.653  50.394  1.00  0.00    -0.322 N 
HETATM   12  C2  UNL     1      21.938   4.063  50.575  1.00  0.00     0.010 A 
HETATM   13  C1  UNL     1      21.585   4.714  51.858  1.00  0.00     0.068 C 
HETATM   14  C3  UNL     1      22.231   4.845  49.548  1.00  0.00     0.024 A 
HETATM   15  C4  UNL     1      22.595   4.331  48.229  1.00  0.00    -0.000 A 
HETATM   16  C5  UNL     1      22.624   3.002  48.092  1.00  0.00    -0.002 A 
HETATM   17  C6  UNL     1      22.320   1.994  49.151  1.00  0.00     0.110 A 
HETATM   18  C7  UNL     1      21.051   1.280  48.671  1.00  0.00     0.037 C 
ENDBRANCH   1  11
BRANCH   8  19
HETATM   19  C13 UNL     1      26.645  -0.191  53.373  1.00  0.00    -0.009 A 
HETATM   20  C14 UNL     1      27.198  -1.295  52.802  1.00  0.00     0.016 A 
HETATM   21  C15 UNL     1      28.507  -1.654  53.042  1.00  0.00     0.037 A 
HETATM   22  C16 UNL     1      29.332  -0.910  53.877  1.00  0.00     0.065 A 
HETATM   23  C17 UNL     1      28.796   0.211  54.466  1.00  0.00     0.037 A 
HETATM   24  C18 UNL     1      27.495   0.519  54.194  1.00  0.00     0.016 A 
BRANCH  22  25
HETATM   25  O1  UNL     1      30.628  -1.312  54.081  1.00  0.00    -0.361 OA
HETATM   26  H15 UNL     1      30.801  -2.033  54.792  1.00  0.00     0.217 HD
ENDBRANCH  22  25
ENDBRANCH   8  19
TORSDOF 3
ENDMDL
MODEL 3
REMARK VINA RESULT:      -8.0      4.783      7.608
REMARK  3 active torsions:
REMARK  status: ('A' for Active; 'I' for Inactive)
REMARK    1  A    between atoms: N1_8  and  C8_9 
REMARK    2  A    between atoms: C12_16  and  C13_17 
REMARK    3  A    between atoms: C16_20  and  O1_21 
ROOT
HETATM    1  C8  UNL     1      24.513   0.105  53.729  1.00  0.00     0.172 A 
HETATM    2  N2  UNL     1      25.057  -0.482  54.782  1.00  0.00    -0.217 NA
HETATM    3  C9  UNL     1      24.188  -1.279  55.630  1.00  0.00     0.238 A 
HETATM    4  N3  UNL     1      22.927  -1.633  55.686  1.00  0.00    -0.218 NA
HETATM    5  C10 UNL     1      22.001  -1.177  54.684  1.00  0.00     0.169 A 
HETATM    6  S1  UNL     1      22.708  -0.119  53.398  1.00  0.00    -0.054 SA
HETATM    7  C11 UNL     1      21.309   0.170  52.465  1.00  0.00     0.080 A 
HETATM    8  C12 UNL     1      20.328  -0.489  53.068  1.00  0.00     0.050 A 
HETATM    9  N4  UNL     1      20.652  -1.211  54.241  1.00  0.00    -0.334 N 
HETATM   10  H18 UNL     1      19.995  -1.773  54.821  1.00  0.00     0.168 HD
ENDROOT
BRANCH   1  11
HETATM   11  N1  UNL     1      25.034   0.938  52.702  1.00  0.00    -0.322 N 
HETATM   12  C2  UNL     1      26.210   0.496  52.033  1.00  0.00     0.010 A 
HETATM   13  C1  UNL     1      26.906  -0.771  52.352  1.00  0.00     0.068 C 
HETATM   14  C3  UNL     1      26.716   1.254  51.073  1.00  0.00     0.024 A 
HETATM   15  C4  UNL     1      26.126   2.526  50.661  1.00  0.00    -0.000 A 
HETATM   16  C5  UNL     1      25.023   2.911  51.309  1.00  0.00    -0.002 A 
HETATM   17  C6  UNL     1      24.336   2.171  52.409  1.00  0.00     0.110 A 
HETATM   18  C7  UNL     1      24.487   3.064  53.647  1.00  0.00     0.037 C 
ENDBRANCH   1  11
BRANCH   8  19
HETATM   19  C13 UNL     1      18.972  -0.468  52.543  1.00  0.00    -0.009 A 
HETATM   20  C14 UNL     1      18.660   0.247  51.428  1.00  0.00     0.016 A 
HETATM   21  C15 UNL     1      17.377   0.274  50.923  1.00  0.00     0.037 A 
HETATM   22  C16 UNL     1      16.336  -0.426  51.522  1.00  0.00     0.065 A 
HETATM   23  C17 UNL     1      16.627  -1.156  52.649  1.00  0.00     0.037 A 
HETATM   24  C18 UNL     1      17.912  -1.147  53.106  1.00  0.00     0.016 A 
BRANCH  22  25
HETATM   25  O1  UNL     1      15.078  -0.365  50.977  1.00  0.00    -0.361 OA
HETATM   26  H15 UNL     1      14.794   0.512  50.524  1.00  0.00     0.217 HD
ENDBRANCH  22  25
ENDBRANCH   8  19
TORSDOF 3
ENDMDL
MODEL 4
REMARK VINA RESULT:      -8.0      3.889      8.405
REMARK  3 active torsions:
REMARK  status: ('A' for Active; 'I' for Inactive)
REMARK    1  A    between atoms: N1_8  and  C8_9 
REMARK    2  A    between atoms: C12_16  and  C13_17 
REMARK    3  A    between atoms: C16_20  and  O1_21 
ROOT
HETATM    1  C8  UNL     1      24.526   5.338  49.554  1.00  0.00     0.172 A 
HETATM    2  N2  UNL     1      25.647   5.547  48.884  1.00  0.00    -0.217 NA
HETATM    3  C9  UNL     1      26.730   4.599  49.074  1.00  0.00     0.238 A 
HETATM    4  N3  UNL     1      26.969   3.507  49.758  1.00  0.00    -0.218 NA
HETATM    5  C10 UNL     1      25.960   2.958  50.624  1.00  0.00     0.169 A 
HETATM    6  S1  UNL     1      24.402   3.875  50.677  1.00  0.00    -0.054 SA
HETATM    7  C11 UNL     1      23.537   2.903  51.782  1.00  0.00     0.080 A 
HETATM    8  C12 UNL     1      24.358   1.918  52.120  1.00  0.00     0.050 A 
HETATM    9  N4  UNL     1      25.645   1.911  51.531  1.00  0.00    -0.334 N 
HETATM   10  H18 UNL     1      26.395   1.208  51.696  1.00  0.00     0.168 HD
ENDROOT
BRANCH   1  11
HETATM   11  N1  UNL     1      23.288   6.032  49.621  1.00  0.00    -0.322 N 
HETATM   12  C2  UNL     1      22.337   5.776  48.594  1.00  0.00     0.010 A 
HETATM   13  C1  UNL     1      22.573   4.834  47.476  1.00  0.00     0.068 C 
HETATM   14  C3  UNL     1      21.175   6.409  48.632  1.00  0.00     0.024 A 
HETATM   15  C4  UNL     1      20.817   7.362  49.679  1.00  0.00    -0.000 A 
HETATM   16  C5  UNL     1      21.731   7.580  50.629  1.00  0.00    -0.002 A 
HETATM   17  C6  UNL     1      23.080   6.946  50.723  1.00  0.00     0.110 A 
HETATM   18  C7  UNL     1      24.076   8.096  50.530  1.00  0.00     0.037 C 
ENDBRANCH   1  11
BRANCH   8  19
HETATM   19  C13 UNL     1      23.951   0.885  53.059  1.00  0.00    -0.009 A 
HETATM   20  C14 UNL     1      24.872   0.142  53.730  1.00  0.00     0.016 A 
HETATM   21  C15 UNL     1      24.497  -0.839  54.623  1.00  0.00     0.037 A 
HETATM   22  C16 UNL     1      23.162  -1.122  54.886  1.00  0.00     0.065 A 
HETATM   23  C17 UNL     1      22.212  -0.384  54.221  1.00  0.00     0.037 A 
HETATM   24  C18 UNL     1      22.640   0.574  53.349  1.00  0.00     0.016 A 
BRANCH  22  25
HETATM   25  O1  UNL     1      22.844  -2.110  55.785  1.00  0.00    -0.361 OA
HETATM   26  H15 UNL     1      21.945  -2.040  56.276  1.00  0.00     0.217 HD
ENDBRANCH  22  25
ENDBRANCH   8  19
TORSDOF 3
ENDMDL
MODEL 5
REMARK VINA RESULT:      -7.8      5.923      8.808
REMARK  3 active torsions:
REMARK  status: ('A' for Active; 'I' for Inactive)
REMARK    1  A    between atoms: N1_8  and  C8_9 
REMARK    2  A    between atoms: C12_16  and  C13_17 
REMARK    3  A    between atoms: C16_20  and  O1_21 
ROOT
HETATM    1  C8  UNL     1      32.564   6.796  46.865  1.00  0.00     0.172 A 
HETATM    2  N2  UNL     1      32.892   7.988  46.393  1.00  0.00    -0.217 NA
HETATM    3  C9  UNL     1      31.847   8.994  46.328  1.00  0.00     0.238 A 
HETATM    4  N3  UNL     1      30.573   9.106  46.616  1.00  0.00    -0.218 NA
HETATM    5  C10 UNL     1      29.852   7.989  47.164  1.00  0.00     0.169 A 
HETATM    6  S1  UNL     1      30.825   6.484  47.409  1.00  0.00    -0.054 SA
HETATM    7  C11 UNL     1      29.617   5.464  48.050  1.00  0.00     0.080 A 
HETATM    8  C12 UNL     1      28.510   6.194  48.093  1.00  0.00     0.050 A 
HETATM    9  N4  UNL     1      28.593   7.531  47.634  1.00  0.00    -0.334 N 
HETATM   10  H18 UNL     1      27.815   8.222  47.606  1.00  0.00     0.168 HD
ENDROOT
BRANCH   1  11
HETATM   11  N1  UNL     1      33.297   5.597  47.072  1.00  0.00    -0.322 N 
HETATM   12  C2  UNL     1      34.413   5.654  47.953  1.00  0.00     0.010 A 
HETATM   13  C1  UNL     1      34.841   6.886  48.653  1.00  0.00     0.068 C 
HETATM   14  C3  UNL     1      35.113   4.550  48.163  1.00  0.00     0.024 A 
HETATM   15  C4  UNL     1      34.798   3.270  47.534  1.00  0.00    -0.000 A 
HETATM   16  C5  UNL     1      33.744   3.250  46.713  1.00  0.00    -0.002 A 
HETATM   17  C6  UNL     1      32.860   4.406  46.376  1.00  0.00     0.110 A 
HETATM   18  C7  UNL     1      33.090   4.663  44.882  1.00  0.00     0.037 C 
ENDBRANCH   1  11
BRANCH   8  19
HETATM   19  C13 UNL     1      27.261   5.641  48.591  1.00  0.00    -0.009 A 
HETATM   20  C14 UNL     1      27.195   4.368  49.067  1.00  0.00     0.016 A 
HETATM   21  C15 UNL     1      26.015   3.835  49.541  1.00  0.00     0.037 A 
HETATM   22  C16 UNL     1      24.833   4.565  49.559  1.00  0.00     0.065 A 
HETATM   23  C17 UNL     1      24.874   5.854  49.083  1.00  0.00     0.037 A 
HETATM   24  C18 UNL     1      26.068   6.331  48.626  1.00  0.00     0.016 A 
BRANCH  22  25
HETATM   25  O1  UNL     1      23.687   3.985  50.042  1.00  0.00    -0.361 OA
HETATM   26  H15 UNL     1      23.527   4.011  51.057  1.00  0.00     0.217 HD
ENDBRANCH  22  25
ENDBRANCH   8  19
TORSDOF 3
ENDMDL
MODEL 6
REMARK VINA RESULT:      -7.7      3.565      7.174
REMARK  3 active torsions:
REMARK  status: ('A' for Active; 'I' for Inactive)
REMARK    1  A    between atoms: N1_8  and  C8_9 
REMARK    2  A    between atoms: C12_16  and  C13_17 
REMARK    3  A    between atoms: C16_20  and  O1_21 
ROOT
HETATM    1  C8  UNL     1      21.620   2.330  51.949  1.00  0.00     0.172 A 
HETATM    2  N2  UNL     1      20.464   1.866  52.394  1.00  0.00    -0.217 NA
HETATM    3  C9  UNL     1      20.498   0.699  53.258  1.00  0.00     0.238 A 
HETATM    4  N3  UNL     1      21.388  -0.108  53.783  1.00  0.00    -0.218 NA
HETATM    5  C10 UNL     1      22.788   0.085  53.518  1.00  0.00     0.169 A 
HETATM    6  S1  UNL     1      23.187   1.483  52.443  1.00  0.00    -0.054 SA
HETATM    7  C11 UNL     1      24.887   1.338  52.405  1.00  0.00     0.080 A 
HETATM    8  C12 UNL     1      25.179   0.288  53.162  1.00  0.00     0.050 A 
HETATM    9  N4  UNL     1      24.099  -0.400  53.766  1.00  0.00    -0.334 N 
HETATM   10  H18 UNL     1      24.168  -1.236  54.383  1.00  0.00     0.168 HD
ENDROOT
BRANCH   1  11
HETATM   11  N1  UNL     1      21.971   3.420  51.107  1.00  0.00    -0.322 N 
HETATM   12  C2  UNL     1      22.241   3.132  49.740  1.00  0.00     0.010 A 
HETATM   13  C1  UNL     1      22.175   1.771  49.162  1.00  0.00     0.068 C 
HETATM   14  C3  UNL     1      22.571   4.130  48.935  1.00  0.00     0.024 A 
HETATM   15  C4  UNL     1      22.672   5.518  49.379  1.00  0.00    -0.000 A 
HETATM   16  C5  UNL     1      22.412   5.754  50.668  1.00  0.00    -0.002 A 
HETATM   17  C6  UNL     1      22.029   4.740  51.696  1.00  0.00     0.110 A 
HETATM   18  C7  UNL     1      23.194   4.723  52.694  1.00  0.00     0.037 C 
ENDBRANCH   1  11
BRANCH   8  19
HETATM   19  C13 UNL     1      26.555  -0.139  53.361  1.00  0.00    -0.009 A 
HETATM   20  C14 UNL     1      27.424   0.607  54.096  1.00  0.00     0.016 A 
HETATM   21  C15 UNL     1      28.730   0.211  54.291  1.00  0.00     0.037 A 
HETATM   22  C16 UNL     1      29.229  -0.969  53.750  1.00  0.00     0.065 A 
HETATM   23  C17 UNL     1      28.369  -1.740  53.004  1.00  0.00     0.037 A 
HETATM   24  C18 UNL     1      27.088  -1.300  52.843  1.00  0.00     0.016 A 
BRANCH  22  25
HETATM   25  O1  UNL     1      30.537  -1.316  53.976  1.00  0.00    -0.361 OA
HETATM   26  H15 UNL     1      30.722  -2.100  54.613  1.00  0.00     0.217 HD
ENDBRANCH  22  25
ENDBRANCH   8  19
TORSDOF 3
ENDMDL
MODEL 7
REMARK VINA RESULT:      -7.6      3.810      7.753
REMARK  3 active torsions:
REMARK  status: ('A' for Active; 'I' for Inactive)
REMARK    1  A    between atoms: N1_8  and  C8_9 
REMARK    2  A    between atoms: C12_16  and  C13_17 
REMARK    3  A    between atoms: C16_20  and  O1_21 
ROOT
HETATM    1  C8  UNL     1      23.075   4.842  48.831  1.00  0.00     0.172 A 
HETATM    2  N2  UNL     1      23.447   5.957  48.225  1.00  0.00    -0.217 NA
HETATM    3  C9  UNL     1      24.832   6.370  48.371  1.00  0.00     0.238 A 
HETATM    4  N3  UNL     1      25.924   5.950  48.963  1.00  0.00    -0.218 NA
HETATM    5  C10 UNL     1      25.909   4.738  49.737  1.00  0.00     0.169 A 
HETATM    6  S1  UNL     1      24.316   3.886  49.813  1.00  0.00    -0.054 SA
HETATM    7  C11 UNL     1      24.750   2.558  50.792  1.00  0.00     0.080 A 
HETATM    8  C12 UNL     1      26.036   2.716  51.071  1.00  0.00     0.050 A 
HETATM    9  N4  UNL     1      26.685   3.854  50.533  1.00  0.00    -0.334 N 
HETATM   10  H18 UNL     1      27.685   4.114  50.662  1.00  0.00     0.168 HD
ENDROOT
BRANCH   1  11
HETATM   11  N1  UNL     1      21.839   4.145  48.913  1.00  0.00    -0.322 N 
HETATM   12  C2  UNL     1      21.078   4.297  50.105  1.00  0.00     0.010 A 
HETATM   13  C1  UNL     1      21.507   5.134  51.248  1.00  0.00     0.068 C 
HETATM   14  C3  UNL     1      19.923   3.658  50.207  1.00  0.00     0.024 A 
HETATM   15  C4  UNL     1      19.386   2.802  49.152  1.00  0.00    -0.000 A 
HETATM   16  C5  UNL     1      20.125   2.680  48.045  1.00  0.00    -0.002 A 
HETATM   17  C6  UNL     1      21.442   3.333  47.782  1.00  0.00     0.110 A 
HETATM   18  C7  UNL     1      22.450   2.180  47.696  1.00  0.00     0.037 C 
ENDBRANCH   1  11
BRANCH   8  19
HETATM   19  C13 UNL     1      26.753   1.758  51.898  1.00  0.00    -0.009 A 
HETATM   20  C14 UNL     1      27.719   2.163  52.766  1.00  0.00     0.016 A 
HETATM   21  C15 UNL     1      28.404   1.263  53.555  1.00  0.00     0.037 A 
HETATM   22  C16 UNL     1      28.147  -0.102  53.506  1.00  0.00     0.065 A 
HETATM   23  C17 UNL     1      27.175  -0.535  52.636  1.00  0.00     0.037 A 
HETATM   24  C18 UNL     1      26.529   0.398  51.880  1.00  0.00     0.016 A 
BRANCH  22  25
HETATM   25  O1  UNL     1      28.859  -0.953  54.313  1.00  0.00    -0.361 OA
HETATM   26  H15 UNL     1      29.191  -1.835  53.904  1.00  0.00     0.217 HD
ENDBRANCH  22  25
ENDBRANCH   8  19
TORSDOF 3
ENDMDL
MODEL 8
REMARK VINA RESULT:      -7.4      2.907      5.921
REMARK  3 active torsions:
REMARK  status: ('A' for Active; 'I' for Inactive)
REMARK    1  A    between atoms: N1_8  and  C8_9 
REMARK    2  A    between atoms: C12_16  and  C13_17 
REMARK    3  A    between atoms: C16_20  and  O1_21 
ROOT
HETATM    1  C8  UNL     1      22.973   2.380  50.811  1.00  0.00     0.172 A 
HETATM    2  N2  UNL     1      23.213   1.470  51.740  1.00  0.00    -0.217 NA
HETATM    3  C9  UNL     1      24.584   1.322  52.195  1.00  0.00     0.238 A 
HETATM    4  N3  UNL     1      25.760   1.852  51.959  1.00  0.00    -0.218 NA
HETATM    5  C10 UNL     1      25.899   2.901  50.985  1.00  0.00     0.169 A 
HETATM    6  S1  UNL     1      24.370   3.398  50.156  1.00  0.00    -0.054 SA
HETATM    7  C11 UNL     1      24.985   4.616  49.131  1.00  0.00     0.080 A 
HETATM    8  C12 UNL     1      26.287   4.674  49.375  1.00  0.00     0.050 A 
HETATM    9  N4  UNL     1      26.809   3.785  50.346  1.00  0.00    -0.334 N 
HETATM   10  H18 UNL     1      27.803   3.713  50.645  1.00  0.00     0.168 HD
ENDROOT
BRANCH   1  11
HETATM   11  N1  UNL     1      21.792   2.797  50.140  1.00  0.00    -0.322 N 
HETATM   12  C2  UNL     1      20.837   3.536  50.892  1.00  0.00     0.010 A 
HETATM   13  C1  UNL     1      21.013   3.886  52.320  1.00  0.00     0.068 C 
HETATM   14  C3  UNL     1      19.727   3.937  50.291  1.00  0.00     0.024 A 
HETATM   15  C4  UNL     1      19.431   3.658  48.888  1.00  0.00    -0.000 A 
HETATM   16  C5  UNL     1      20.349   2.962  48.209  1.00  0.00    -0.002 A 
HETATM   17  C6  UNL     1      21.643   2.443  48.744  1.00  0.00     0.110 A 
HETATM   18  C7  UNL     1      21.513   0.916  48.693  1.00  0.00     0.037 C 
ENDBRANCH   1  11
BRANCH   8  19
HETATM   19  C13 UNL     1      27.145   5.614  48.672  1.00  0.00    -0.009 A 
HETATM   20  C14 UNL     1      26.659   6.794  48.202  1.00  0.00     0.016 A 
HETATM   21  C15 UNL     1      27.465   7.692  47.534  1.00  0.00     0.037 A 
HETATM   22  C16 UNL     1      28.812   7.442  47.305  1.00  0.00     0.065 A 
HETATM   23  C17 UNL     1      29.327   6.255  47.771  1.00  0.00     0.037 A 
HETATM   24  C18 UNL     1      28.485   5.404  48.424  1.00  0.00     0.016 A 
BRANCH  22  25
HETATM   25  O1  UNL     1      29.569   8.370  46.634  1.00  0.00    -0.361 OA
HETATM   26  H15 UNL     1      29.357   9.363  46.789  1.00  0.00     0.217 HD
ENDBRANCH  22  25
ENDBRANCH   8  19
TORSDOF 3
ENDMDL
MODEL 9
REMARK VINA RESULT:      -7.3      4.570      8.240
REMARK  3 active torsions:
REMARK  status: ('A' for Active; 'I' for Inactive)
REMARK    1  A    between atoms: N1_8  and  C8_9 
REMARK    2  A    between atoms: C12_16  and  C13_17 
REMARK    3  A    between atoms: C16_20  and  O1_21 
ROOT
HETATM    1  C8  UNL     1      24.578   2.436  52.034  1.00  0.00     0.172 A 
HETATM    2  N2  UNL     1      25.685   2.013  52.621  1.00  0.00    -0.217 NA
HETATM    3  C9  UNL     1      25.600   0.808  53.427  1.00  0.00     0.238 A 
HETATM    4  N3  UNL     1      24.694  -0.069  53.788  1.00  0.00    -0.218 NA
HETATM    5  C10 UNL     1      23.336   0.062  53.334  1.00  0.00     0.169 A 
HETATM    6  S1  UNL     1      23.009   1.486  52.268  1.00  0.00    -0.054 SA
HETATM    7  C11 UNL     1      21.343   1.252  51.982  1.00  0.00     0.080 A 
HETATM    8  C12 UNL     1      21.011   0.154  52.647  1.00  0.00     0.050 A 
HETATM    9  N4  UNL     1      22.034  -0.503  53.373  1.00  0.00    -0.334 N 
HETATM   10  H18 UNL     1      21.929  -1.369  53.941  1.00  0.00     0.168 HD
ENDROOT
BRANCH   1  11
HETATM   11  N1  UNL     1      24.284   3.543  51.194  1.00  0.00    -0.322 N 
HETATM   12  C2  UNL     1      25.159   3.784  50.098  1.00  0.00     0.010 A 
HETATM   13  C1  UNL     1      26.343   2.948  49.796  1.00  0.00     0.068 C 
HETATM   14  C3  UNL     1      24.908   4.809  49.299  1.00  0.00     0.024 A 
HETATM   15  C4  UNL     1      23.774   5.711  49.485  1.00  0.00    -0.000 A 
HETATM   16  C5  UNL     1      22.971   5.457  50.523  1.00  0.00    -0.002 A 
HETATM   17  C6  UNL     1      23.122   4.345  51.509  1.00  0.00     0.110 A 
HETATM   18  C7  UNL     1      23.416   5.034  52.847  1.00  0.00     0.037 C 
ENDBRANCH   1  11
BRANCH   8  19
HETATM   19  C13 UNL     1      19.649  -0.355  52.632  1.00  0.00    -0.009 A 
HETATM   20  C14 UNL     1      19.221  -1.248  53.566  1.00  0.00     0.016 A 
HETATM   21  C15 UNL     1      17.932  -1.736  53.560  1.00  0.00     0.037 A 
HETATM   22  C16 UNL     1      17.001  -1.344  52.605  1.00  0.00     0.065 A 
HETATM   23  C17 UNL     1      17.410  -0.442  51.652  1.00  0.00     0.037 A 
HETATM   24  C18 UNL     1      18.697   0.008  51.704  1.00  0.00     0.016 A 
BRANCH  22  25
HETATM   25  O1  UNL     1      15.731  -1.862  52.646  1.00  0.00    -0.361 OA
HETATM   26  H15 UNL     1      15.055  -1.529  51.948  1.00  0.00     0.217 HD
ENDBRANCH  22  25
ENDBRANCH   8  19
TORSDOF 3
ENDMDL
