MODEL 1
REMARK VINA RESULT:      -8.4      0.000      0.000
REMARK  7 active torsions:
REMARK  status: ('A' for Active; 'I' for Inactive)
REMARK    1  A    between atoms: C2_2  and  C4_6 
REMARK    2  A    between atoms: N1_3  and  C3_4 
REMARK    3  A    between atoms: C3_4  and  N2_5 
REMARK    4  A    between atoms: N3_8  and  C6_9 
REMARK    5  A    between atoms: C9_12  and  N4_13 
REMARK    6  A    between atoms: C14_18  and  C15_19 
REMARK    7  A    between atoms: C19_23  and  O1_24 
ROOT
HETATM    1  C4  UNL     1      26.352   0.339  52.506  1.00  0.00     0.016 A 
HETATM    2  C5  UNL     1      26.752   1.435  51.782  1.00  0.00     0.105 A 
HETATM    3  N3  UNL     1      25.752   2.320  51.626  1.00  0.00    -0.358 N 
HETATM    4  C13 UNL     1      24.695   1.790  52.257  1.00  0.00     0.104 A 
HETATM    5  C14 UNL     1      25.034   0.552  52.821  1.00  0.00     0.003 A 
ENDROOT
BRANCH   3   6
HETATM    6  C6  UNL     1      25.833   3.578  50.919  1.00  0.00     0.122 C 
HETATM    7  C7  UNL     1      26.135   3.402  49.450  1.00  0.00     0.030 C 
HETATM    8  C8  UNL     1      24.692   3.734  49.157  1.00  0.00     0.040 C 
HETATM    9  C9  UNL     1      24.588   4.258  50.569  1.00  0.00     0.246 C 
BRANCH   9  10
HETATM   10  N4  UNL     1      23.354   3.915  51.226  1.00  0.00     0.095 N 
HETATM   11  C10 UNL     1      22.266   4.541  50.456  1.00  0.00     0.275 C 
HETATM   12  C11 UNL     1      22.419   5.795  51.293  1.00  0.00     0.060 C 
HETATM   13  C12 UNL     1      23.017   4.834  52.297  1.00  0.00     0.275 C 
ENDBRANCH   9  10
ENDBRANCH   3   6
BRANCH   1  14
HETATM   14  C2  UNL     1      27.086  -0.843  52.906  1.00  0.00     0.039 C 
HETATM   15  C1  UNL     1      26.848  -2.202  52.359  1.00  0.00     0.071 C 
HETATM   16  N1  UNL     1      28.048  -0.921  53.733  1.00  0.00    -0.264 NA
BRANCH  16  17
HETATM   17  C3  UNL     1      28.679   0.054  54.533  1.00  0.00     0.414 C 
BRANCH  17  18
HETATM   18  N2  UNL     1      29.758   0.703  53.758  1.00  0.00     0.097 N 
HETATM   19  H6  UNL     1      29.348   1.349  53.033  1.00  0.00     0.315 HD
HETATM   20  H7  UNL     1      30.346   0.016  53.278  1.00  0.00     0.315 HD
ENDBRANCH  17  18
ENDBRANCH  16  17
ENDBRANCH   1  14
BRANCH   5  21
HETATM   21  C15 UNL     1      24.011  -0.128  53.584  1.00  0.00    -0.021 A 
HETATM   22  C16 UNL     1      24.057  -0.893  54.752  1.00  0.00     0.012 A 
HETATM   23  C17 UNL     1      22.927  -1.459  55.292  1.00  0.00     0.004 A 
HETATM   24  C18 UNL     1      21.697  -1.315  54.732  1.00  0.00     0.036 A 
HETATM   25  C19 UNL     1      21.582  -0.571  53.577  1.00  0.00     0.066 A 
HETATM   26  C20 UNL     1      22.722  -0.008  53.045  1.00  0.00     0.049 A 
BRANCH  25  27
HETATM   27  O1  UNL     1      20.334  -0.421  53.003  1.00  0.00    -0.361 OA
HETATM   28  H25 UNL     1      19.530  -0.977  53.241  1.00  0.00     0.217 HD
ENDBRANCH  25  27
ENDBRANCH   5  21
TORSDOF 7
ENDMDL
MODEL 2
REMARK VINA RESULT:      -8.3      3.101      4.901
REMARK  7 active torsions:
REMARK  status: ('A' for Active; 'I' for Inactive)
REMARK    1  A    between atoms: C2_2  and  C4_6 
REMARK    2  A    between atoms: N1_3  and  C3_4 
REMARK    3  A    between atoms: C3_4  and  N2_5 
REMARK    4  A    between atoms: N3_8  and  C6_9 
REMARK    5  A    between atoms: C9_12  and  N4_13 
REMARK    6  A    between atoms: C14_18  and  C15_19 
REMARK    7  A    between atoms: C19_23  and  O1_24 
ROOT
HETATM    1  C4  UNL     1      24.010   0.184  53.556  1.00  0.00     0.016 A 
HETATM    2  C5  UNL     1      23.247   1.186  53.010  1.00  0.00     0.105 A 
HETATM    3  N3  UNL     1      23.922   1.865  52.065  1.00  0.00    -0.358 N 
HETATM    4  C13 UNL     1      25.132   1.293  52.000  1.00  0.00     0.104 A 
HETATM    5  C14 UNL     1      25.222   0.237  52.918  1.00  0.00     0.003 A 
ENDROOT
BRANCH   3   6
HETATM    6  C6  UNL     1      23.415   2.977  51.294  1.00  0.00     0.122 C 
HETATM    7  C7  UNL     1      24.502   3.707  50.540  1.00  0.00     0.030 C 
HETATM    8  C8  UNL     1      24.002   3.056  49.273  1.00  0.00     0.040 C 
HETATM    9  C9  UNL     1      22.744   2.693  50.026  1.00  0.00     0.246 C 
BRANCH   9  10
HETATM   10  N4  UNL     1      22.255   1.371  49.734  1.00  0.00     0.095 N 
HETATM   11  C10 UNL     1      21.673   1.414  48.382  1.00  0.00     0.275 C 
HETATM   12  C11 UNL     1      20.346   1.826  48.985  1.00  0.00     0.060 C 
HETATM   13  C12 UNL     1      20.905   1.156  50.221  1.00  0.00     0.275 C 
ENDBRANCH   9  10
ENDBRANCH   3   6
BRANCH   1  14
HETATM   14  C2  UNL     1      23.695  -0.780  54.590  1.00  0.00     0.039 C 
HETATM   15  C1  UNL     1      24.626  -1.177  55.676  1.00  0.00     0.071 C 
HETATM   16  N1  UNL     1      22.603  -1.404  54.768  1.00  0.00    -0.264 NA
BRANCH  16  17
HETATM   17  C3  UNL     1      21.393  -1.405  54.043  1.00  0.00     0.414 C 
BRANCH  17  18
HETATM   18  N2  UNL     1      20.464  -0.419  54.635  1.00  0.00     0.097 N 
HETATM   19  H6  UNL     1      19.567  -0.892  54.925  1.00  0.00     0.315 HD
HETATM   20  H7  UNL     1      20.232   0.328  53.975  1.00  0.00     0.315 HD
ENDBRANCH  17  18
ENDBRANCH  16  17
ENDBRANCH   1  14
BRANCH   5  21
HETATM   21  C15 UNL     1      26.455  -0.519  52.935  1.00  0.00    -0.021 A 
HETATM   22  C16 UNL     1      26.743  -1.861  52.677  1.00  0.00     0.012 A 
HETATM   23  C17 UNL     1      28.020  -2.360  52.772  1.00  0.00     0.004 A 
HETATM   24  C18 UNL     1      29.084  -1.588  53.121  1.00  0.00     0.036 A 
HETATM   25  C19 UNL     1      28.868  -0.252  53.389  1.00  0.00     0.066 A 
HETATM   26  C20 UNL     1      27.583   0.236  53.290  1.00  0.00     0.049 A 
BRANCH  25  27
HETATM   27  O1  UNL     1      29.945   0.538  53.743  1.00  0.00    -0.361 OA
HETATM   28  H25 UNL     1      30.340   0.576  54.667  1.00  0.00     0.217 HD
ENDBRANCH  25  27
ENDBRANCH   5  21
TORSDOF 7
ENDMDL
MODEL 3
REMARK VINA RESULT:      -8.3      2.732      5.745
REMARK  7 active torsions:
REMARK  status: ('A' for Active; 'I' for Inactive)
REMARK    1  A    between atoms: C2_2  and  C4_6 
REMARK    2  A    between atoms: N1_3  and  C3_4 
REMARK    3  A    between atoms: C3_4  and  N2_5 
REMARK    4  A    between atoms: N3_8  and  C6_9 
REMARK    5  A    between atoms: C9_12  and  N4_13 
REMARK    6  A    between atoms: C14_18  and  C15_19 
REMARK    7  A    between atoms: C19_23  and  O1_24 
ROOT
HETATM    1  C4  UNL     1      24.746   1.386  52.198  1.00  0.00     0.016 A 
HETATM    2  C5  UNL     1      23.449   0.961  52.342  1.00  0.00     0.105 A 
HETATM    3  N3  UNL     1      23.375  -0.181  53.048  1.00  0.00    -0.358 N 
HETATM    4  C13 UNL     1      24.639  -0.496  53.363  1.00  0.00     0.104 A 
HETATM    5  C14 UNL     1      25.523   0.463  52.849  1.00  0.00     0.003 A 
ENDROOT
BRANCH   3   6
HETATM    6  C6  UNL     1      22.165  -0.897  53.382  1.00  0.00     0.122 C 
HETATM    7  C7  UNL     1      21.851  -0.853  54.859  1.00  0.00     0.030 C 
HETATM    8  C8  UNL     1      20.759   0.144  54.553  1.00  0.00     0.040 C 
HETATM    9  C9  UNL     1      20.881  -0.256  53.102  1.00  0.00     0.246 C 
BRANCH   9  10
HETATM   10  N4  UNL     1      20.797   0.852  52.186  1.00  0.00     0.095 N 
HETATM   11  C10 UNL     1      19.420   1.369  52.258  1.00  0.00     0.275 C 
HETATM   12  C11 UNL     1      19.013   0.384  51.182  1.00  0.00     0.060 C 
HETATM   13  C12 UNL     1      20.484   0.433  50.832  1.00  0.00     0.275 C 
ENDBRANCH   9  10
ENDBRANCH   3   6
BRANCH   1  14
HETATM   14  C2  UNL     1      25.285   2.547  51.521  1.00  0.00     0.039 C 
HETATM   15  C1  UNL     1      26.526   2.541  50.707  1.00  0.00     0.071 C 
HETATM   16  N1  UNL     1      24.797   3.719  51.475  1.00  0.00    -0.264 NA
BRANCH  16  17
HETATM   17  C3  UNL     1      23.643   4.279  52.060  1.00  0.00     0.414 C 
BRANCH  17  18
HETATM   18  N2  UNL     1      24.040   5.229  53.122  1.00  0.00     0.097 N 
HETATM   19  H6  UNL     1      25.078   5.165  53.297  1.00  0.00     0.315 HD
HETATM   20  H7  UNL     1      23.554   5.039  54.002  1.00  0.00     0.315 HD
ENDBRANCH  17  18
ENDBRANCH  16  17
ENDBRANCH   1  14
BRANCH   5  21
HETATM   21  C15 UNL     1      26.927   0.294  53.150  1.00  0.00    -0.021 A 
HETATM   22  C16 UNL     1      27.933   1.198  53.500  1.00  0.00     0.012 A 
HETATM   23  C17 UNL     1      29.226   0.790  53.730  1.00  0.00     0.004 A 
HETATM   24  C18 UNL     1      29.612  -0.510  53.633  1.00  0.00     0.036 A 
HETATM   25  C19 UNL     1      28.667  -1.454  53.291  1.00  0.00     0.066 A 
HETATM   26  C20 UNL     1      27.374  -1.033  53.063  1.00  0.00     0.049 A 
BRANCH  25  27
HETATM   27  O1  UNL     1      29.053  -2.777  53.191  1.00  0.00    -0.361 OA
HETATM   28  H25 UNL     1      28.786  -3.389  52.439  1.00  0.00     0.217 HD
ENDBRANCH  25  27
ENDBRANCH   5  21
TORSDOF 7
ENDMDL
MODEL 4
REMARK VINA RESULT:      -8.1      2.676      4.777
REMARK  7 active torsions:
REMARK  status: ('A' for Active; 'I' for Inactive)
REMARK    1  A    between atoms: C2_2  and  C4_6 
REMARK    2  A    between atoms: N1_3  and  C3_4 
REMARK    3  A    between atoms: C3_4  and  N2_5 
REMARK    4  A    between atoms: N3_8  and  C6_9 
REMARK    5  A    between atoms: C9_12  and  N4_13 
REMARK    6  A    between atoms: C14_18  and  C15_19 
REMARK    7  A    between atoms: C19_23  and  O1_24 
ROOT
HETATM    1  C4  UNL     1      24.247   0.088  53.412  1.00  0.00     0.016 A 
HETATM    2  C5  UNL     1      23.341   0.732  52.607  1.00  0.00     0.105 A 
HETATM    3  N3  UNL     1      23.940   1.330  51.562  1.00  0.00    -0.358 N 
HETATM    4  C13 UNL     1      25.248   1.067  51.694  1.00  0.00     0.104 A 
HETATM    5  C14 UNL     1      25.476   0.291  52.840  1.00  0.00     0.003 A 
ENDROOT
BRANCH   3   6
HETATM    6  C6  UNL     1      23.281   2.089  50.526  1.00  0.00     0.122 C 
HETATM    7  C7  UNL     1      21.912   2.576  50.940  1.00  0.00     0.030 C 
HETATM    8  C8  UNL     1      22.497   3.959  51.094  1.00  0.00     0.040 C 
HETATM    9  C9  UNL     1      23.694   3.475  50.312  1.00  0.00     0.246 C 
BRANCH   9  10
HETATM   10  N4  UNL     1      24.952   3.953  50.823  1.00  0.00     0.095 N 
HETATM   11  C10 UNL     1      25.028   5.390  50.511  1.00  0.00     0.275 C 
HETATM   12  C11 UNL     1      25.647   5.048  49.170  1.00  0.00     0.060 C 
HETATM   13  C12 UNL     1      26.042   3.772  49.882  1.00  0.00     0.275 C 
ENDBRANCH   9  10
ENDBRANCH   3   6
BRANCH   1  14
HETATM   14  C2  UNL     1      24.050  -0.673  54.629  1.00  0.00     0.039 C 
HETATM   15  C1  UNL     1      25.066  -0.814  55.702  1.00  0.00     0.071 C 
HETATM   16  N1  UNL     1      23.007  -1.298  54.997  1.00  0.00    -0.264 NA
BRANCH  16  17
HETATM   17  C3  UNL     1      21.758  -1.490  54.372  1.00  0.00     0.414 C 
BRANCH  17  18
HETATM   18  N2  UNL     1      20.810  -0.456  54.840  1.00  0.00     0.097 N 
HETATM   19  H6  UNL     1      20.747  -0.469  55.893  1.00  0.00     0.315 HD
HETATM   20  H7  UNL     1      19.870  -0.605  54.462  1.00  0.00     0.315 HD
ENDBRANCH  17  18
ENDBRANCH  16  17
ENDBRANCH   1  14
BRANCH   5  21
HETATM   21  C15 UNL     1      26.838  -0.122  53.095  1.00  0.00    -0.021 A 
HETATM   22  C16 UNL     1      27.975   0.577  53.509  1.00  0.00     0.012 A 
HETATM   23  C17 UNL     1      29.189  -0.046  53.674  1.00  0.00     0.004 A 
HETATM   24  C18 UNL     1      29.367  -1.374  53.448  1.00  0.00     0.036 A 
HETATM   25  C19 UNL     1      28.284  -2.123  53.037  1.00  0.00     0.066 A 
HETATM   26  C20 UNL     1      27.072  -1.487  52.875  1.00  0.00     0.049 A 
BRANCH  25  27
HETATM   27  O1  UNL     1      28.458  -3.474  52.806  1.00  0.00    -0.361 OA
HETATM   28  H25 UNL     1      29.077  -3.855  52.110  1.00  0.00     0.217 HD
ENDBRANCH  25  27
ENDBRANCH   5  21
TORSDOF 7
ENDMDL
MODEL 5
REMARK VINA RESULT:      -8.1      2.903      4.801
REMARK  7 active torsions:
REMARK  status: ('A' for Active; 'I' for Inactive)
REMARK    1  A    between atoms: C2_2  and  C4_6 
REMARK    2  A    between atoms: N1_3  and  C3_4 
REMARK    3  A    between atoms: C3_4  and  N2_5 
REMARK    4  A    between atoms: N3_8  and  C6_9 
REMARK    5  A    between atoms: C9_12  and  N4_13 
REMARK    6  A    between atoms: C14_18  and  C15_19 
REMARK    7  A    between atoms: C19_23  and  O1_24 
ROOT
HETATM    1  C4  UNL     1      24.145   0.099  53.343  1.00  0.00     0.016 A 
HETATM    2  C5  UNL     1      23.193   0.635  52.512  1.00  0.00     0.105 A 
HETATM    3  N3  UNL     1      23.747   1.300  51.483  1.00  0.00    -0.358 N 
HETATM    4  C13 UNL     1      25.073   1.191  51.652  1.00  0.00     0.104 A 
HETATM    5  C14 UNL     1      25.358   0.445  52.804  1.00  0.00     0.003 A 
ENDROOT
BRANCH   3   6
HETATM    6  C6  UNL     1      23.033   1.980  50.428  1.00  0.00     0.122 C 
HETATM    7  C7  UNL     1      21.684   1.361  50.144  1.00  0.00     0.030 C 
HETATM    8  C8  UNL     1      21.046   2.532  50.851  1.00  0.00     0.040 C 
HETATM    9  C9  UNL     1      22.371   3.246  50.742  1.00  0.00     0.246 C 
BRANCH   9  10
HETATM   10  N4  UNL     1      22.729   3.987  51.922  1.00  0.00     0.095 N 
HETATM   11  C10 UNL     1      21.928   5.223  51.916  1.00  0.00     0.275 C 
HETATM   12  C11 UNL     1      23.012   5.900  51.101  1.00  0.00     0.060 C 
HETATM   13  C12 UNL     1      23.890   4.834  51.718  1.00  0.00     0.275 C 
ENDBRANCH   9  10
ENDBRANCH   3   6
BRANCH   1  14
HETATM   14  C2  UNL     1      24.005  -0.681  54.555  1.00  0.00     0.039 C 
HETATM   15  C1  UNL     1      25.086  -0.880  55.553  1.00  0.00     0.071 C 
HETATM   16  N1  UNL     1      22.968  -1.280  54.981  1.00  0.00    -0.264 NA
BRANCH  16  17
HETATM   17  C3  UNL     1      21.673  -1.416  54.439  1.00  0.00     0.414 C 
BRANCH  17  18
HETATM   18  N2  UNL     1      20.814  -0.321  54.937  1.00  0.00     0.097 N 
HETATM   19  H6  UNL     1      19.847  -0.685  55.150  1.00  0.00     0.315 HD
HETATM   20  H7  UNL     1      20.727   0.435  54.252  1.00  0.00     0.315 HD
ENDBRANCH  17  18
ENDBRANCH  16  17
ENDBRANCH   1  14
BRANCH   5  21
HETATM   21  C15 UNL     1      26.751   0.192  53.098  1.00  0.00    -0.021 A 
HETATM   22  C16 UNL     1      27.545  -0.952  52.993  1.00  0.00     0.012 A 
HETATM   23  C17 UNL     1      28.872  -0.950  53.352  1.00  0.00     0.004 A 
HETATM   24  C18 UNL     1      29.498   0.158  53.833  1.00  0.00     0.036 A 
HETATM   25  C19 UNL     1      28.770   1.322  53.961  1.00  0.00     0.066 A 
HETATM   26  C20 UNL     1      27.441   1.307  53.597  1.00  0.00     0.049 A 
BRANCH  25  27
HETATM   27  O1  UNL     1      29.401   2.451  54.448  1.00  0.00    -0.361 OA
HETATM   28  H25 UNL     1      29.429   3.335  53.969  1.00  0.00     0.217 HD
ENDBRANCH  25  27
ENDBRANCH   5  21
TORSDOF 7
ENDMDL
MODEL 6
REMARK VINA RESULT:      -8.0      2.406      5.205
REMARK  7 active torsions:
REMARK  status: ('A' for Active; 'I' for Inactive)
REMARK    1  A    between atoms: C2_2  and  C4_6 
REMARK    2  A    between atoms: N1_3  and  C3_4 
REMARK    3  A    between atoms: C3_4  and  N2_5 
REMARK    4  A    between atoms: N3_8  and  C6_9 
REMARK    5  A    between atoms: C9_12  and  N4_13 
REMARK    6  A    between atoms: C14_18  and  C15_19 
REMARK    7  A    between atoms: C19_23  and  O1_24 
ROOT
HETATM    1  C4  UNL     1      25.478   0.118  53.092  1.00  0.00     0.016 A 
HETATM    2  C5  UNL     1      24.452  -0.657  53.573  1.00  0.00     0.105 A 
HETATM    3  N3  UNL     1      23.258  -0.242  53.114  1.00  0.00    -0.358 N 
HETATM    4  C13 UNL     1      23.517   0.812  52.327  1.00  0.00     0.104 A 
HETATM    5  C14 UNL     1      24.896   1.064  52.289  1.00  0.00     0.003 A 
ENDROOT
BRANCH   3   6
HETATM    6  C6  UNL     1      21.977  -0.834  53.423  1.00  0.00     0.122 C 
HETATM    7  C7  UNL     1      21.608  -0.698  54.882  1.00  0.00     0.030 C 
HETATM    8  C8  UNL     1      20.622   0.375  54.487  1.00  0.00     0.040 C 
HETATM    9  C9  UNL     1      20.767  -0.098  53.061  1.00  0.00     0.246 C 
BRANCH   9  10
HETATM   10  N4  UNL     1      20.819   0.971  52.098  1.00  0.00     0.095 N 
HETATM   11  C10 UNL     1      19.482   1.588  52.065  1.00  0.00     0.275 C 
HETATM   12  C11 UNL     1      19.065   0.588  51.007  1.00  0.00     0.060 C 
HETATM   13  C12 UNL     1      20.554   0.516  50.745  1.00  0.00     0.275 C 
ENDBRANCH   9  10
ENDBRANCH   3   6
BRANCH   1  14
HETATM   14  C2  UNL     1      26.905   0.037  53.323  1.00  0.00     0.039 C 
HETATM   15  C1  UNL     1      27.733   1.150  53.851  1.00  0.00     0.071 C 
HETATM   16  N1  UNL     1      27.666  -0.967  53.156  1.00  0.00    -0.264 NA
BRANCH  16  17
HETATM   17  C3  UNL     1      27.411  -2.271  52.683  1.00  0.00     0.414 C 
BRANCH  17  18
HETATM   18  N2  UNL     1      28.492  -3.176  53.126  1.00  0.00     0.097 N 
HETATM   19  H6  UNL     1      28.106  -4.139  53.316  1.00  0.00     0.315 HD
HETATM   20  H7  UNL     1      28.943  -2.839  53.981  1.00  0.00     0.315 HD
ENDBRANCH  17  18
ENDBRANCH  16  17
ENDBRANCH   1  14
BRANCH   5  21
HETATM   21  C15 UNL     1      25.345   2.143  51.437  1.00  0.00    -0.021 A 
HETATM   22  C16 UNL     1      26.449   2.282  50.593  1.00  0.00     0.012 A 
HETATM   23  C17 UNL     1      26.675   3.435  49.879  1.00  0.00     0.004 A 
HETATM   24  C18 UNL     1      25.847   4.511  49.944  1.00  0.00     0.036 A 
HETATM   25  C19 UNL     1      24.737   4.439  50.760  1.00  0.00     0.066 A 
HETATM   26  C20 UNL     1      24.521   3.278  51.471  1.00  0.00     0.049 A 
BRANCH  25  27
HETATM   27  O1  UNL     1      23.891   5.529  50.831  1.00  0.00    -0.361 OA
HETATM   28  H25 UNL     1      24.164   6.437  51.168  1.00  0.00     0.217 HD
ENDBRANCH  25  27
ENDBRANCH   5  21
TORSDOF 7
ENDMDL
MODEL 7
REMARK VINA RESULT:      -7.8      2.919      7.469
REMARK  7 active torsions:
REMARK  status: ('A' for Active; 'I' for Inactive)
REMARK    1  A    between atoms: C2_2  and  C4_6 
REMARK    2  A    between atoms: N1_3  and  C3_4 
REMARK    3  A    between atoms: C3_4  and  N2_5 
REMARK    4  A    between atoms: N3_8  and  C6_9 
REMARK    5  A    between atoms: C9_12  and  N4_13 
REMARK    6  A    between atoms: C14_18  and  C15_19 
REMARK    7  A    between atoms: C19_23  and  O1_24 
ROOT
HETATM    1  C4  UNL     1      23.104   2.631  49.943  1.00  0.00     0.016 A 
HETATM    2  C5  UNL     1      22.962   1.812  51.036  1.00  0.00     0.105 A 
HETATM    3  N3  UNL     1      23.927   2.028  51.947  1.00  0.00    -0.358 N 
HETATM    4  C13 UNL     1      24.699   2.998  51.437  1.00  0.00     0.104 A 
HETATM    5  C14 UNL     1      24.212   3.400  50.185  1.00  0.00     0.003 A 
ENDROOT
BRANCH   3   6
HETATM    6  C6  UNL     1      24.072   1.340  53.209  1.00  0.00     0.122 C 
HETATM    7  C7  UNL     1      22.911   0.422  53.510  1.00  0.00     0.030 C 
HETATM    8  C8  UNL     1      23.802  -0.747  53.171  1.00  0.00     0.040 C 
HETATM    9  C9  UNL     1      24.978   0.194  53.274  1.00  0.00     0.246 C 
BRANCH   9  10
HETATM   10  N4  UNL     1      25.976  -0.011  52.257  1.00  0.00     0.095 N 
HETATM   11  C10 UNL     1      26.651  -1.283  52.564  1.00  0.00     0.275 C 
HETATM   12  C11 UNL     1      27.630  -0.532  53.444  1.00  0.00     0.060 C 
HETATM   13  C12 UNL     1      27.235   0.640  52.572  1.00  0.00     0.275 C 
ENDBRANCH   9  10
ENDBRANCH   3   6
BRANCH   1  14
HETATM   14  C2  UNL     1      22.306   2.738  48.739  1.00  0.00     0.039 C 
HETATM   15  C1  UNL     1      22.652   2.099  47.445  1.00  0.00     0.071 C 
HETATM   16  N1  UNL     1      21.198   3.342  48.589  1.00  0.00    -0.264 NA
BRANCH  16  17
HETATM   17  C3  UNL     1      20.416   4.104  49.481  1.00  0.00     0.414 C 
BRANCH  17  18
HETATM   18  N2  UNL     1      20.926   5.491  49.522  1.00  0.00     0.097 N 
HETATM   19  H6  UNL     1      21.962   5.504  49.327  1.00  0.00     0.315 HD
HETATM   20  H7  UNL     1      20.766   5.927  50.434  1.00  0.00     0.315 HD
ENDBRANCH  17  18
ENDBRANCH  16  17
ENDBRANCH   1  14
BRANCH   5  21
HETATM   21  C15 UNL     1      24.909   4.481  49.523  1.00  0.00    -0.021 A 
HETATM   22  C16 UNL     1      24.461   5.629  48.864  1.00  0.00     0.012 A 
HETATM   23  C17 UNL     1      25.334   6.522  48.291  1.00  0.00     0.004 A 
HETATM   24  C18 UNL     1      26.683   6.352  48.325  1.00  0.00     0.036 A 
HETATM   25  C19 UNL     1      27.191   5.239  48.960  1.00  0.00     0.066 A 
HETATM   26  C20 UNL     1      26.305   4.351  49.532  1.00  0.00     0.049 A 
BRANCH  25  27
HETATM   27  O1  UNL     1      28.560   5.061  48.998  1.00  0.00    -0.361 OA
HETATM   28  H25 UNL     1      29.229   5.812  49.011  1.00  0.00     0.217 HD
ENDBRANCH  25  27
ENDBRANCH   5  21
TORSDOF 7
ENDMDL
MODEL 8
REMARK VINA RESULT:      -7.8      2.119      6.189
REMARK  7 active torsions:
REMARK  status: ('A' for Active; 'I' for Inactive)
REMARK    1  A    between atoms: C2_2  and  C4_6 
REMARK    2  A    between atoms: N1_3  and  C3_4 
REMARK    3  A    between atoms: C3_4  and  N2_5 
REMARK    4  A    between atoms: N3_8  and  C6_9 
REMARK    5  A    between atoms: C9_12  and  N4_13 
REMARK    6  A    between atoms: C14_18  and  C15_19 
REMARK    7  A    between atoms: C19_23  and  O1_24 
ROOT
HETATM    1  C4  UNL     1      25.146   3.262  50.983  1.00  0.00     0.016 A 
HETATM    2  C5  UNL     1      25.647   2.715  52.138  1.00  0.00     0.105 A 
HETATM    3  N3  UNL     1      24.896   1.684  52.567  1.00  0.00    -0.358 N 
HETATM    4  C13 UNL     1      23.900   1.566  51.678  1.00  0.00     0.104 A 
HETATM    5  C14 UNL     1      24.026   2.535  50.672  1.00  0.00     0.003 A 
ENDROOT
BRANCH   3   6
HETATM    6  C6  UNL     1      25.141   0.888  53.747  1.00  0.00     0.122 C 
HETATM    7  C7  UNL     1      24.321  -0.380  53.775  1.00  0.00     0.030 C 
HETATM    8  C8  UNL     1      25.574  -1.147  53.426  1.00  0.00     0.040 C 
HETATM    9  C9  UNL     1      26.362   0.085  53.800  1.00  0.00     0.246 C 
BRANCH   9  10
HETATM   10  N4  UNL     1      27.462   0.361  52.913  1.00  0.00     0.095 N 
HETATM   11  C10 UNL     1      28.449  -0.716  53.100  1.00  0.00     0.275 C 
HETATM   12  C11 UNL     1      29.085   0.085  54.218  1.00  0.00     0.060 C 
HETATM   13  C12 UNL     1      28.443   1.253  53.502  1.00  0.00     0.275 C 
ENDBRANCH   9  10
ENDBRANCH   3   6
BRANCH   1  14
HETATM   14  C2  UNL     1      25.624   4.372  50.185  1.00  0.00     0.039 C 
HETATM   15  C1  UNL     1      26.784   4.300  49.261  1.00  0.00     0.071 C 
HETATM   16  N1  UNL     1      25.137   5.543  50.106  1.00  0.00    -0.264 NA
BRANCH  16  17
HETATM   17  C3  UNL     1      24.044   6.151  50.757  1.00  0.00     0.414 C 
BRANCH  17  18
HETATM   18  N2  UNL     1      24.477   6.660  52.076  1.00  0.00     0.097 N 
HETATM   19  H6  UNL     1      23.677   6.620  52.762  1.00  0.00     0.315 HD
HETATM   20  H7  UNL     1      24.803   7.628  52.020  1.00  0.00     0.315 HD
ENDBRANCH  17  18
ENDBRANCH  16  17
ENDBRANCH   1  14
BRANCH   5  21
HETATM   21  C15 UNL     1      23.052   2.507  49.603  1.00  0.00    -0.021 A 
HETATM   22  C16 UNL     1      23.062   3.021  48.304  1.00  0.00     0.012 A 
HETATM   23  C17 UNL     1      21.988   2.873  47.459  1.00  0.00     0.004 A 
HETATM   24  C18 UNL     1      20.851   2.224  47.826  1.00  0.00     0.036 A 
HETATM   25  C19 UNL     1      20.776   1.693  49.096  1.00  0.00     0.066 A 
HETATM   26  C20 UNL     1      21.860   1.846  49.934  1.00  0.00     0.049 A 
BRANCH  25  27
HETATM   27  O1  UNL     1      19.624   1.031  49.475  1.00  0.00    -0.361 OA
HETATM   28  H25 UNL     1      19.535   0.030  49.520  1.00  0.00     0.217 HD
ENDBRANCH  25  27
ENDBRANCH   5  21
TORSDOF 7
ENDMDL
MODEL 9
REMARK VINA RESULT:      -7.8      1.688      2.229
REMARK  7 active torsions:
REMARK  status: ('A' for Active; 'I' for Inactive)
REMARK    1  A    between atoms: C2_2  and  C4_6 
REMARK    2  A    between atoms: N1_3  and  C3_4 
REMARK    3  A    between atoms: C3_4  and  N2_5 
REMARK    4  A    between atoms: N3_8  and  C6_9 
REMARK    5  A    between atoms: C9_12  and  N4_13 
REMARK    6  A    between atoms: C14_18  and  C15_19 
REMARK    7  A    between atoms: C19_23  and  O1_24 
ROOT
HETATM    1  C4  UNL     1      25.359   1.351  52.167  1.00  0.00     0.016 A 
HETATM    2  C5  UNL     1      25.129   2.451  51.378  1.00  0.00     0.105 A 
HETATM    3  N3  UNL     1      23.839   2.829  51.415  1.00  0.00    -0.358 N 
HETATM    4  C13 UNL     1      23.230   1.963  52.238  1.00  0.00     0.104 A 
HETATM    5  C14 UNL     1      24.151   1.027  52.728  1.00  0.00     0.003 A 
ENDROOT
BRANCH   3   6
HETATM    6  C6  UNL     1      23.260   3.945  50.703  1.00  0.00     0.122 C 
HETATM    7  C7  UNL     1      24.291   4.964  50.280  1.00  0.00     0.030 C 
HETATM    8  C8  UNL     1      24.158   4.448  48.867  1.00  0.00     0.040 C 
HETATM    9  C9  UNL     1      22.889   3.756  49.301  1.00  0.00     0.246 C 
BRANCH   9  10
HETATM   10  N4  UNL     1      22.734   2.433  48.755  1.00  0.00     0.095 N 
HETATM   11  C10 UNL     1      22.270   2.591  47.366  1.00  0.00     0.275 C 
HETATM   12  C11 UNL     1      20.839   2.608  47.864  1.00  0.00     0.060 C 
HETATM   13  C12 UNL     1      21.430   1.862  49.040  1.00  0.00     0.275 C 
ENDBRANCH   9  10
ENDBRANCH   3   6
BRANCH   1  14
HETATM   14  C2  UNL     1      26.580   0.615  52.421  1.00  0.00     0.039 C 
HETATM   15  C1  UNL     1      26.801  -0.800  52.032  1.00  0.00     0.071 C 
HETATM   16  N1  UNL     1      27.647   1.039  52.965  1.00  0.00    -0.264 NA
BRANCH  16  17
HETATM   17  C3  UNL     1      27.987   2.293  53.513  1.00  0.00     0.414 C 
BRANCH  17  18
HETATM   18  N2  UNL     1      29.436   2.325  53.809  1.00  0.00     0.097 N 
HETATM   19  H6  UNL     1      29.596   2.263  54.850  1.00  0.00     0.315 HD
HETATM   20  H7  UNL     1      29.874   3.184  53.469  1.00  0.00     0.315 HD
ENDBRANCH  17  18
ENDBRANCH  16  17
ENDBRANCH   1  14
BRANCH   5  21
HETATM   21  C15 UNL     1      23.658   0.051  53.675  1.00  0.00    -0.021 A 
HETATM   22  C16 UNL     1      24.284  -0.684  54.685  1.00  0.00     0.012 A 
HETATM   23  C17 UNL     1      23.592  -1.581  55.464  1.00  0.00     0.004 A 
HETATM   24  C18 UNL     1      22.262  -1.814  55.305  1.00  0.00     0.036 A 
HETATM   25  C19 UNL     1      21.584  -1.122  54.325  1.00  0.00     0.066 A 
HETATM   26  C20 UNL     1      22.288  -0.224  53.551  1.00  0.00     0.049 A 
BRANCH  25  27
HETATM   27  O1  UNL     1      20.232  -1.354  54.159  1.00  0.00    -0.361 OA
HETATM   28  H25 UNL     1      19.547  -1.259  54.890  1.00  0.00     0.217 HD
ENDBRANCH  25  27
ENDBRANCH   5  21
TORSDOF 7
ENDMDL
