MODEL 1
REMARK VINA RESULT:      -8.8      0.000      0.000
REMARK  6 active torsions:
REMARK  status: ('A' for Active; 'I' for Inactive)
REMARK    1  A    between atoms: C2_2  and  C3_4 
REMARK    2  A    between atoms: C4_6  and  C5_7 
REMARK    3  A    between atoms: C5_7  and  C6_8 
REMARK    4  A    between atoms: C10_14  and  C11_15 
REMARK    5  A    between atoms: C11_15  and  N3_16 
REMARK    6  A    between atoms: C12_17  and  N4_18 
ROOT
HETATM    1  C6  UNL     1      24.273  -0.245  53.645  1.00  0.00     0.052 A 
HETATM    2  N1  UNL     1      24.179  -1.085  54.676  1.00  0.00    -0.245 NA
HETATM    3  C7  UNL     1      22.980  -1.280  55.308  1.00  0.00     0.234 A 
HETATM    4  N2  UNL     1      21.875  -0.632  54.901  1.00  0.00    -0.241 NA
HETATM    5  C8  UNL     1      21.906   0.229  53.867  1.00  0.00     0.071 A 
HETATM    6  C9  UNL     1      20.738   0.862  53.486  1.00  0.00     0.043 A 
HETATM    7  C10 UNL     1      20.762   1.737  52.423  1.00  0.00     0.000 A 
HETATM    8  C12 UNL     1      21.920   1.972  51.757  1.00  0.00     0.060 A 
HETATM    9  C21 UNL     1      23.041   1.321  52.176  1.00  0.00     0.047 A 
HETATM   10  C22 UNL     1      23.129   0.432  53.221  1.00  0.00     0.020 A 
ENDROOT
BRANCH   8  11
HETATM   11  N4  UNL     1      22.024   2.837  50.645  1.00  0.00    -0.285 N 
HETATM   12  N5  UNL     1      22.598   4.173  50.731  1.00  0.00    -0.267 N 
HETATM   13  C13 UNL     1      23.191   5.527  50.817  1.00  0.00     0.236 C 
HETATM   14  H14 UNL     1      23.452   3.514  50.713  1.00  0.00     0.190 HD
HETATM   15  O1  UNL     1      24.411   5.541  50.846  1.00  0.00    -0.272 OA
HETATM   16  C14 UNL     1      22.066   6.642  50.821  1.00  0.00     0.104 C 
HETATM   17  C15 UNL     1      21.487   6.345  49.554  1.00  0.00     0.009 C 
HETATM   18  C16 UNL     1      20.836   6.138  48.330  1.00  0.00     0.001 C 
HETATM   19  C17 UNL     1      21.662   5.027  47.632  1.00  0.00     0.002 C 
HETATM   20  C18 UNL     1      22.217   3.902  48.354  1.00  0.00     0.027 C 
HETATM   21  C19 UNL     1      21.590   2.871  49.181  1.00  0.00     0.104 C 
HETATM   22  C20 UNL     1      21.742   1.458  48.637  1.00  0.00     0.034 C 
ENDBRANCH   8  11
BRANCH   7  23
HETATM   23  C11 UNL     1      19.524   2.428  52.043  1.00  0.00     0.307 C 
BRANCH  23  24
HETATM   24  N3  UNL     1      18.740   1.547  51.211  1.00  0.00     0.082 N 
HETATM   25  H12 UNL     1      18.642   1.904  50.233  1.00  0.00     0.313 HD
HETATM   26  H13 UNL     1      19.132   0.594  51.252  1.00  0.00     0.313 HD
ENDBRANCH  23  24
ENDBRANCH   7  23
BRANCH   1  27
HETATM   27  C5  UNL     1      25.502   0.049  52.887  1.00  0.00     0.088 C 
BRANCH  27  28
HETATM   28  C4  UNL     1      26.458  -1.065  52.783  1.00  0.00     0.002 C 
HETATM   29  C3  UNL     1      27.729  -1.113  53.205  1.00  0.00     0.042 C 
HETATM   30 CL1  UNL     1      28.684  -2.591  52.988  1.00  0.00    -0.086 Cl
BRANCH  29  31
HETATM   31  C2  UNL     1      28.672  -0.181  53.898  1.00  0.00     0.210 C 
HETATM   32  C1  UNL     1      30.105  -0.551  53.559  1.00  0.00     0.051 C 
HETATM   33  F1  UNL     1      28.550  -0.194  55.264  1.00  0.00    -0.244 F 
ENDBRANCH  29  31
ENDBRANCH  27  28
ENDBRANCH   1  27
TORSDOF 6
ENDMDL
MODEL 2
REMARK VINA RESULT:      -8.2      3.756      5.982
REMARK  6 active torsions:
REMARK  status: ('A' for Active; 'I' for Inactive)
REMARK    1  A    between atoms: C2_2  and  C3_4 
REMARK    2  A    between atoms: C4_6  and  C5_7 
REMARK    3  A    between atoms: C5_7  and  C6_8 
REMARK    4  A    between atoms: C10_14  and  C11_15 
REMARK    5  A    between atoms: C11_15  and  N3_16 
REMARK    6  A    between atoms: C12_17  and  N4_18 
ROOT
HETATM    1  C6  UNL     1      21.655  -0.637  54.238  1.00  0.00     0.052 A 
HETATM    2  N1  UNL     1      22.133  -1.518  55.117  1.00  0.00    -0.245 NA
HETATM    3  C7  UNL     1      23.480  -1.616  55.343  1.00  0.00     0.234 A 
HETATM    4  N2  UNL     1      24.346  -0.825  54.687  1.00  0.00    -0.241 NA
HETATM    5  C8  UNL     1      23.925   0.085  53.788  1.00  0.00     0.071 A 
HETATM    6  C9  UNL     1      24.859   0.877  53.149  1.00  0.00     0.043 A 
HETATM    7  C10 UNL     1      24.434   1.815  52.234  1.00  0.00     0.000 A 
HETATM    8  C12 UNL     1      23.112   1.959  51.967  1.00  0.00     0.060 A 
HETATM    9  C21 UNL     1      22.236   1.150  52.626  1.00  0.00     0.047 A 
HETATM   10  C22 UNL     1      22.551   0.185  53.553  1.00  0.00     0.020 A 
ENDROOT
BRANCH   8  11
HETATM   11  N4  UNL     1      22.594   2.909  51.061  1.00  0.00    -0.285 N 
HETATM   12  N5  UNL     1      21.974   2.543  49.795  1.00  0.00    -0.267 N 
HETATM   13  C13 UNL     1      21.333   2.167  48.514  1.00  0.00     0.236 C 
HETATM   14  H14 UNL     1      21.212   2.348  50.535  1.00  0.00     0.190 HD
HETATM   15  O1  UNL     1      20.188   1.761  48.623  1.00  0.00    -0.272 OA
HETATM   16  C14 UNL     1      22.310   2.423  47.293  1.00  0.00     0.104 C 
HETATM   17  C15 UNL     1      22.481   3.826  47.465  1.00  0.00     0.009 C 
HETATM   18  C16 UNL     1      22.725   5.205  47.541  1.00  0.00     0.001 C 
HETATM   19  C17 UNL     1      21.810   5.700  48.692  1.00  0.00     0.002 C 
HETATM   20  C18 UNL     1      21.603   4.934  49.902  1.00  0.00     0.027 C 
HETATM   21  C19 UNL     1      22.538   4.429  50.907  1.00  0.00     0.104 C 
HETATM   22  C20 UNL     1      22.334   5.010  52.298  1.00  0.00     0.034 C 
ENDBRANCH   8  11
BRANCH   7  23
HETATM   23  C11 UNL     1      25.434   2.633  51.537  1.00  0.00     0.307 C 
BRANCH  23  24
HETATM   24  N3  UNL     1      26.696   2.508  52.226  1.00  0.00     0.082 N 
HETATM   25  H12 UNL     1      27.417   3.171  51.861  1.00  0.00     0.313 HD
HETATM   26  H13 UNL     1      26.545   2.600  53.243  1.00  0.00     0.313 HD
ENDBRANCH  23  24
ENDBRANCH   7  23
BRANCH   1  27
HETATM   27  C5  UNL     1      20.233  -0.439  53.908  1.00  0.00     0.088 C 
BRANCH  27  28
HETATM   28  C4  UNL     1      19.403  -1.652  53.950  1.00  0.00     0.002 C 
HETATM   29  C3  UNL     1      18.183  -1.846  53.427  1.00  0.00     0.042 C 
HETATM   30 CL1  UNL     1      17.385  -3.421  53.588  1.00  0.00    -0.086 Cl
BRANCH  29  31
HETATM   31  C2  UNL     1      17.203  -1.031  52.646  1.00  0.00     0.210 C 
HETATM   32  C1  UNL     1      15.964  -1.857  52.351  1.00  0.00     0.051 C 
HETATM   33  F1  UNL     1      17.697  -0.578  51.450  1.00  0.00    -0.244 F 
ENDBRANCH  29  31
ENDBRANCH  27  28
ENDBRANCH   1  27
TORSDOF 6
ENDMDL
MODEL 3
REMARK VINA RESULT:      -8.1      3.419      5.517
REMARK  6 active torsions:
REMARK  status: ('A' for Active; 'I' for Inactive)
REMARK    1  A    between atoms: C2_2  and  C3_4 
REMARK    2  A    between atoms: C4_6  and  C5_7 
REMARK    3  A    between atoms: C5_7  and  C6_8 
REMARK    4  A    between atoms: C10_14  and  C11_15 
REMARK    5  A    between atoms: C11_15  and  N3_16 
REMARK    6  A    between atoms: C12_17  and  N4_18 
ROOT
HETATM    1  C6  UNL     1      21.936   0.086  53.916  1.00  0.00     0.052 A 
HETATM    2  N1  UNL     1      22.234  -0.825  54.844  1.00  0.00    -0.245 NA
HETATM    3  C7  UNL     1      23.529  -1.226  55.035  1.00  0.00     0.234 A 
HETATM    4  N2  UNL     1      24.525  -0.711  54.294  1.00  0.00    -0.241 NA
HETATM    5  C8  UNL     1      24.288   0.212  53.343  1.00  0.00     0.071 A 
HETATM    6  C9  UNL     1      25.351   0.713  52.617  1.00  0.00     0.043 A 
HETATM    7  C10 UNL     1      25.116   1.663  51.647  1.00  0.00     0.000 A 
HETATM    8  C12 UNL     1      23.854   2.101  51.411  1.00  0.00     0.060 A 
HETATM    9  C21 UNL     1      22.845   1.571  52.157  1.00  0.00     0.047 A 
HETATM   10  C22 UNL     1      22.967   0.623  53.144  1.00  0.00     0.020 A 
ENDROOT
BRANCH   8  11
HETATM   11  N4  UNL     1      23.532   3.086  50.452  1.00  0.00    -0.285 N 
HETATM   12  N5  UNL     1      24.146   4.407  50.434  1.00  0.00    -0.267 N 
HETATM   13  C13 UNL     1      24.780   5.745  50.411  1.00  0.00     0.236 C 
HETATM   14  H14 UNL     1      24.890   3.758  49.998  1.00  0.00     0.190 HD
HETATM   15  O1  UNL     1      25.905   5.762  49.937  1.00  0.00    -0.272 OA
HETATM   16  C14 UNL     1      23.802   6.848  50.992  1.00  0.00     0.104 C 
HETATM   17  C15 UNL     1      22.744   6.692  50.051  1.00  0.00     0.009 C 
HETATM   18  C16 UNL     1      21.642   6.622  49.187  1.00  0.00     0.001 C 
HETATM   19  C17 UNL     1      22.064   5.601  48.099  1.00  0.00     0.002 C 
HETATM   20  C18 UNL     1      22.818   4.404  48.408  1.00  0.00     0.027 C 
HETATM   21  C19 UNL     1      22.540   3.284  49.307  1.00  0.00     0.104 C 
HETATM   22  C20 UNL     1      22.397   1.942  48.604  1.00  0.00     0.034 C 
ENDBRANCH   8  11
BRANCH   7  23
HETATM   23  C11 UNL     1      26.245   2.170  50.859  1.00  0.00     0.307 C 
BRANCH  23  24
HETATM   24  N3  UNL     1      26.993   3.101  51.670  1.00  0.00     0.082 N 
HETATM   25  H12 UNL     1      26.373   3.724  52.237  1.00  0.00     0.313 HD
HETATM   26  H13 UNL     1      27.677   2.585  52.246  1.00  0.00     0.313 HD
ENDBRANCH  23  24
ENDBRANCH   7  23
BRANCH   1  27
HETATM   27  C5  UNL     1      20.587   0.596  53.617  1.00  0.00     0.088 C 
BRANCH  27  28
HETATM   28  C4  UNL     1      19.523  -0.419  53.582  1.00  0.00     0.002 C 
HETATM   29  C3  UNL     1      18.510  -0.536  52.712  1.00  0.00     0.042 C 
HETATM   30 CL1  UNL     1      17.356  -1.873  52.861  1.00  0.00    -0.086 Cl
BRANCH  29  31
HETATM   31  C2  UNL     1      18.032   0.211  51.508  1.00  0.00     0.210 C 
HETATM   32  C1  UNL     1      16.794  -0.461  50.942  1.00  0.00     0.051 C 
HETATM   33  F1  UNL     1      18.963   0.285  50.503  1.00  0.00    -0.244 F 
ENDBRANCH  29  31
ENDBRANCH  27  28
ENDBRANCH   1  27
TORSDOF 6
ENDMDL
MODEL 4
REMARK VINA RESULT:      -8.0      2.552      3.347
REMARK  6 active torsions:
REMARK  status: ('A' for Active; 'I' for Inactive)
REMARK    1  A    between atoms: C2_2  and  C3_4 
REMARK    2  A    between atoms: C4_6  and  C5_7 
REMARK    3  A    between atoms: C5_7  and  C6_8 
REMARK    4  A    between atoms: C10_14  and  C11_15 
REMARK    5  A    between atoms: C11_15  and  N3_16 
REMARK    6  A    between atoms: C12_17  and  N4_18 
ROOT
HETATM    1  C6  UNL     1      23.817   0.809  52.915  1.00  0.00     0.052 A 
HETATM    2  N1  UNL     1      23.068  -0.231  53.283  1.00  0.00    -0.245 NA
HETATM    3  C7  UNL     1      21.941  -0.562  52.579  1.00  0.00     0.234 A 
HETATM    4  N2  UNL     1      21.569   0.153  51.503  1.00  0.00    -0.241 NA
HETATM    5  C8  UNL     1      22.283   1.213  51.082  1.00  0.00     0.071 A 
HETATM    6  C9  UNL     1      21.858   1.906  49.965  1.00  0.00     0.043 A 
HETATM    7  C10 UNL     1      22.589   2.987  49.524  1.00  0.00     0.000 A 
HETATM    8  C12 UNL     1      23.716   3.364  50.180  1.00  0.00     0.060 A 
HETATM    9  C21 UNL     1      24.087   2.644  51.276  1.00  0.00     0.047 A 
HETATM   10  C22 UNL     1      23.433   1.555  51.799  1.00  0.00     0.020 A 
ENDROOT
BRANCH   8  11
HETATM   11  N4  UNL     1      24.532   4.445  49.781  1.00  0.00    -0.285 N 
HETATM   12  N5  UNL     1      24.163   5.838  49.994  1.00  0.00    -0.267 N 
HETATM   13  C13 UNL     1      23.792   7.253  50.222  1.00  0.00     0.236 C 
HETATM   14  H14 UNL     1      24.515   5.502  50.958  1.00  0.00     0.190 HD
HETATM   15  O1  UNL     1      23.969   7.642  51.366  1.00  0.00    -0.272 OA
HETATM   16  C14 UNL     1      23.277   7.929  48.885  1.00  0.00     0.104 C 
HETATM   17  C15 UNL     1      24.458   7.759  48.108  1.00  0.00     0.009 C 
HETATM   18  C16 UNL     1      25.561   7.640  47.250  1.00  0.00     0.001 C 
HETATM   19  C17 UNL     1      26.680   7.032  48.136  1.00  0.00     0.002 C 
HETATM   20  C18 UNL     1      26.417   6.005  49.121  1.00  0.00     0.027 C 
HETATM   21  C19 UNL     1      25.829   4.671  49.005  1.00  0.00     0.104 C 
HETATM   22  C20 UNL     1      26.774   3.538  49.376  1.00  0.00     0.034 C 
ENDBRANCH   8  11
BRANCH   7  23
HETATM   23  C11 UNL     1      22.117   3.737  48.354  1.00  0.00     0.307 C 
BRANCH  23  24
HETATM   24  N3  UNL     1      21.135   4.701  48.790  1.00  0.00     0.082 N 
HETATM   25  H12 UNL     1      21.471   5.687  48.689  1.00  0.00     0.313 HD
HETATM   26  H13 UNL     1      20.243   4.531  48.300  1.00  0.00     0.313 HD
ENDBRANCH  23  24
ENDBRANCH   7  23
BRANCH   1  27
HETATM   27  C5  UNL     1      25.046   1.263  53.589  1.00  0.00     0.088 C 
BRANCH  27  28
HETATM   28  C4  UNL     1      26.142   0.282  53.625  1.00  0.00     0.002 C 
HETATM   29  C3  UNL     1      27.445   0.479  53.377  1.00  0.00     0.042 C 
HETATM   30 CL1  UNL     1      28.591  -0.867  53.510  1.00  0.00    -0.086 Cl
BRANCH  29  31
HETATM   31  C2  UNL     1      28.306   1.640  52.994  1.00  0.00     0.210 C 
HETATM   32  C1  UNL     1      29.067   2.141  54.208  1.00  0.00     0.051 C 
HETATM   33  F1  UNL     1      27.602   2.698  52.478  1.00  0.00    -0.244 F 
ENDBRANCH  29  31
ENDBRANCH  27  28
ENDBRANCH   1  27
TORSDOF 6
ENDMDL
MODEL 5
REMARK VINA RESULT:      -8.0      1.635      2.463
REMARK  6 active torsions:
REMARK  status: ('A' for Active; 'I' for Inactive)
REMARK    1  A    between atoms: C2_2  and  C3_4 
REMARK    2  A    between atoms: C4_6  and  C5_7 
REMARK    3  A    between atoms: C5_7  and  C6_8 
REMARK    4  A    between atoms: C10_14  and  C11_15 
REMARK    5  A    between atoms: C11_15  and  N3_16 
REMARK    6  A    between atoms: C12_17  and  N4_18 
ROOT
HETATM    1  C6  UNL     1      24.350  -0.145  54.084  1.00  0.00     0.052 A 
HETATM    2  N1  UNL     1      24.375  -1.131  54.980  1.00  0.00    -0.245 NA
HETATM    3  C7  UNL     1      23.210  -1.675  55.451  1.00  0.00     0.234 A 
HETATM    4  N2  UNL     1      22.019  -1.228  55.017  1.00  0.00    -0.241 NA
HETATM    5  C8  UNL     1      21.928  -0.235  54.113  1.00  0.00     0.071 A 
HETATM    6  C9  UNL     1      20.677   0.179  53.697  1.00  0.00     0.043 A 
HETATM    7  C10 UNL     1      20.578   1.189  52.765  1.00  0.00     0.000 A 
HETATM    8  C12 UNL     1      21.697   1.767  52.262  1.00  0.00     0.060 A 
HETATM    9  C21 UNL     1      22.903   1.319  52.709  1.00  0.00     0.047 A 
HETATM   10  C22 UNL     1      23.116   0.323  53.632  1.00  0.00     0.020 A 
ENDROOT
BRANCH   8  11
HETATM   11  N4  UNL     1      21.681   2.791  51.290  1.00  0.00    -0.285 N 
HETATM   12  N5  UNL     1      21.225   2.581  49.923  1.00  0.00    -0.267 N 
HETATM   13  C13 UNL     1      20.750   2.368  48.536  1.00  0.00     0.236 C 
HETATM   14  H14 UNL     1      20.316   2.665  50.500  1.00  0.00     0.190 HD
HETATM   15  O1  UNL     1      19.535   2.343  48.418  1.00  0.00    -0.272 OA
HETATM   16  C14 UNL     1      21.967   2.253  47.529  1.00  0.00     0.104 C 
HETATM   17  C15 UNL     1      22.533   3.541  47.754  1.00  0.00     0.009 C 
HETATM   18  C16 UNL     1      23.179   4.777  47.900  1.00  0.00     0.001 C 
HETATM   19  C17 UNL     1      22.268   5.581  48.864  1.00  0.00     0.002 C 
HETATM   20  C18 UNL     1      21.609   4.972  49.999  1.00  0.00     0.027 C 
HETATM   21  C19 UNL     1      22.134   4.245  51.155  1.00  0.00     0.104 C 
HETATM   22  C20 UNL     1      21.867   4.921  52.491  1.00  0.00     0.034 C 
ENDBRANCH   8  11
BRANCH   7  23
HETATM   23  C11 UNL     1      19.246   1.645  52.349  1.00  0.00     0.307 C 
BRANCH  23  24
HETATM   24  N3  UNL     1      18.599   0.579  51.622  1.00  0.00     0.082 N 
HETATM   25  H12 UNL     1      17.745   0.224  52.110  1.00  0.00     0.313 HD
HETATM   26  H13 UNL     1      18.410   0.885  50.655  1.00  0.00     0.313 HD
ENDBRANCH  23  24
ENDBRANCH   7  23
BRANCH   1  27
HETATM   27  C5  UNL     1      25.531   0.519  53.505  1.00  0.00     0.088 C 
BRANCH  27  28
HETATM   28  C4  UNL     1      26.695  -0.352  53.279  1.00  0.00     0.002 C 
HETATM   29  C3  UNL     1      27.980  -0.122  53.585  1.00  0.00     0.042 C 
HETATM   30 CL1  UNL     1      29.212  -1.347  53.234  1.00  0.00    -0.086 Cl
BRANCH  29  31
HETATM   31  C2  UNL     1      28.754   0.987  54.222  1.00  0.00     0.210 C 
HETATM   32  C1  UNL     1      28.467   2.294  53.505  1.00  0.00     0.051 C 
HETATM   33  F1  UNL     1      30.111   0.790  54.202  1.00  0.00    -0.244 F 
ENDBRANCH  29  31
ENDBRANCH  27  28
ENDBRANCH   1  27
TORSDOF 6
ENDMDL
MODEL 6
REMARK VINA RESULT:      -8.0      6.210      8.532
REMARK  6 active torsions:
REMARK  status: ('A' for Active; 'I' for Inactive)
REMARK    1  A    between atoms: C2_2  and  C3_4 
REMARK    2  A    between atoms: C4_6  and  C5_7 
REMARK    3  A    between atoms: C5_7  and  C6_8 
REMARK    4  A    between atoms: C10_14  and  C11_15 
REMARK    5  A    between atoms: C11_15  and  N3_16 
REMARK    6  A    between atoms: C12_17  and  N4_18 
ROOT
HETATM    1  C6  UNL     1      24.997   4.980  49.970  1.00  0.00     0.052 A 
HETATM    2  N1  UNL     1      23.864   4.982  50.674  1.00  0.00    -0.245 NA
HETATM    3  C7  UNL     1      23.373   6.148  51.199  1.00  0.00     0.234 A 
HETATM    4  N2  UNL     1      24.020   7.311  51.014  1.00  0.00    -0.241 NA
HETATM    5  C8  UNL     1      25.168   7.373  50.313  1.00  0.00     0.071 A 
HETATM    6  C9  UNL     1      25.787   8.597  50.148  1.00  0.00     0.043 A 
HETATM    7  C10 UNL     1      26.957   8.669  49.426  1.00  0.00     0.000 A 
HETATM    8  C12 UNL     1      27.493   7.548  48.880  1.00  0.00     0.060 A 
HETATM    9  C21 UNL     1      26.840   6.369  49.076  1.00  0.00     0.047 A 
HETATM   10  C22 UNL     1      25.673   6.185  49.777  1.00  0.00     0.020 A 
ENDROOT
BRANCH   8  11
HETATM   11  N4  UNL     1      28.675   7.539  48.109  1.00  0.00    -0.285 N 
HETATM   12  N5  UNL     1      29.908   6.902  48.553  1.00  0.00    -0.267 N 
HETATM   13  C13 UNL     1      31.156   6.244  49.001  1.00  0.00     0.236 C 
HETATM   14  H14 UNL     1      29.290   6.085  48.212  1.00  0.00     0.190 HD
HETATM   15  O1  UNL     1      31.158   5.030  48.878  1.00  0.00    -0.272 OA
HETATM   16  C14 UNL     1      32.210   7.311  49.512  1.00  0.00     0.104 C 
HETATM   17  C15 UNL     1      32.348   8.049  48.302  1.00  0.00     0.009 C 
HETATM   18  C16 UNL     1      32.558   8.850  47.170  1.00  0.00     0.001 C 
HETATM   19  C17 UNL     1      31.738   8.162  46.048  1.00  0.00     0.002 C 
HETATM   20  C18 UNL     1      30.437   7.575  46.287  1.00  0.00     0.027 C 
HETATM   21  C19 UNL     1      29.192   8.143  46.803  1.00  0.00     0.104 C 
HETATM   22  C20 UNL     1      28.037   8.118  45.813  1.00  0.00     0.034 C 
ENDBRANCH   8  11
BRANCH   7  23
HETATM   23  C11 UNL     1      27.625   9.967  49.279  1.00  0.00     0.307 C 
BRANCH  23  24
HETATM   24  N3  UNL     1      28.834   9.957  50.067  1.00  0.00     0.082 N 
HETATM   25  H12 UNL     1      29.559   9.313  49.676  1.00  0.00     0.313 HD
HETATM   26  H13 UNL     1      29.178  10.923  50.185  1.00  0.00     0.313 HD
ENDBRANCH  23  24
ENDBRANCH   7  23
BRANCH   1  27
HETATM   27  C5  UNL     1      25.624   3.796  49.358  1.00  0.00     0.088 C 
BRANCH  27  28
HETATM   28  C4  UNL     1      26.437   2.973  50.267  1.00  0.00     0.002 C 
HETATM   29  C3  UNL     1      26.025   2.170  51.258  1.00  0.00     0.042 C 
HETATM   30 CL1  UNL     1      27.205   1.251  52.210  1.00  0.00    -0.086 Cl
BRANCH  29  31
HETATM   31  C2  UNL     1      24.709   1.769  51.844  1.00  0.00     0.210 C 
HETATM   32  C1  UNL     1      24.887   0.544  52.723  1.00  0.00     0.051 C 
HETATM   33  F1  UNL     1      23.757   1.470  50.902  1.00  0.00    -0.244 F 
ENDBRANCH  29  31
ENDBRANCH  27  28
ENDBRANCH   1  27
TORSDOF 6
ENDMDL
MODEL 7
REMARK VINA RESULT:      -7.6      3.711      5.539
REMARK  6 active torsions:
REMARK  status: ('A' for Active; 'I' for Inactive)
REMARK    1  A    between atoms: C2_2  and  C3_4 
REMARK    2  A    between atoms: C4_6  and  C5_7 
REMARK    3  A    between atoms: C5_7  and  C6_8 
REMARK    4  A    between atoms: C10_14  and  C11_15 
REMARK    5  A    between atoms: C11_15  and  N3_16 
REMARK    6  A    between atoms: C12_17  and  N4_18 
ROOT
HETATM    1  C6  UNL     1      25.634   1.823  51.311  1.00  0.00     0.052 A 
HETATM    2  N1  UNL     1      26.829   1.320  51.622  1.00  0.00    -0.245 NA
HETATM    3  C7  UNL     1      26.950   0.363  52.594  1.00  0.00     0.234 A 
HETATM    4  N2  UNL     1      25.868  -0.091  53.250  1.00  0.00    -0.241 NA
HETATM    5  C8  UNL     1      24.635   0.378  52.981  1.00  0.00     0.071 A 
HETATM    6  C9  UNL     1      23.558  -0.130  53.681  1.00  0.00     0.043 A 
HETATM    7  C10 UNL     1      22.293   0.339  53.405  1.00  0.00     0.000 A 
HETATM    8  C12 UNL     1      22.109   1.288  52.453  1.00  0.00     0.060 A 
HETATM    9  C21 UNL     1      23.207   1.753  51.794  1.00  0.00     0.047 A 
HETATM   10  C22 UNL     1      24.508   1.357  51.991  1.00  0.00     0.020 A 
ENDROOT
BRANCH   8  11
HETATM   11  N4  UNL     1      20.845   1.805  52.094  1.00  0.00    -0.285 N 
HETATM   12  N5  UNL     1      19.646   0.982  52.008  1.00  0.00    -0.267 N 
HETATM   13  C13 UNL     1      18.427   0.146  51.931  1.00  0.00     0.236 C 
HETATM   14  H14 UNL     1      19.781   1.151  53.065  1.00  0.00     0.190 HD
HETATM   15  O1  UNL     1      17.927  -0.117  53.013  1.00  0.00    -0.272 OA
HETATM   16  C14 UNL     1      18.053  -0.179  50.426  1.00  0.00     0.104 C 
HETATM   17  C15 UNL     1      17.866   1.159  49.974  1.00  0.00     0.009 C 
HETATM   18  C16 UNL     1      17.662   2.431  49.420  1.00  0.00     0.001 C 
HETATM   19  C17 UNL     1      17.799   3.405  50.619  1.00  0.00     0.002 C 
HETATM   20  C18 UNL     1      18.787   3.220  51.660  1.00  0.00     0.027 C 
HETATM   21  C19 UNL     1      20.246   3.126  51.611  1.00  0.00     0.104 C 
HETATM   22  C20 UNL     1      20.968   4.240  52.354  1.00  0.00     0.034 C 
ENDBRANCH   8  11
BRANCH   7  23
HETATM   23  C11 UNL     1      21.156  -0.183  54.173  1.00  0.00     0.307 C 
BRANCH  23  24
HETATM   24  N3  UNL     1      21.209  -1.625  54.153  1.00  0.00     0.082 N 
HETATM   25  H12 UNL     1      21.825  -1.991  53.392  1.00  0.00     0.313 HD
HETATM   26  H13 UNL     1      21.475  -1.974  55.087  1.00  0.00     0.313 HD
ENDBRANCH  23  24
ENDBRANCH   7  23
BRANCH   1  27
HETATM   27  C5  UNL     1      25.376   2.853  50.289  1.00  0.00     0.088 C 
BRANCH  27  28
HETATM   28  C4  UNL     1      26.570   3.369  49.602  1.00  0.00     0.002 C 
HETATM   29  C3  UNL     1      26.792   4.605  49.133  1.00  0.00     0.042 C 
HETATM   30 CL1  UNL     1      28.335   5.000  48.355  1.00  0.00    -0.086 Cl
BRANCH  29  31
HETATM   31  C2  UNL     1      26.034   5.894  49.088  1.00  0.00     0.210 C 
HETATM   32  C1  UNL     1      26.838   6.939  48.336  1.00  0.00     0.051 C 
HETATM   33  F1  UNL     1      25.744   6.403  50.328  1.00  0.00    -0.244 F 
ENDBRANCH  29  31
ENDBRANCH  27  28
ENDBRANCH   1  27
TORSDOF 6
ENDMDL
MODEL 8
REMARK VINA RESULT:      -7.6      3.778      5.085
REMARK  6 active torsions:
REMARK  status: ('A' for Active; 'I' for Inactive)
REMARK    1  A    between atoms: C2_2  and  C3_4 
REMARK    2  A    between atoms: C4_6  and  C5_7 
REMARK    3  A    between atoms: C5_7  and  C6_8 
REMARK    4  A    between atoms: C10_14  and  C11_15 
REMARK    5  A    between atoms: C11_15  and  N3_16 
REMARK    6  A    between atoms: C12_17  and  N4_18 
ROOT
HETATM    1  C6  UNL     1      26.402   2.775  50.817  1.00  0.00     0.052 A 
HETATM    2  N1  UNL     1      27.346   2.532  51.728  1.00  0.00    -0.245 NA
HETATM    3  C7  UNL     1      27.007   2.251  53.024  1.00  0.00     0.234 A 
HETATM    4  N2  UNL     1      25.718   2.213  53.404  1.00  0.00    -0.241 NA
HETATM    5  C8  UNL     1      24.720   2.450  52.532  1.00  0.00     0.071 A 
HETATM    6  C9  UNL     1      23.414   2.389  52.977  1.00  0.00     0.043 A 
HETATM    7  C10 UNL     1      22.388   2.622  52.087  1.00  0.00     0.000 A 
HETATM    8  C12 UNL     1      22.661   2.905  50.789  1.00  0.00     0.060 A 
HETATM    9  C21 UNL     1      23.967   2.952  50.407  1.00  0.00     0.047 A 
HETATM   10  C22 UNL     1      25.063   2.738  51.208  1.00  0.00     0.020 A 
ENDROOT
BRANCH   8  11
HETATM   11  N4  UNL     1      21.669   3.134  49.811  1.00  0.00    -0.285 N 
HETATM   12  N5  UNL     1      21.291   4.467  49.361  1.00  0.00    -0.267 N 
HETATM   13  C13 UNL     1      20.916   5.823  48.898  1.00  0.00     0.236 C 
HETATM   14  H14 UNL     1      22.216   4.262  48.845  1.00  0.00     0.190 HD
HETATM   15  O1  UNL     1      21.701   6.320  48.107  1.00  0.00    -0.272 OA
HETATM   16  C14 UNL     1      19.542   6.284  49.538  1.00  0.00     0.104 C 
HETATM   17  C15 UNL     1      18.720   5.245  49.013  1.00  0.00     0.009 C 
HETATM   18  C16 UNL     1      17.819   4.271  48.559  1.00  0.00     0.001 C 
HETATM   19  C17 UNL     1      18.656   3.383  47.602  1.00  0.00     0.002 C 
HETATM   20  C18 UNL     1      20.030   3.024  47.879  1.00  0.00     0.027 C 
HETATM   21  C19 UNL     1      20.646   2.329  49.010  1.00  0.00     0.104 C 
HETATM   22  C20 UNL     1      21.306   1.008  48.645  1.00  0.00     0.034 C 
ENDBRANCH   8  11
BRANCH   7  23
HETATM   23  C11 UNL     1      21.003   2.586  52.572  1.00  0.00     0.307 C 
BRANCH  23  24
HETATM   24  N3  UNL     1      20.623   1.209  52.781  1.00  0.00     0.082 N 
HETATM   25  H12 UNL     1      20.731   0.913  53.778  1.00  0.00     0.313 HD
HETATM   26  H13 UNL     1      19.670   1.055  52.419  1.00  0.00     0.313 HD
ENDBRANCH  23  24
ENDBRANCH   7  23
BRANCH   1  27
HETATM   27  C5  UNL     1      26.640   3.088  49.397  1.00  0.00     0.088 C 
BRANCH  27  28
HETATM   28  C4  UNL     1      27.219   4.414  49.134  1.00  0.00     0.002 C 
HETATM   29  C3  UNL     1      26.583   5.562  48.858  1.00  0.00     0.042 C 
HETATM   30 CL1  UNL     1      27.506   7.053  48.600  1.00  0.00    -0.086 Cl
BRANCH  29  31
HETATM   31  C2  UNL     1      25.160   5.995  48.706  1.00  0.00     0.210 C 
HETATM   32  C1  UNL     1      25.100   7.312  47.952  1.00  0.00     0.051 C 
HETATM   33  F1  UNL     1      24.509   6.170  49.900  1.00  0.00    -0.244 F 
ENDBRANCH  29  31
ENDBRANCH  27  28
ENDBRANCH   1  27
TORSDOF 6
ENDMDL
MODEL 9
REMARK VINA RESULT:      -7.5      3.647      6.935
REMARK  6 active torsions:
REMARK  status: ('A' for Active; 'I' for Inactive)
REMARK    1  A    between atoms: C2_2  and  C3_4 
REMARK    2  A    between atoms: C4_6  and  C5_7 
REMARK    3  A    between atoms: C5_7  and  C6_8 
REMARK    4  A    between atoms: C10_14  and  C11_15 
REMARK    5  A    between atoms: C11_15  and  N3_16 
REMARK    6  A    between atoms: C12_17  and  N4_18 
ROOT
HETATM    1  C6  UNL     1      20.062   0.623  51.329  1.00  0.00     0.052 A 
HETATM    2  N1  UNL     1      18.813   0.206  51.535  1.00  0.00    -0.245 NA
HETATM    3  C7  UNL     1      18.508  -0.569  52.622  1.00  0.00     0.234 A 
HETATM    4  N2  UNL     1      19.460  -0.922  53.503  1.00  0.00    -0.241 NA
HETATM    5  C8  UNL     1      20.739  -0.532  53.349  1.00  0.00     0.071 A 
HETATM    6  C9  UNL     1      21.675  -0.918  54.290  1.00  0.00     0.043 A 
HETATM    7  C10 UNL     1      22.984  -0.515  54.143  1.00  0.00     0.000 A 
HETATM    8  C12 UNL     1      23.347   0.254  53.086  1.00  0.00     0.060 A 
HETATM    9  C21 UNL     1      22.383   0.604  52.190  1.00  0.00     0.047 A 
HETATM   10  C22 UNL     1      21.054   0.258  52.240  1.00  0.00     0.020 A 
ENDROOT
BRANCH   8  11
HETATM   11  N4  UNL     1      24.661   0.726  52.875  1.00  0.00    -0.285 N 
HETATM   12  N5  UNL     1      25.803  -0.160  52.696  1.00  0.00    -0.267 N 
HETATM   13  C13 UNL     1      26.961  -1.062  52.504  1.00  0.00     0.236 C 
HETATM   14  H14 UNL     1      25.302  -0.170  51.740  1.00  0.00     0.190 HD
HETATM   15  O1  UNL     1      27.040  -1.551  51.388  1.00  0.00    -0.272 OA
HETATM   16  C14 UNL     1      27.844  -1.144  53.817  1.00  0.00     0.104 C 
HETATM   17  C15 UNL     1      28.193   0.234  53.908  1.00  0.00     0.009 C 
HETATM   18  C16 UNL     1      28.595   1.563  54.100  1.00  0.00     0.001 C 
HETATM   19  C17 UNL     1      28.049   2.318  52.860  1.00  0.00     0.002 C 
HETATM   20  C18 UNL     1      26.753   2.030  52.284  1.00  0.00     0.027 C 
HETATM   21  C19 UNL     1      25.406   2.061  52.855  1.00  0.00     0.104 C 
HETATM   22  C20 UNL     1      24.478   3.079  52.209  1.00  0.00     0.034 C 
ENDBRANCH   8  11
BRANCH   7  23
HETATM   23  C11 UNL     1      23.978  -0.953  55.129  1.00  0.00     0.307 C 
BRANCH  23  24
HETATM   24  N3  UNL     1      23.372  -1.940  55.990  1.00  0.00     0.082 N 
HETATM   25  H12 UNL     1      23.258  -2.866  55.517  1.00  0.00     0.313 HD
HETATM   26  H13 UNL     1      23.905  -2.003  56.872  1.00  0.00     0.313 HD
ENDBRANCH  23  24
ENDBRANCH   7  23
BRANCH   1  27
HETATM   27  C5  UNL     1      20.513   1.458  50.201  1.00  0.00     0.088 C 
BRANCH  27  28
HETATM   28  C4  UNL     1      20.534   2.906  50.459  1.00  0.00     0.002 C 
HETATM   29  C3  UNL     1      21.276   3.848  49.860  1.00  0.00     0.042 C 
HETATM   30 CL1  UNL     1      21.106   5.549  50.331  1.00  0.00    -0.086 Cl
BRANCH  29  31
HETATM   31  C2  UNL     1      22.308   3.882  48.779  1.00  0.00     0.210 C 
HETATM   32  C1  UNL     1      23.263   2.713  48.941  1.00  0.00     0.051 C 
HETATM   33  F1  UNL     1      23.055   5.032  48.769  1.00  0.00    -0.244 F 
ENDBRANCH  29  31
ENDBRANCH  27  28
ENDBRANCH   1  27
TORSDOF 6
ENDMDL
