MODEL 1
REMARK VINA RESULT:      -7.6      0.000      0.000
REMARK  4 active torsions:
REMARK  status: ('A' for Active; 'I' for Inactive)
REMARK    1  A    between atoms: C1_2  and  C2_3 
REMARK       I    between atoms: C1_2  and  N1_11 
REMARK    2  A    between atoms: C2_3  and  O2_4 
REMARK    3  A    between atoms: O2_4  and  C3_5 
REMARK    4  A    between atoms: N1_11  and  C9_12 
ROOT
HETATM    1  O1  UNL     1      24.645   1.825  51.249  1.00  0.00    -0.271 OA
HETATM    2  C1  UNL     1      24.969   2.887  51.820  1.00  0.00     0.246 C 
HETATM    3  N1  UNL     1      25.967   2.875  52.803  1.00  0.00    -0.327 N 
HETATM    4  H8  UNL     1      26.072   3.869  53.141  1.00  0.00     0.168 HD
ENDROOT
BRANCH   3   5
HETATM    5  C9  UNL     1      26.771   1.859  53.355  1.00  0.00     0.035 C 
HETATM    6  C10 UNL     1      28.069   2.120  53.418  1.00  0.00     0.029 C 
HETATM    7  C11 UNL     1      29.001   1.033  53.829  1.00  0.00     0.029 C 
HETATM    8  C12 UNL     1      28.222  -0.046  54.060  1.00  0.00     0.038 C 
HETATM    9  C13 UNL     1      26.980   0.107  54.942  1.00  0.00     0.090 C 
HETATM   10  N3  UNL     1      28.244  -1.429  53.574  1.00  0.00    -0.249 NA
HETATM   11  C14 UNL     1      26.050   0.621  53.793  1.00  0.00     0.138 C 
HETATM   12  N2  UNL     1      26.180  -0.474  52.807  1.00  0.00    -0.374 N 
HETATM   13  C15 UNL     1      27.086  -1.628  52.894  1.00  0.00     0.203 C 
HETATM   14  H14 UNL     1      25.617  -0.538  51.910  1.00  0.00     0.161 HD
ENDBRANCH   3   5
BRANCH   2  15
HETATM   15  C2  UNL     1      24.186   4.042  51.320  1.00  0.00     0.278 C 
BRANCH  15  16
HETATM   16  O2  UNL     1      24.415   4.055  49.902  1.00  0.00    -0.342 OA
BRANCH  16  17
HETATM   17  C3  UNL     1      25.516   4.687  49.364  1.00  0.00     0.069 A 
HETATM   18  C4  UNL     1      25.250   5.980  48.971  1.00  0.00     0.037 A 
HETATM   19  C5  UNL     1      26.233   6.779  48.406  1.00  0.00     0.003 A 
HETATM   20  C6  UNL     1      27.506   6.279  48.229  1.00  0.00     0.000 A 
HETATM   21  C7  UNL     1      27.777   4.988  48.621  1.00  0.00     0.003 A 
HETATM   22  C8  UNL     1      26.804   4.177  49.187  1.00  0.00     0.037 A 
ENDBRANCH  16  17
ENDBRANCH  15  16
ENDBRANCH   2  15
TORSDOF 4
ENDMDL
MODEL 2
REMARK VINA RESULT:      -7.4      2.134      3.271
REMARK  4 active torsions:
REMARK  status: ('A' for Active; 'I' for Inactive)
REMARK    1  A    between atoms: C1_2  and  C2_3 
REMARK       I    between atoms: C1_2  and  N1_11 
REMARK    2  A    between atoms: C2_3  and  O2_4 
REMARK    3  A    between atoms: O2_4  and  C3_5 
REMARK    4  A    between atoms: N1_11  and  C9_12 
ROOT
HETATM    1  O1  UNL     1      26.854   2.454  50.183  1.00  0.00    -0.271 OA
HETATM    2  C1  UNL     1      26.143   3.099  50.981  1.00  0.00     0.246 C 
HETATM    3  N1  UNL     1      26.212   2.829  52.354  1.00  0.00    -0.327 N 
HETATM    4  H8  UNL     1      25.534   3.483  52.826  1.00  0.00     0.168 HD
ENDROOT
BRANCH   3   5
HETATM    5  C9  UNL     1      26.962   1.919  53.125  1.00  0.00     0.035 C 
HETATM    6  C10 UNL     1      28.178   2.319  53.469  1.00  0.00     0.029 C 
HETATM    7  C11 UNL     1      29.092   1.349  54.136  1.00  0.00     0.029 C 
HETATM    8  C12 UNL     1      28.390   0.200  54.237  1.00  0.00     0.038 C 
HETATM    9  C13 UNL     1      26.969   0.242  54.804  1.00  0.00     0.090 C 
HETATM   10  N3  UNL     1      28.659  -1.185  53.839  1.00  0.00    -0.249 NA
HETATM   11  C14 UNL     1      26.284   0.623  53.449  1.00  0.00     0.138 C 
HETATM   12  N2  UNL     1      26.746  -0.477  52.576  1.00  0.00    -0.374 N 
HETATM   13  C15 UNL     1      27.715  -1.525  52.925  1.00  0.00     0.203 C 
HETATM   14  H14 UNL     1      26.415  -0.625  51.578  1.00  0.00     0.161 HD
ENDBRANCH   3   5
BRANCH   2  15
HETATM   15  C2  UNL     1      25.300   4.098  50.283  1.00  0.00     0.278 C 
BRANCH  15  16
HETATM   16  O2  UNL     1      23.965   3.837  50.745  1.00  0.00    -0.342 OA
BRANCH  16  17
HETATM   17  C3  UNL     1      23.168   2.898  50.126  1.00  0.00     0.069 A 
HETATM   18  C4  UNL     1      23.144   3.037  48.756  1.00  0.00     0.037 A 
HETATM   19  C5  UNL     1      22.397   2.185  47.957  1.00  0.00     0.003 A 
HETATM   20  C6  UNL     1      21.659   1.173  48.535  1.00  0.00     0.000 A 
HETATM   21  C7  UNL     1      21.679   1.030  49.903  1.00  0.00     0.003 A 
HETATM   22  C8  UNL     1      22.421   1.875  50.715  1.00  0.00     0.037 A 
ENDBRANCH  16  17
ENDBRANCH  15  16
ENDBRANCH   2  15
TORSDOF 4
ENDMDL
MODEL 3
REMARK VINA RESULT:      -7.4      2.004      6.583
REMARK  4 active torsions:
REMARK  status: ('A' for Active; 'I' for Inactive)
REMARK    1  A    between atoms: C1_2  and  C2_3 
REMARK       I    between atoms: C1_2  and  N1_11 
REMARK    2  A    between atoms: C2_3  and  O2_4 
REMARK    3  A    between atoms: O2_4  and  C3_5 
REMARK    4  A    between atoms: N1_11  and  C9_12 
ROOT
HETATM    1  O1  UNL     1      23.432   1.160  51.278  1.00  0.00    -0.271 OA
HETATM    2  C1  UNL     1      24.270   1.441  52.160  1.00  0.00     0.246 C 
HETATM    3  N1  UNL     1      25.187   2.478  51.947  1.00  0.00    -0.327 N 
HETATM    4  H8  UNL     1      25.788   2.534  52.811  1.00  0.00     0.168 HD
ENDROOT
BRANCH   3   5
HETATM    5  C9  UNL     1      25.412   3.367  50.878  1.00  0.00     0.035 C 
HETATM    6  C10 UNL     1      26.541   3.186  50.206  1.00  0.00     0.029 C 
HETATM    7  C11 UNL     1      26.932   4.188  49.175  1.00  0.00     0.029 C 
HETATM    8  C12 UNL     1      25.949   5.114  49.178  1.00  0.00     0.038 C 
HETATM    9  C13 UNL     1      24.491   4.654  49.110  1.00  0.00     0.090 C 
HETATM   10  N3  UNL     1      25.939   6.574  49.309  1.00  0.00    -0.249 NA
HETATM   11  C14 UNL     1      24.349   4.396  50.647  1.00  0.00     0.138 C 
HETATM   12  N2  UNL     1      24.728   5.717  51.195  1.00  0.00    -0.374 N 
HETATM   13  C15 UNL     1      25.240   6.866  50.435  1.00  0.00     0.203 C 
HETATM   14  H14 UNL     1      24.668   5.975  52.223  1.00  0.00     0.161 HD
ENDBRANCH   3   5
BRANCH   2  15
HETATM   15  C2  UNL     1      24.133   0.566  53.348  1.00  0.00     0.278 C 
BRANCH  15  16
HETATM   16  O2  UNL     1      25.053  -0.513  53.117  1.00  0.00    -0.342 OA
BRANCH  16  17
HETATM   17  C3  UNL     1      26.360  -0.439  53.550  1.00  0.00     0.069 A 
HETATM   18  C4  UNL     1      27.217  -1.207  52.794  1.00  0.00     0.037 A 
HETATM   19  C5  UNL     1      28.574  -1.264  53.075  1.00  0.00     0.003 A 
HETATM   20  C6  UNL     1      29.087  -0.540  54.131  1.00  0.00     0.000 A 
HETATM   21  C7  UNL     1      28.236   0.230  54.889  1.00  0.00     0.003 A 
HETATM   22  C8  UNL     1      26.876   0.296  54.620  1.00  0.00     0.037 A 
ENDBRANCH  16  17
ENDBRANCH  15  16
ENDBRANCH   2  15
TORSDOF 4
ENDMDL
MODEL 4
REMARK VINA RESULT:      -7.3      3.262      5.382
REMARK  4 active torsions:
REMARK  status: ('A' for Active; 'I' for Inactive)
REMARK    1  A    between atoms: C1_2  and  C2_3 
REMARK       I    between atoms: C1_2  and  N1_11 
REMARK    2  A    between atoms: C2_3  and  O2_4 
REMARK    3  A    between atoms: O2_4  and  C3_5 
REMARK    4  A    between atoms: N1_11  and  C9_12 
ROOT
HETATM    1  O1  UNL     1      24.477   3.026  53.528  1.00  0.00    -0.271 OA
HETATM    2  C1  UNL     1      24.434   2.155  52.635  1.00  0.00     0.246 C 
HETATM    3  N1  UNL     1      25.505   1.265  52.477  1.00  0.00    -0.327 N 
HETATM    4  H8  UNL     1      25.254   0.629  51.674  1.00  0.00     0.168 HD
ENDROOT
BRANCH   3   5
HETATM    5  C9  UNL     1      26.733   1.099  53.146  1.00  0.00     0.035 C 
HETATM    6  C10 UNL     1      27.585   2.109  53.047  1.00  0.00     0.029 C 
HETATM    7  C11 UNL     1      28.966   1.939  53.580  1.00  0.00     0.029 C 
HETATM    8  C12 UNL     1      29.010   0.686  54.081  1.00  0.00     0.038 C 
HETATM    9  C13 UNL     1      27.894   0.219  55.019  1.00  0.00     0.090 C 
HETATM   10  N3  UNL     1      29.910  -0.453  53.873  1.00  0.00    -0.249 NA
HETATM   11  C14 UNL     1      26.910  -0.198  53.875  1.00  0.00     0.138 C 
HETATM   12  N2  UNL     1      27.744  -1.152  53.113  1.00  0.00    -0.374 N 
HETATM   13  C15 UNL     1      29.162  -1.456  53.346  1.00  0.00     0.203 C 
HETATM   14  H14 UNL     1      27.390  -1.731  52.297  1.00  0.00     0.161 HD
ENDBRANCH   3   5
BRANCH   2  15
HETATM   15  C2  UNL     1      23.177   2.228  51.853  1.00  0.00     0.278 C 
BRANCH  15  16
HETATM   16  O2  UNL     1      22.855   0.862  51.550  1.00  0.00    -0.342 OA
BRANCH  16  17
HETATM   17  C3  UNL     1      22.173   0.074  52.453  1.00  0.00     0.069 A 
HETATM   18  C4  UNL     1      20.825   0.354  52.496  1.00  0.00     0.037 A 
HETATM   19  C5  UNL     1      19.972  -0.335  53.345  1.00  0.00     0.003 A 
HETATM   20  C6  UNL     1      20.472  -1.324  54.167  1.00  0.00     0.000 A 
HETATM   21  C7  UNL     1      21.817  -1.608  54.127  1.00  0.00     0.003 A 
HETATM   22  C8  UNL     1      22.683  -0.927  53.284  1.00  0.00     0.037 A 
ENDBRANCH  16  17
ENDBRANCH  15  16
ENDBRANCH   2  15
TORSDOF 4
ENDMDL
MODEL 5
REMARK VINA RESULT:      -7.3      1.589      2.612
REMARK  4 active torsions:
REMARK  status: ('A' for Active; 'I' for Inactive)
REMARK    1  A    between atoms: C1_2  and  C2_3 
REMARK       I    between atoms: C1_2  and  N1_11 
REMARK    2  A    between atoms: C2_3  and  O2_4 
REMARK    3  A    between atoms: O2_4  and  C3_5 
REMARK    4  A    between atoms: N1_11  and  C9_12 
ROOT
HETATM    1  O1  UNL     1      23.857   4.028  52.824  1.00  0.00    -0.271 OA
HETATM    2  C1  UNL     1      24.210   3.747  51.660  1.00  0.00     0.246 C 
HETATM    3  N1  UNL     1      24.664   2.456  51.360  1.00  0.00    -0.327 N 
HETATM    4  H8  UNL     1      24.905   2.450  50.333  1.00  0.00     0.168 HD
ENDROOT
BRANCH   3   5
HETATM    5  C9  UNL     1      24.834   1.287  52.126  1.00  0.00     0.035 C 
HETATM    6  C10 UNL     1      23.719   0.668  52.489  1.00  0.00     0.029 C 
HETATM    7  C11 UNL     1      23.809  -0.474  53.442  1.00  0.00     0.029 C 
HETATM    8  C12 UNL     1      25.123  -0.611  53.721  1.00  0.00     0.038 C 
HETATM    9  C13 UNL     1      26.130  -0.651  52.570  1.00  0.00     0.090 C 
HETATM   10  N3  UNL     1      25.887  -0.669  54.971  1.00  0.00    -0.249 NA
HETATM   11  C14 UNL     1      26.250   0.904  52.430  1.00  0.00     0.138 C 
HETATM   12  N2  UNL     1      26.645   1.285  53.803  1.00  0.00    -0.374 N 
HETATM   13  C15 UNL     1      26.730   0.396  54.969  1.00  0.00     0.203 C 
HETATM   14  H14 UNL     1      26.915   2.270  54.093  1.00  0.00     0.161 HD
ENDBRANCH   3   5
BRANCH   2  15
HETATM   15  C2  UNL     1      24.077   4.909  50.749  1.00  0.00     0.278 C 
BRANCH  15  16
HETATM   16  O2  UNL     1      24.734   4.502  49.538  1.00  0.00    -0.342 OA
BRANCH  16  17
HETATM   17  C3  UNL     1      25.801   5.215  49.033  1.00  0.00     0.069 A 
HETATM   18  C4  UNL     1      26.971   4.490  49.023  1.00  0.00     0.037 A 
HETATM   19  C5  UNL     1      28.155   5.036  48.551  1.00  0.00     0.003 A 
HETATM   20  C6  UNL     1      28.172   6.332  48.078  1.00  0.00     0.000 A 
HETATM   21  C7  UNL     1      27.006   7.061  48.086  1.00  0.00     0.003 A 
HETATM   22  C8  UNL     1      25.814   6.528  48.556  1.00  0.00     0.037 A 
ENDBRANCH  16  17
ENDBRANCH  15  16
ENDBRANCH   2  15
TORSDOF 4
ENDMDL
MODEL 6
REMARK VINA RESULT:      -7.3      2.036      6.741
REMARK  4 active torsions:
REMARK  status: ('A' for Active; 'I' for Inactive)
REMARK    1  A    between atoms: C1_2  and  C2_3 
REMARK       I    between atoms: C1_2  and  N1_11 
REMARK    2  A    between atoms: C2_3  and  O2_4 
REMARK    3  A    between atoms: O2_4  and  C3_5 
REMARK    4  A    between atoms: N1_11  and  C9_12 
ROOT
HETATM    1  O1  UNL     1      23.693   2.319  50.441  1.00  0.00    -0.271 OA
HETATM    2  C1  UNL     1      24.349   2.641  51.453  1.00  0.00     0.246 C 
HETATM    3  N1  UNL     1      25.285   3.681  51.377  1.00  0.00    -0.327 N 
HETATM    4  H8  UNL     1      25.713   3.774  52.336  1.00  0.00     0.168 HD
ENDROOT
BRANCH   3   5
HETATM    5  C9  UNL     1      25.703   4.533  50.337  1.00  0.00     0.035 C 
HETATM    6  C10 UNL     1      26.736   4.108  49.623  1.00  0.00     0.029 C 
HETATM    7  C11 UNL     1      27.343   5.028  48.620  1.00  0.00     0.029 C 
HETATM    8  C12 UNL     1      26.623   6.169  48.692  1.00  0.00     0.038 C 
HETATM    9  C13 UNL     1      25.095   6.090  48.652  1.00  0.00     0.090 C 
HETATM   10  N3  UNL     1      26.982   7.578  48.880  1.00  0.00    -0.249 NA
HETATM   11  C14 UNL     1      24.926   5.805  50.182  1.00  0.00     0.138 C 
HETATM   12  N2  UNL     1      25.636   6.962  50.769  1.00  0.00    -0.374 N 
HETATM   13  C15 UNL     1      26.402   7.982  50.039  1.00  0.00     0.203 C 
HETATM   14  H14 UNL     1      25.663   7.179  51.807  1.00  0.00     0.161 HD
ENDBRANCH   3   5
BRANCH   2  15
HETATM   15  C2  UNL     1      23.996   1.807  52.626  1.00  0.00     0.278 C 
BRANCH  15  16
HETATM   16  O2  UNL     1      24.692   0.568  52.418  1.00  0.00    -0.342 OA
BRANCH  16  17
HETATM   17  C3  UNL     1      25.933   0.345  52.976  1.00  0.00     0.069 A 
HETATM   18  C4  UNL     1      26.548  -0.782  52.478  1.00  0.00     0.037 A 
HETATM   19  C5  UNL     1      27.804  -1.173  52.918  1.00  0.00     0.003 A 
HETATM   20  C6  UNL     1      28.460  -0.425  53.873  1.00  0.00     0.000 A 
HETATM   21  C7  UNL     1      27.851   0.702  54.373  1.00  0.00     0.003 A 
HETATM   22  C8  UNL     1      26.594   1.105  53.943  1.00  0.00     0.037 A 
ENDBRANCH  16  17
ENDBRANCH  15  16
ENDBRANCH   2  15
TORSDOF 4
ENDMDL
MODEL 7
REMARK VINA RESULT:      -7.1      2.909      3.753
REMARK  4 active torsions:
REMARK  status: ('A' for Active; 'I' for Inactive)
REMARK    1  A    between atoms: C1_2  and  C2_3 
REMARK       I    between atoms: C1_2  and  N1_11 
REMARK    2  A    between atoms: C2_3  and  O2_4 
REMARK    3  A    between atoms: O2_4  and  C3_5 
REMARK    4  A    between atoms: N1_11  and  C9_12 
ROOT
HETATM    1  O1  UNL     1      24.431  -0.931  53.496  1.00  0.00    -0.271 OA
HETATM    2  C1  UNL     1      24.182   0.279  53.318  1.00  0.00     0.246 C 
HETATM    3  N1  UNL     1      25.205   1.228  53.441  1.00  0.00    -0.327 N 
HETATM    4  H8  UNL     1      24.770   2.170  53.251  1.00  0.00     0.168 HD
ENDROOT
BRANCH   3   5
HETATM    5  C9  UNL     1      26.577   1.139  53.744  1.00  0.00     0.035 C 
HETATM    6  C10 UNL     1      27.310   2.194  53.418  1.00  0.00     0.029 C 
HETATM    7  C11 UNL     1      28.792   2.108  53.549  1.00  0.00     0.029 C 
HETATM    8  C12 UNL     1      29.044   0.866  54.013  1.00  0.00     0.038 C 
HETATM    9  C13 UNL     1      28.258   0.348  55.221  1.00  0.00     0.090 C 
HETATM   10  N3  UNL     1      29.915  -0.223  53.560  1.00  0.00    -0.249 NA
HETATM   11  C14 UNL     1      27.022  -0.137  54.391  1.00  0.00     0.138 C 
HETATM   12  N2  UNL     1      27.667  -1.052  53.425  1.00  0.00    -0.374 N 
HETATM   13  C15 UNL     1      29.110  -1.273  53.256  1.00  0.00     0.203 C 
HETATM   14  H14 UNL     1      27.136  -1.660  52.735  1.00  0.00     0.161 HD
ENDBRANCH   3   5
BRANCH   2  15
HETATM   15  C2  UNL     1      22.754   0.505  52.989  1.00  0.00     0.278 C 
BRANCH  15  16
HETATM   16  O2  UNL     1      22.743   1.717  52.218  1.00  0.00    -0.342 OA
BRANCH  16  17
HETATM   17  C3  UNL     1      22.478   1.697  50.865  1.00  0.00     0.069 A 
HETATM   18  C4  UNL     1      23.267   2.573  50.153  1.00  0.00     0.037 A 
HETATM   19  C5  UNL     1      23.148   2.698  48.777  1.00  0.00     0.003 A 
HETATM   20  C6  UNL     1      22.223   1.933  48.097  1.00  0.00     0.000 A 
HETATM   21  C7  UNL     1      21.433   1.056  48.802  1.00  0.00     0.003 A 
HETATM   22  C8  UNL     1      21.541   0.921  50.179  1.00  0.00     0.037 A 
ENDBRANCH  16  17
ENDBRANCH  15  16
ENDBRANCH   2  15
TORSDOF 4
ENDMDL
MODEL 8
REMARK VINA RESULT:      -7.0      3.592      5.800
REMARK  4 active torsions:
REMARK  status: ('A' for Active; 'I' for Inactive)
REMARK    1  A    between atoms: C1_2  and  C2_3 
REMARK       I    between atoms: C1_2  and  N1_11 
REMARK    2  A    between atoms: C2_3  and  O2_4 
REMARK    3  A    between atoms: O2_4  and  C3_5 
REMARK    4  A    between atoms: N1_11  and  C9_12 
ROOT
HETATM    1  O1  UNL     1      23.918   3.337  52.851  1.00  0.00    -0.271 OA
HETATM    2  C1  UNL     1      23.611   2.342  52.163  1.00  0.00     0.246 C 
HETATM    3  N1  UNL     1      24.400   1.186  52.217  1.00  0.00    -0.327 N 
HETATM    4  H8  UNL     1      23.958   0.486  51.564  1.00  0.00     0.168 HD
ENDROOT
BRANCH   3   5
HETATM    5  C9  UNL     1      25.565   0.841  52.929  1.00  0.00     0.035 C 
HETATM    6  C10 UNL     1      25.374   0.322  54.134  1.00  0.00     0.029 C 
HETATM    7  C11 UNL     1      26.554   0.093  55.014  1.00  0.00     0.029 C 
HETATM    8  C12 UNL     1      27.624   0.503  54.299  1.00  0.00     0.038 C 
HETATM    9  C13 UNL     1      27.790   0.017  52.858  1.00  0.00     0.090 C 
HETATM   10  N3  UNL     1      28.723   1.435  54.574  1.00  0.00    -0.249 NA
HETATM   11  C14 UNL     1      26.862   1.110  52.230  1.00  0.00     0.138 C 
HETATM   12  N2  UNL     1      27.508   2.348  52.717  1.00  0.00    -0.374 N 
HETATM   13  C15 UNL     1      28.628   2.437  53.664  1.00  0.00     0.203 C 
HETATM   14  H14 UNL     1      27.218   3.326  52.424  1.00  0.00     0.161 HD
ENDBRANCH   3   5
BRANCH   2  15
HETATM   15  C2  UNL     1      22.389   2.583  51.360  1.00  0.00     0.278 C 
BRANCH  15  16
HETATM   16  O2  UNL     1      21.318   2.593  52.317  1.00  0.00    -0.342 OA
BRANCH  16  17
HETATM   17  C3  UNL     1      20.535   1.476  52.523  1.00  0.00     0.069 A 
HETATM   18  C4  UNL     1      20.968   0.708  53.580  1.00  0.00     0.037 A 
HETATM   19  C5  UNL     1      20.309  -0.457  53.943  1.00  0.00     0.003 A 
HETATM   20  C6  UNL     1      19.196  -0.864  53.237  1.00  0.00     0.000 A 
HETATM   21  C7  UNL     1      18.759  -0.100  52.181  1.00  0.00     0.003 A 
HETATM   22  C8  UNL     1      19.408   1.068  51.806  1.00  0.00     0.037 A 
ENDBRANCH  16  17
ENDBRANCH  15  16
ENDBRANCH   2  15
TORSDOF 4
ENDMDL
MODEL 9
REMARK VINA RESULT:      -6.9      2.606      7.343
REMARK  4 active torsions:
REMARK  status: ('A' for Active; 'I' for Inactive)
REMARK    1  A    between atoms: C1_2  and  C2_3 
REMARK       I    between atoms: C1_2  and  N1_11 
REMARK    2  A    between atoms: C2_3  and  O2_4 
REMARK    3  A    between atoms: O2_4  and  C3_5 
REMARK    4  A    between atoms: N1_11  and  C9_12 
ROOT
HETATM    1  O1  UNL     1      24.045   4.135  49.080  1.00  0.00    -0.271 OA
HETATM    2  C1  UNL     1      24.874   3.905  49.985  1.00  0.00     0.246 C 
HETATM    3  N1  UNL     1      26.029   4.690  50.089  1.00  0.00    -0.327 N 
HETATM    4  H8  UNL     1      26.575   4.319  50.912  1.00  0.00     0.168 HD
ENDROOT
BRANCH   3   5
HETATM    5  C9  UNL     1      26.529   5.780  49.352  1.00  0.00     0.035 C 
HETATM    6  C10 UNL     1      27.572   5.522  48.575  1.00  0.00     0.029 C 
HETATM    7  C11 UNL     1      28.262   6.656  47.898  1.00  0.00     0.029 C 
HETATM    8  C12 UNL     1      27.591   7.766  48.275  1.00  0.00     0.038 C 
HETATM    9  C13 UNL     1      26.064   7.785  48.170  1.00  0.00     0.090 C 
HETATM   10  N3  UNL     1      28.004   9.040  48.872  1.00  0.00    -0.249 NA
HETATM   11  C14 UNL     1      25.817   7.084  49.548  1.00  0.00     0.138 C 
HETATM   12  N2  UNL     1      26.551   7.984  50.463  1.00  0.00    -0.374 N 
HETATM   13  C15 UNL     1      27.393   9.126  50.081  1.00  0.00     0.203 C 
HETATM   14  H14 UNL     1      26.544   7.892  51.521  1.00  0.00     0.161 HD
ENDBRANCH   3   5
BRANCH   2  15
HETATM   15  C2  UNL     1      24.457   2.767  50.838  1.00  0.00     0.278 C 
BRANCH  15  16
HETATM   16  O2  UNL     1      25.313   2.837  51.988  1.00  0.00    -0.342 OA
BRANCH  16  17
HETATM   17  C3  UNL     1      25.447   1.765  52.844  1.00  0.00     0.069 A 
HETATM   18  C4  UNL     1      24.513   0.779  52.615  1.00  0.00     0.037 A 
HETATM   19  C5  UNL     1      24.486  -0.380  53.376  1.00  0.00     0.003 A 
HETATM   20  C6  UNL     1      25.409  -0.561  54.385  1.00  0.00     0.000 A 
HETATM   21  C7  UNL     1      26.344   0.420  54.617  1.00  0.00     0.003 A 
HETATM   22  C8  UNL     1      26.384   1.586  53.865  1.00  0.00     0.037 A 
ENDBRANCH  16  17
ENDBRANCH  15  16
ENDBRANCH   2  15
TORSDOF 4
ENDMDL
