MODEL 1
REMARK VINA RESULT:      -8.4      0.000      0.000
REMARK  6 active torsions:
REMARK  status: ('A' for Active; 'I' for Inactive)
REMARK    1  A    between atoms: C12_17  and  C13_18 
REMARK    2  A    between atoms: C13_18  and  O1_19 
REMARK    3  A    between atoms: C13_18  and  C14_20 
REMARK    4  A    between atoms: C15_21  and  C16_22 
REMARK    5  A    between atoms: N4_24  and  C18_25 
REMARK    6  A    between atoms: C18_25  and  C19_26 
ROOT
HETATM    1  N1  UNL     1      27.250  10.281  49.291  1.00  0.00    -0.191 NA
HETATM    2  C1  UNL     1      27.330   9.133  49.145  1.00  0.00     0.103 C 
HETATM    3  C2  UNL     1      27.446   7.697  48.943  1.00  0.00     0.089 A 
HETATM    4  C3  UNL     1      28.511   7.114  48.283  1.00  0.00     0.141 A 
HETATM    5  N2  UNL     1      28.565   5.769  48.128  1.00  0.00    -0.271 NA
HETATM    6  C4  UNL     1      27.602   4.936  48.597  1.00  0.00     0.130 A 
HETATM    7  C5  UNL     1      26.524   5.483  49.260  1.00  0.00     0.010 A 
HETATM    8  C6  UNL     1      26.442   6.851  49.434  1.00  0.00     0.067 A 
HETATM    9  N3  UNL     1      25.435   7.662  50.068  1.00  0.00    -0.354 N 
HETATM   10  C7  UNL     1      24.051   7.255  50.144  1.00  0.00     0.044 A 
HETATM   11  C8  UNL     1      23.042   8.123  50.184  1.00  0.00     0.046 A 
HETATM   12  C9  UNL     1      21.790   7.336  50.255  1.00  0.00     0.241 A 
HETATM   13  F1  UNL     1      21.063   7.568  51.392  1.00  0.00    -0.239 F 
HETATM   14  C10 UNL     1      22.234   5.933  50.242  1.00  0.00     0.062 A 
HETATM   15 CL1  UNL     1      21.127   4.613  50.281  1.00  0.00    -0.085 Cl
HETATM   16  C11 UNL     1      23.551   5.874  50.180  1.00  0.00     0.020 A 
HETATM   17  C12 UNL     1      24.261   4.602  50.166  1.00  0.00    -0.011 C 
HETATM   18  C20 UNL     1      25.538   4.540  49.750  1.00  0.00     0.026 C 
HETATM   19  H3  UNL     1      25.695   8.575  50.484  1.00  0.00     0.166 HD
ENDROOT
BRANCH  17  20
HETATM   20  C13 UNL     1      23.601   3.369  50.641  1.00  0.00     0.175 C 
BRANCH  20  21
HETATM   21  O1  UNL     1      23.598   2.511  49.495  1.00  0.00    -0.387 OA
HETATM   22  H7  UNL     1      24.283   2.804  48.870  1.00  0.00     0.210 HD
ENDBRANCH  20  21
BRANCH  20  23
HETATM   23  C14 UNL     1      24.371   2.580  51.602  1.00  0.00     0.012 C 
HETATM   24  C15 UNL     1      24.607   2.367  52.877  1.00  0.00     0.033 C 
BRANCH  24  25
HETATM   25  C16 UNL     1      25.515   1.422  53.469  1.00  0.00     0.091 A 
HETATM   26  C17 UNL     1      26.854   1.541  53.760  1.00  0.00     0.141 A 
HETATM   27  N4  UNL     1      27.194   0.350  54.303  1.00  0.00    -0.281 N 
HETATM   28  N5  UNL     1      26.117  -0.444  54.336  1.00  0.00     0.005 NA
HETATM   29  N6  UNL     1      25.083   0.205  53.826  1.00  0.00    -0.159 NA
BRANCH  27  30
HETATM   30  C18 UNL     1      28.558   0.110  54.741  1.00  0.00     0.177 C 
BRANCH  30  31
HETATM   31  C19 UNL     1      29.346  -0.725  53.750  1.00  0.00     0.243 C 
HETATM   32  F2  UNL     1      30.482  -0.041  53.365  1.00  0.00    -0.254 F 
ENDBRANCH  30  31
ENDBRANCH  27  30
ENDBRANCH  24  25
ENDBRANCH  20  23
ENDBRANCH  17  20
TORSDOF 6
ENDMDL
MODEL 2
REMARK VINA RESULT:      -8.3      2.832      7.089
REMARK  6 active torsions:
REMARK  status: ('A' for Active; 'I' for Inactive)
REMARK    1  A    between atoms: C12_17  and  C13_18 
REMARK    2  A    between atoms: C13_18  and  O1_19 
REMARK    3  A    between atoms: C13_18  and  C14_20 
REMARK    4  A    between atoms: C15_21  and  C16_22 
REMARK    5  A    between atoms: N4_24  and  C18_25 
REMARK    6  A    between atoms: C18_25  and  C19_26 
ROOT
HETATM    1  N1  UNL     1      22.278  -1.630  53.323  1.00  0.00    -0.191 NA
HETATM    2  C1  UNL     1      23.087  -0.801  53.359  1.00  0.00     0.103 C 
HETATM    3  C2  UNL     1      24.113   0.230  53.424  1.00  0.00     0.089 A 
HETATM    4  C3  UNL     1      25.295   0.071  54.122  1.00  0.00     0.141 A 
HETATM    5  N2  UNL     1      26.214   1.067  54.144  1.00  0.00    -0.271 NA
HETATM    6  C4  UNL     1      26.033   2.247  53.501  1.00  0.00     0.130 A 
HETATM    7  C5  UNL     1      24.865   2.441  52.795  1.00  0.00     0.010 A 
HETATM    8  C6  UNL     1      23.910   1.443  52.754  1.00  0.00     0.067 A 
HETATM    9  N3  UNL     1      22.622   1.397  52.111  1.00  0.00    -0.354 N 
HETATM   10  C7  UNL     1      21.842   2.587  51.859  1.00  0.00     0.044 A 
HETATM   11  C8  UNL     1      20.511   2.583  51.809  1.00  0.00     0.046 A 
HETATM   12  C9  UNL     1      20.079   3.972  51.536  1.00  0.00     0.241 A 
HETATM   13  F1  UNL     1      19.386   4.108  50.364  1.00  0.00    -0.239 F 
HETATM   14  C10 UNL     1      21.332   4.739  51.449  1.00  0.00     0.062 A 
HETATM   15 CL1  UNL     1      21.358   6.439  51.169  1.00  0.00    -0.085 Cl
HETATM   16  C11 UNL     1      22.367   3.940  51.633  1.00  0.00     0.020 A 
HETATM   17  C12 UNL     1      23.736   4.437  51.587  1.00  0.00    -0.011 C 
HETATM   18  C20 UNL     1      24.739   3.716  52.117  1.00  0.00     0.026 C 
HETATM   19  H3  UNL     1      22.225   0.487  51.817  1.00  0.00     0.166 HD
ENDROOT
BRANCH  17  20
HETATM   20  C13 UNL     1      24.046   5.721  50.927  1.00  0.00     0.175 C 
BRANCH  20  21
HETATM   21  O1  UNL     1      24.341   6.608  52.012  1.00  0.00    -0.387 OA
HETATM   22  H7  UNL     1      23.511   6.950  52.385  1.00  0.00     0.210 HD
ENDBRANCH  20  21
BRANCH  20  23
HETATM   23  C14 UNL     1      25.298   5.747  50.171  1.00  0.00     0.012 C 
HETATM   24  C15 UNL     1      25.842   5.615  48.983  1.00  0.00     0.033 C 
BRANCH  24  25
HETATM   25  C16 UNL     1      27.229   5.724  48.621  1.00  0.00     0.091 A 
HETATM   26  C17 UNL     1      27.961   6.822  48.233  1.00  0.00     0.141 A 
HETATM   27  N4  UNL     1      29.208   6.345  48.018  1.00  0.00    -0.281 N 
HETATM   28  N5  UNL     1      29.225   5.030  48.263  1.00  0.00     0.005 NA
HETATM   29  N6  UNL     1      28.016   4.640  48.634  1.00  0.00    -0.159 NA
BRANCH  27  30
HETATM   30  C18 UNL     1      30.268   7.240  47.590  1.00  0.00     0.177 C 
BRANCH  30  31
HETATM   31  C19 UNL     1      31.464   7.209  48.522  1.00  0.00     0.243 C 
HETATM   32  F2  UNL     1      31.206   7.982  49.637  1.00  0.00    -0.254 F 
ENDBRANCH  30  31
ENDBRANCH  27  30
ENDBRANCH  24  25
ENDBRANCH  20  23
ENDBRANCH  17  20
TORSDOF 6
ENDMDL
MODEL 3
REMARK VINA RESULT:      -8.2      3.060      7.697
REMARK  6 active torsions:
REMARK  status: ('A' for Active; 'I' for Inactive)
REMARK    1  A    between atoms: C12_17  and  C13_18 
REMARK    2  A    between atoms: C13_18  and  O1_19 
REMARK    3  A    between atoms: C13_18  and  C14_20 
REMARK    4  A    between atoms: C15_21  and  C16_22 
REMARK    5  A    between atoms: N4_24  and  C18_25 
REMARK    6  A    between atoms: C18_25  and  C19_26 
ROOT
HETATM    1  N1  UNL     1      28.411  -2.877  53.126  1.00  0.00    -0.191 NA
HETATM    2  C1  UNL     1      28.392  -1.726  53.264  1.00  0.00     0.103 C 
HETATM    3  C2  UNL     1      28.388  -0.283  53.453  1.00  0.00     0.089 A 
HETATM    4  C3  UNL     1      29.481   0.417  53.928  1.00  0.00     0.141 A 
HETATM    5  N2  UNL     1      29.417   1.762  54.080  1.00  0.00    -0.271 NA
HETATM    6  C4  UNL     1      28.307   2.483  53.784  1.00  0.00     0.130 A 
HETATM    7  C5  UNL     1      27.197   1.818  53.307  1.00  0.00     0.010 A 
HETATM    8  C6  UNL     1      27.233   0.446  53.142  1.00  0.00     0.067 A 
HETATM    9  N3  UNL     1      26.225  -0.473  52.680  1.00  0.00    -0.354 N 
HETATM   10  C7  UNL     1      24.813  -0.215  52.840  1.00  0.00     0.044 A 
HETATM   11  C8  UNL     1      23.908  -1.185  52.964  1.00  0.00     0.046 A 
HETATM   12  C9  UNL     1      22.586  -0.535  53.109  1.00  0.00     0.241 A 
HETATM   13  F1  UNL     1      21.708  -0.856  52.108  1.00  0.00    -0.239 F 
HETATM   14  C10 UNL     1      22.875   0.907  53.055  1.00  0.00     0.062 A 
HETATM   15 CL1  UNL     1      21.644   2.103  53.211  1.00  0.00    -0.085 Cl
HETATM   16  C11 UNL     1      24.171   1.106  52.896  1.00  0.00     0.020 A 
HETATM   17  C12 UNL     1      24.734   2.445  52.799  1.00  0.00    -0.011 C 
HETATM   18  C20 UNL     1      26.049   2.646  52.995  1.00  0.00     0.026 C 
HETATM   19  H3  UNL     1      26.506  -1.359  52.221  1.00  0.00     0.166 HD
ENDROOT
BRANCH  17  20
HETATM   20  C13 UNL     1      23.877   3.596  52.448  1.00  0.00     0.175 C 
BRANCH  20  21
HETATM   21  O1  UNL     1      24.066   4.513  53.532  1.00  0.00    -0.387 OA
HETATM   22  H7  UNL     1      23.262   4.539  54.078  1.00  0.00     0.210 HD
ENDBRANCH  20  21
BRANCH  20  23
HETATM   23  C14 UNL     1      24.332   4.387  51.305  1.00  0.00     0.012 C 
HETATM   24  C15 UNL     1      24.521   4.390  50.005  1.00  0.00     0.033 C 
BRANCH  24  25
HETATM   25  C16 UNL     1      25.030   5.454  49.182  1.00  0.00     0.091 A 
HETATM   26  C17 UNL     1      26.326   5.854  48.952  1.00  0.00     0.141 A 
HETATM   27  N4  UNL     1      26.216   6.899  48.100  1.00  0.00    -0.281 N 
HETATM   28  N5  UNL     1      24.923   7.116  47.832  1.00  0.00     0.005 NA
HETATM   29  N6  UNL     1      24.189   6.234  48.492  1.00  0.00    -0.159 NA
BRANCH  27  30
HETATM   30  C18 UNL     1      27.406   7.585  47.629  1.00  0.00     0.177 C 
BRANCH  30  31
HETATM   31  C19 UNL     1      28.675   7.044  48.259  1.00  0.00     0.243 C 
HETATM   32  F2  UNL     1      29.206   6.052  47.458  1.00  0.00    -0.254 F 
ENDBRANCH  30  31
ENDBRANCH  27  30
ENDBRANCH  24  25
ENDBRANCH  20  23
ENDBRANCH  17  20
TORSDOF 6
ENDMDL
MODEL 4
REMARK VINA RESULT:      -7.9      5.688      8.461
REMARK  6 active torsions:
REMARK  status: ('A' for Active; 'I' for Inactive)
REMARK    1  A    between atoms: C12_17  and  C13_18 
REMARK    2  A    between atoms: C13_18  and  O1_19 
REMARK    3  A    between atoms: C13_18  and  C14_20 
REMARK    4  A    between atoms: C15_21  and  C16_22 
REMARK    5  A    between atoms: N4_24  and  C18_25 
REMARK    6  A    between atoms: C18_25  and  C19_26 
ROOT
HETATM    1  N1  UNL     1      26.116   4.410  49.552  1.00  0.00    -0.191 NA
HETATM    2  C1  UNL     1      25.083   4.380  50.077  1.00  0.00     0.103 C 
HETATM    3  C2  UNL     1      23.786   4.369  50.738  1.00  0.00     0.089 A 
HETATM    4  C3  UNL     1      22.944   5.463  50.760  1.00  0.00     0.141 A 
HETATM    5  N2  UNL     1      21.746   5.391  51.390  1.00  0.00    -0.271 NA
HETATM    6  C4  UNL     1      21.315   4.270  52.020  1.00  0.00     0.130 A 
HETATM    7  C5  UNL     1      22.129   3.158  52.019  1.00  0.00     0.010 A 
HETATM    8  C6  UNL     1      23.356   3.203  51.385  1.00  0.00     0.067 A 
HETATM    9  N3  UNL     1      24.384   2.202  51.250  1.00  0.00    -0.354 N 
HETATM   10  C7  UNL     1      24.575   1.155  52.226  1.00  0.00     0.044 A 
HETATM   11  C8  UNL     1      25.759   0.594  52.463  1.00  0.00     0.046 A 
HETATM   12  C9  UNL     1      25.558  -0.424  53.519  1.00  0.00     0.241 A 
HETATM   13  F1  UNL     1      25.864  -1.696  53.116  1.00  0.00    -0.239 F 
HETATM   14  C10 UNL     1      24.123  -0.349  53.837  1.00  0.00     0.062 A 
HETATM   15 CL1  UNL     1      23.390  -1.333  55.046  1.00  0.00    -0.085 Cl
HETATM   16  C11 UNL     1      23.539   0.568  53.086  1.00  0.00     0.020 A 
HETATM   17  C12 UNL     1      22.112   0.844  53.185  1.00  0.00    -0.011 C 
HETATM   18  C20 UNL     1      21.605   1.989  52.696  1.00  0.00     0.026 C 
HETATM   19  H3  UNL     1      25.020   2.224  50.432  1.00  0.00     0.166 HD
ENDROOT
BRANCH  17  20
HETATM   20  C13 UNL     1      21.198  -0.145  53.791  1.00  0.00     0.175 C 
BRANCH  20  21
HETATM   21  O1  UNL     1      20.766   0.479  55.006  1.00  0.00    -0.387 OA
HETATM   22  H7  UNL     1      21.130  -0.006  55.766  1.00  0.00     0.210 HD
ENDBRANCH  20  21
BRANCH  20  23
HETATM   23  C14 UNL     1      19.930  -0.335  53.087  1.00  0.00     0.012 C 
HETATM   24  C15 UNL     1      18.736  -0.881  53.146  1.00  0.00     0.033 C 
BRANCH  24  25
HETATM   25  C16 UNL     1      17.686  -0.835  52.164  1.00  0.00     0.091 A 
HETATM   26  C17 UNL     1      17.643  -0.205  50.942  1.00  0.00     0.141 A 
HETATM   27  N4  UNL     1      16.419  -0.499  50.448  1.00  0.00    -0.281 N 
HETATM   28  N5  UNL     1      15.760  -1.264  51.327  1.00  0.00     0.005 NA
HETATM   29  N6  UNL     1      16.530  -1.476  52.382  1.00  0.00    -0.159 NA
BRANCH  27  30
HETATM   30  C18 UNL     1      16.015   0.006  49.148  1.00  0.00     0.177 C 
BRANCH  30  31
HETATM   31  C19 UNL     1      15.252  -1.024  48.338  1.00  0.00     0.243 C 
HETATM   32  F2  UNL     1      16.087  -2.076  48.018  1.00  0.00    -0.254 F 
ENDBRANCH  30  31
ENDBRANCH  27  30
ENDBRANCH  24  25
ENDBRANCH  20  23
ENDBRANCH  17  20
TORSDOF 6
ENDMDL
MODEL 5
REMARK VINA RESULT:      -7.5      6.405      9.963
REMARK  6 active torsions:
REMARK  status: ('A' for Active; 'I' for Inactive)
REMARK    1  A    between atoms: C12_17  and  C13_18 
REMARK    2  A    between atoms: C13_18  and  O1_19 
REMARK    3  A    between atoms: C13_18  and  C14_20 
REMARK    4  A    between atoms: C15_21  and  C16_22 
REMARK    5  A    between atoms: N4_24  and  C18_25 
REMARK    6  A    between atoms: C18_25  and  C19_26 
ROOT
HETATM    1  N1  UNL     1      34.195   3.441  40.801  1.00  0.00    -0.191 NA
HETATM    2  C1  UNL     1      33.756   4.416  41.250  1.00  0.00     0.103 C 
HETATM    3  C2  UNL     1      33.211   5.651  41.793  1.00  0.00     0.089 A 
HETATM    4  C3  UNL     1      32.878   6.736  41.005  1.00  0.00     0.141 A 
HETATM    5  N2  UNL     1      32.371   7.860  41.569  1.00  0.00    -0.271 NA
HETATM    6  C4  UNL     1      32.167   7.983  42.904  1.00  0.00     0.130 A 
HETATM    7  C5  UNL     1      32.487   6.921  43.721  1.00  0.00     0.010 A 
HETATM    8  C6  UNL     1      33.006   5.762  43.174  1.00  0.00     0.067 A 
HETATM    9  N3  UNL     1      33.427   4.533  43.796  1.00  0.00    -0.354 N 
HETATM   10  C7  UNL     1      33.917   4.483  45.154  1.00  0.00     0.044 A 
HETATM   11  C8  UNL     1      34.797   3.577  45.574  1.00  0.00     0.046 A 
HETATM   12  C9  UNL     1      35.055   3.846  47.007  1.00  0.00     0.241 A 
HETATM   13  F1  UNL     1      34.707   2.808  47.828  1.00  0.00    -0.239 F 
HETATM   14  C10 UNL     1      34.214   5.013  47.320  1.00  0.00     0.062 A 
HETATM   15 CL1  UNL     1      34.185   5.738  48.883  1.00  0.00    -0.085 Cl
HETATM   16  C11 UNL     1      33.544   5.392  46.247  1.00  0.00     0.020 A 
HETATM   17  C12 UNL     1      32.623   6.520  46.278  1.00  0.00    -0.011 C 
HETATM   18  C20 UNL     1      32.231   7.109  45.135  1.00  0.00     0.026 C 
HETATM   19  H3  UNL     1      33.389   3.646  43.263  1.00  0.00     0.166 HD
ENDROOT
BRANCH  17  20
HETATM   20  C13 UNL     1      32.080   7.010  47.561  1.00  0.00     0.175 C 
BRANCH  20  21
HETATM   21  O1  UNL     1      31.854   8.406  47.333  1.00  0.00    -0.387 OA
HETATM   22  H7  UNL     1      32.669   8.900  47.522  1.00  0.00     0.210 HD
ENDBRANCH  20  21
BRANCH  20  23
HETATM   23  C14 UNL     1      30.734   6.539  47.888  1.00  0.00     0.012 C 
HETATM   24  C15 UNL     1      29.448   6.743  47.707  1.00  0.00     0.033 C 
BRANCH  24  25
HETATM   25  C16 UNL     1      28.344   5.997  48.247  1.00  0.00     0.091 A 
HETATM   26  C17 UNL     1      27.066   6.402  48.553  1.00  0.00     0.141 A 
HETATM   27  N4  UNL     1      26.458   5.290  49.026  1.00  0.00    -0.281 N 
HETATM   28  N5  UNL     1      27.325   4.271  49.007  1.00  0.00     0.005 NA
HETATM   29  N6  UNL     1      28.485   4.695  48.530  1.00  0.00    -0.159 NA
BRANCH  27  30
HETATM   30  C18 UNL     1      25.071   5.341  49.453  1.00  0.00     0.177 C 
BRANCH  30  31
HETATM   31  C19 UNL     1      24.675   4.133  50.281  1.00  0.00     0.243 C 
HETATM   32  F2  UNL     1      24.326   3.090  49.445  1.00  0.00    -0.254 F 
ENDBRANCH  30  31
ENDBRANCH  27  30
ENDBRANCH  24  25
ENDBRANCH  20  23
ENDBRANCH  17  20
TORSDOF 6
ENDMDL
MODEL 6
REMARK VINA RESULT:      -7.4      5.241      8.726
REMARK  6 active torsions:
REMARK  status: ('A' for Active; 'I' for Inactive)
REMARK    1  A    between atoms: C12_17  and  C13_18 
REMARK    2  A    between atoms: C13_18  and  O1_19 
REMARK    3  A    between atoms: C13_18  and  C14_20 
REMARK    4  A    between atoms: C15_21  and  C16_22 
REMARK    5  A    between atoms: N4_24  and  C18_25 
REMARK    6  A    between atoms: C18_25  and  C19_26 
ROOT
HETATM    1  N1  UNL     1      26.682   1.785  54.195  1.00  0.00    -0.191 NA
HETATM    2  C1  UNL     1      25.687   1.313  53.831  1.00  0.00     0.103 C 
HETATM    3  C2  UNL     1      24.447   0.698  53.381  1.00  0.00     0.089 A 
HETATM    4  C3  UNL     1      24.014  -0.535  53.829  1.00  0.00     0.141 A 
HETATM    5  N2  UNL     1      22.848  -1.056  53.375  1.00  0.00    -0.271 NA
HETATM    6  C4  UNL     1      22.058  -0.415  52.477  1.00  0.00     0.130 A 
HETATM    7  C5  UNL     1      22.459   0.818  52.008  1.00  0.00     0.010 A 
HETATM    8  C6  UNL     1      23.643   1.374  52.454  1.00  0.00     0.067 A 
HETATM    9  N3  UNL     1      24.284   2.619  52.119  1.00  0.00    -0.354 N 
HETATM   10  C7  UNL     1      24.100   3.263  50.838  1.00  0.00     0.044 A 
HETATM   11  C8  UNL     1      25.027   4.036  50.276  1.00  0.00     0.046 A 
HETATM   12  C9  UNL     1      24.480   4.507  48.983  1.00  0.00     0.241 A 
HETATM   13  F1  UNL     1      24.355   5.868  48.906  1.00  0.00    -0.239 F 
HETATM   14  C10 UNL     1      23.145   3.893  48.902  1.00  0.00     0.062 A 
HETATM   15 CL1  UNL     1      22.105   4.118  47.547  1.00  0.00    -0.085 Cl
HETATM   16  C11 UNL     1      22.911   3.167  49.980  1.00  0.00     0.020 A 
HETATM   17  C12 UNL     1      21.654   2.454  50.166  1.00  0.00    -0.011 C 
HETATM   18  C20 UNL     1      21.565   1.458  51.064  1.00  0.00     0.026 C 
HETATM   19  H3  UNL     1      24.907   3.080  52.806  1.00  0.00     0.166 HD
ENDROOT
BRANCH  17  20
HETATM   20  C13 UNL     1      20.453   2.840  49.399  1.00  0.00     0.175 C 
BRANCH  20  21
HETATM   21  O1  UNL     1      20.160   1.684  48.606  1.00  0.00    -0.387 OA
HETATM   22  H7  UNL     1      19.264   1.763  48.237  1.00  0.00     0.210 HD
ENDBRANCH  20  21
BRANCH  20  23
HETATM   23  C14 UNL     1      19.228   2.978  50.187  1.00  0.00     0.012 C 
HETATM   24  C15 UNL     1      18.448   3.821  50.826  1.00  0.00     0.033 C 
BRANCH  24  25
HETATM   25  C16 UNL     1      17.229   3.542  51.535  1.00  0.00     0.091 A 
HETATM   26  C17 UNL     1      16.443   2.413  51.538  1.00  0.00     0.141 A 
HETATM   27  N4  UNL     1      15.426   2.704  52.381  1.00  0.00    -0.281 N 
HETATM   28  N5  UNL     1      15.591   3.944  52.858  1.00  0.00     0.005 NA
HETATM   29  N6  UNL     1      16.694   4.465  52.345  1.00  0.00    -0.159 NA
BRANCH  27  30
HETATM   30  C18 UNL     1      14.385   1.725  52.635  1.00  0.00     0.177 C 
BRANCH  30  31
HETATM   31  C19 UNL     1      13.204   2.316  53.381  1.00  0.00     0.243 C 
HETATM   32  F2  UNL     1      12.401   3.017  52.502  1.00  0.00    -0.254 F 
ENDBRANCH  30  31
ENDBRANCH  27  30
ENDBRANCH  24  25
ENDBRANCH  20  23
ENDBRANCH  17  20
TORSDOF 6
ENDMDL
MODEL 7
REMARK VINA RESULT:      -7.3      6.043      9.514
REMARK  6 active torsions:
REMARK  status: ('A' for Active; 'I' for Inactive)
REMARK    1  A    between atoms: C12_17  and  C13_18 
REMARK    2  A    between atoms: C13_18  and  O1_19 
REMARK    3  A    between atoms: C13_18  and  C14_20 
REMARK    4  A    between atoms: C15_21  and  C16_22 
REMARK    5  A    between atoms: N4_24  and  C18_25 
REMARK    6  A    between atoms: C18_25  and  C19_26 
ROOT
HETATM    1  N1  UNL     1      24.767   9.367  48.371  1.00  0.00    -0.191 NA
HETATM    2  C1  UNL     1      25.310   8.347  48.461  1.00  0.00     0.103 C 
HETATM    3  C2  UNL     1      25.973   7.057  48.587  1.00  0.00     0.089 A 
HETATM    4  C3  UNL     1      25.307   5.901  48.946  1.00  0.00     0.141 A 
HETATM    5  N2  UNL     1      25.978   4.728  49.044  1.00  0.00    -0.271 NA
HETATM    6  C4  UNL     1      27.309   4.622  48.805  1.00  0.00     0.130 A 
HETATM    7  C5  UNL     1      28.007   5.755  48.444  1.00  0.00     0.010 A 
HETATM    8  C6  UNL     1      27.348   6.965  48.336  1.00  0.00     0.067 A 
HETATM    9  N3  UNL     1      27.837   8.276  47.994  1.00  0.00    -0.354 N 
HETATM   10  C7  UNL     1      29.198   8.685  48.251  1.00  0.00     0.044 A 
HETATM   11  C8  UNL     1      29.543   9.949  48.487  1.00  0.00     0.046 A 
HETATM   12  C9  UNL     1      31.008   9.970  48.705  1.00  0.00     0.241 A 
HETATM   13  F1  UNL     1      31.685  10.731  47.791  1.00  0.00    -0.239 F 
HETATM   14  C10 UNL     1      31.422   8.565  48.568  1.00  0.00     0.062 A 
HETATM   15 CL1  UNL     1      33.057   8.060  48.767  1.00  0.00    -0.085 Cl
HETATM   16  C11 UNL     1      30.375   7.806  48.300  1.00  0.00     0.020 A 
HETATM   17  C12 UNL     1      30.502   6.368  48.102  1.00  0.00    -0.011 C 
HETATM   18  C20 UNL     1      29.422   5.573  48.187  1.00  0.00     0.026 C 
HETATM   19  H3  UNL     1      27.200   8.965  47.553  1.00  0.00     0.166 HD
ENDROOT
BRANCH  17  20
HETATM   20  C13 UNL     1      31.810   5.770  47.770  1.00  0.00     0.175 C 
BRANCH  20  21
HETATM   21  O1  UNL     1      31.632   4.374  48.037  1.00  0.00    -0.387 OA
HETATM   22  H7  UNL     1      30.702   4.132  47.889  1.00  0.00     0.210 HD
ENDBRANCH  20  21
BRANCH  20  23
HETATM   23  C14 UNL     1      32.148   5.760  46.347  1.00  0.00     0.012 C 
HETATM   24  C15 UNL     1      32.433   6.504  45.302  1.00  0.00     0.033 C 
BRANCH  24  25
HETATM   25  C16 UNL     1      32.731   6.080  43.961  1.00  0.00     0.091 A 
HETATM   26  C17 UNL     1      33.227   4.883  43.500  1.00  0.00     0.141 A 
HETATM   27  N4  UNL     1      33.307   5.038  42.159  1.00  0.00    -0.281 N 
HETATM   28  N5  UNL     1      32.881   6.264  41.831  1.00  0.00     0.005 NA
HETATM   29  N6  UNL     1      32.526   6.910  42.930  1.00  0.00    -0.159 NA
BRANCH  27  30
HETATM   30  C18 UNL     1      33.796   3.955  41.325  1.00  0.00     0.177 C 
BRANCH  30  31
HETATM   31  C19 UNL     1      32.776   3.508  40.297  1.00  0.00     0.243 C 
HETATM   32  F2  UNL     1      32.295   2.257  40.630  1.00  0.00    -0.254 F 
ENDBRANCH  30  31
ENDBRANCH  27  30
ENDBRANCH  24  25
ENDBRANCH  20  23
ENDBRANCH  17  20
TORSDOF 6
ENDMDL
MODEL 8
REMARK VINA RESULT:      -7.1      4.866      7.975
REMARK  6 active torsions:
REMARK  status: ('A' for Active; 'I' for Inactive)
REMARK    1  A    between atoms: C12_17  and  C13_18 
REMARK    2  A    between atoms: C13_18  and  O1_19 
REMARK    3  A    between atoms: C13_18  and  C14_20 
REMARK    4  A    between atoms: C15_21  and  C16_22 
REMARK    5  A    between atoms: N4_24  and  C18_25 
REMARK    6  A    between atoms: C18_25  and  C19_26 
ROOT
HETATM    1  N1  UNL     1      30.870   5.105  48.451  1.00  0.00    -0.191 NA
HETATM    2  C1  UNL     1      29.994   5.838  48.257  1.00  0.00     0.103 C 
HETATM    3  C2  UNL     1      28.910   6.779  48.015  1.00  0.00     0.089 A 
HETATM    4  C3  UNL     1      29.121   8.081  47.603  1.00  0.00     0.141 A 
HETATM    5  N2  UNL     1      28.070   8.910  47.392  1.00  0.00    -0.271 NA
HETATM    6  C4  UNL     1      26.782   8.522  47.567  1.00  0.00     0.130 A 
HETATM    7  C5  UNL     1      26.533   7.229  47.977  1.00  0.00     0.010 A 
HETATM    8  C6  UNL     1      27.585   6.362  48.201  1.00  0.00     0.067 A 
HETATM    9  N3  UNL     1      27.598   4.989  48.637  1.00  0.00    -0.354 N 
HETATM   10  C7  UNL     1      26.553   4.432  49.464  1.00  0.00     0.044 A 
HETATM   11  C8  UNL     1      26.762   3.434  50.321  1.00  0.00     0.046 A 
HETATM   12  C9  UNL     1      25.469   3.145  50.981  1.00  0.00     0.241 A 
HETATM   13  F1  UNL     1      25.014   1.873  50.755  1.00  0.00    -0.239 F 
HETATM   14  C10 UNL     1      24.528   4.107  50.387  1.00  0.00     0.062 A 
HETATM   15 CL1  UNL     1      22.872   4.191  50.856  1.00  0.00    -0.085 Cl
HETATM   16  C11 UNL     1      25.149   4.862  49.499  1.00  0.00     0.020 A 
HETATM   17  C12 UNL     1      24.449   5.896  48.749  1.00  0.00    -0.011 C 
HETATM   18  C20 UNL     1      25.137   6.872  48.131  1.00  0.00     0.026 C 
HETATM   19  H3  UNL     1      28.380   4.368  48.361  1.00  0.00     0.166 HD
ENDROOT
BRANCH  17  20
HETATM   20  C13 UNL     1      22.977   5.867  48.626  1.00  0.00     0.175 C 
BRANCH  20  21
HETATM   21  O1  UNL     1      22.590   7.241  48.749  1.00  0.00    -0.387 OA
HETATM   22  H7  UNL     1      21.653   7.291  49.002  1.00  0.00     0.210 HD
ENDBRANCH  20  21
BRANCH  20  23
HETATM   23  C14 UNL     1      22.470   5.533  47.295  1.00  0.00     0.012 C 
HETATM   24  C15 UNL     1      22.301   5.967  46.066  1.00  0.00     0.033 C 
BRANCH  24  25
HETATM   25  C16 UNL     1      21.710   5.276  44.952  1.00  0.00     0.091 A 
HETATM   26  C17 UNL     1      21.169   5.772  43.788  1.00  0.00     0.141 A 
HETATM   27  N4  UNL     1      20.766   4.677  43.104  1.00  0.00    -0.281 N 
HETATM   28  N5  UNL     1      21.048   3.581  43.819  1.00  0.00     0.005 NA
HETATM   29  N6  UNL     1      21.628   3.940  44.954  1.00  0.00    -0.159 NA
BRANCH  27  30
HETATM   30  C18 UNL     1      20.138   4.819  41.803  1.00  0.00     0.177 C 
BRANCH  30  31
HETATM   31  C19 UNL     1      19.870   3.482  41.140  1.00  0.00     0.243 C 
HETATM   32  F2  UNL     1      18.682   2.958  41.611  1.00  0.00    -0.254 F 
ENDBRANCH  30  31
ENDBRANCH  27  30
ENDBRANCH  24  25
ENDBRANCH  20  23
ENDBRANCH  17  20
TORSDOF 6
ENDMDL
MODEL 9
REMARK VINA RESULT:      -7.0      3.577      5.092
REMARK  6 active torsions:
REMARK  status: ('A' for Active; 'I' for Inactive)
REMARK    1  A    between atoms: C12_17  and  C13_18 
REMARK    2  A    between atoms: C13_18  and  O1_19 
REMARK    3  A    between atoms: C13_18  and  C14_20 
REMARK    4  A    between atoms: C15_21  and  C16_22 
REMARK    5  A    between atoms: N4_24  and  C18_25 
REMARK    6  A    between atoms: C18_25  and  C19_26 
ROOT
HETATM    1  N1  UNL     1      21.244   3.971  44.392  1.00  0.00    -0.191 NA
HETATM    2  C1  UNL     1      20.918   3.805  45.491  1.00  0.00     0.103 C 
HETATM    3  C2  UNL     1      20.484   3.593  46.865  1.00  0.00     0.089 A 
HETATM    4  C3  UNL     1      19.293   2.973  47.190  1.00  0.00     0.141 A 
HETATM    5  N2  UNL     1      18.944   2.803  48.489  1.00  0.00    -0.271 NA
HETATM    6  C4  UNL     1      19.722   3.219  49.518  1.00  0.00     0.130 A 
HETATM    7  C5  UNL     1      20.919   3.841  49.232  1.00  0.00     0.010 A 
HETATM    8  C6  UNL     1      21.300   4.030  47.917  1.00  0.00     0.067 A 
HETATM    9  N3  UNL     1      22.472   4.650  47.355  1.00  0.00    -0.354 N 
HETATM   10  C7  UNL     1      23.198   5.693  48.043  1.00  0.00     0.044 A 
HETATM   11  C8  UNL     1      23.879   6.644  47.405  1.00  0.00     0.046 A 
HETATM   12  C9  UNL     1      24.478   7.521  48.436  1.00  0.00     0.241 A 
HETATM   13  F1  UNL     1      25.846   7.549  48.400  1.00  0.00    -0.239 F 
HETATM   14  C10 UNL     1      24.039   6.941  49.715  1.00  0.00     0.062 A 
HETATM   15 CL1  UNL     1      24.460   7.631  51.236  1.00  0.00    -0.085 Cl
HETATM   16  C11 UNL     1      23.294   5.872  49.498  1.00  0.00     0.020 A 
HETATM   17  C12 UNL     1      22.733   5.093  50.594  1.00  0.00    -0.011 C 
HETATM   18  C20 UNL     1      21.711   4.249  50.375  1.00  0.00     0.026 C 
HETATM   19  H3  UNL     1      22.817   4.354  46.424  1.00  0.00     0.166 HD
ENDROOT
BRANCH  17  20
HETATM   20  C13 UNL     1      23.303   5.193  51.953  1.00  0.00     0.175 C 
BRANCH  20  21
HETATM   21  O1  UNL     1      22.166   5.088  52.816  1.00  0.00    -0.387 OA
HETATM   22  H7  UNL     1      22.388   4.524  53.577  1.00  0.00     0.210 HD
ENDBRANCH  20  21
BRANCH  20  23
HETATM   23  C14 UNL     1      24.107   4.047  52.377  1.00  0.00     0.012 C 
HETATM   24  C15 UNL     1      24.071   2.804  52.802  1.00  0.00     0.033 C 
BRANCH  24  25
HETATM   25  C16 UNL     1      25.174   1.946  53.139  1.00  0.00     0.091 A 
HETATM   26  C17 UNL     1      25.544   0.730  52.614  1.00  0.00     0.141 A 
HETATM   27  N4  UNL     1      26.653   0.381  53.305  1.00  0.00    -0.281 N 
HETATM   28  N5  UNL     1      26.934   1.336  54.199  1.00  0.00     0.005 NA
HETATM   29  N6  UNL     1      26.033   2.300  54.105  1.00  0.00    -0.159 NA
BRANCH  27  30
HETATM   30  C18 UNL     1      27.333  -0.869  53.013  1.00  0.00     0.177 C 
BRANCH  30  31
HETATM   31  C19 UNL     1      28.811  -0.816  53.347  1.00  0.00     0.243 C 
HETATM   32  F2  UNL     1      29.354  -2.083  53.260  1.00  0.00    -0.254 F 
ENDBRANCH  30  31
ENDBRANCH  27  30
ENDBRANCH  24  25
ENDBRANCH  20  23
ENDBRANCH  17  20
TORSDOF 6
ENDMDL
