MODEL 1
REMARK VINA RESULT:      -7.5      0.000      0.000
REMARK  6 active torsions:
REMARK  status: ('A' for Active; 'I' for Inactive)
REMARK    1  A    between atoms: O1_1  and  N1_2 
REMARK    2  A    between atoms: C1_3  and  C2_4 
REMARK    3  A    between atoms: C1_3  and  C12_15 
REMARK    4  A    between atoms: C2_4  and  C3_5 
REMARK    5  A    between atoms: C6_8  and  O2_9 
REMARK    6  A    between atoms: O2_9  and  C7_10 
ROOT
HETATM    1  C2  UNL     1      23.357   2.623  52.166  1.00  0.00     0.101 C 
ENDROOT
BRANCH   1   2
HETATM    2  C1  UNL     1      23.460   2.694  50.683  1.00  0.00     0.076 C 
HETATM    3  N1  UNL     1      22.578   1.988  50.079  1.00  0.00    -0.140 NA
BRANCH   3   4
HETATM    4  O1  UNL     1      22.375   1.817  48.767  1.00  0.00    -0.266 OA
HETATM    5  H1  UNL     1      22.288   0.981  48.230  1.00  0.00     0.247 HD
ENDBRANCH   3   4
BRANCH   2   6
HETATM    6  C12 UNL     1      24.508   3.522  50.109  1.00  0.00    -0.009 A 
HETATM    7  C13 UNL     1      25.796   3.094  49.886  1.00  0.00     0.013 A 
HETATM    8  C14 UNL     1      26.793   3.876  49.342  1.00  0.00     0.001 A 
HETATM    9  C15 UNL     1      26.513   5.179  48.987  1.00  0.00     0.000 A 
HETATM   10  C16 UNL     1      25.228   5.632  49.201  1.00  0.00     0.001 A 
HETATM   11  C17 UNL     1      24.253   4.825  49.748  1.00  0.00     0.013 A 
ENDBRANCH   2   6
ENDBRANCH   1   2
BRANCH   1  12
HETATM   12  C3  UNL     1      24.385   1.807  52.812  1.00  0.00    -0.052 A 
HETATM   13  C4  UNL     1      25.425   2.437  53.469  1.00  0.00     0.010 A 
HETATM   14  C5  UNL     1      26.444   1.733  54.111  1.00  0.00     0.038 A 
HETATM   15  C6  UNL     1      26.418   0.350  54.090  1.00  0.00     0.075 A 
HETATM   16  C10 UNL     1      25.389  -0.284  53.439  1.00  0.00     0.038 A 
HETATM   17  C11 UNL     1      24.390   0.425  52.813  1.00  0.00     0.010 A 
BRANCH  15  18
HETATM   18  O2  UNL     1      27.491  -0.208  54.766  1.00  0.00    -0.315 OA
BRANCH  18  19
HETATM   19  C7  UNL     1      28.652  -0.549  54.097  1.00  0.00     0.053 A 
HETATM   20  C8  UNL     1      29.964  -0.259  53.589  1.00  0.00     0.013 A 
HETATM   21  C9  UNL     1      29.387  -1.581  53.376  1.00  0.00     0.094 A 
ENDBRANCH  18  19
ENDBRANCH  15  18
ENDBRANCH   1  12
TORSDOF 6
ENDMDL
MODEL 2
REMARK VINA RESULT:      -7.4      2.172      6.242
REMARK  6 active torsions:
REMARK  status: ('A' for Active; 'I' for Inactive)
REMARK    1  A    between atoms: O1_1  and  N1_2 
REMARK    2  A    between atoms: C1_3  and  C2_4 
REMARK    3  A    between atoms: C1_3  and  C12_15 
REMARK    4  A    between atoms: C2_4  and  C3_5 
REMARK    5  A    between atoms: C6_8  and  O2_9 
REMARK    6  A    between atoms: O2_9  and  C7_10 
ROOT
HETATM    1  C2  UNL     1      24.748  -0.456  53.039  1.00  0.00     0.101 C 
ENDROOT
BRANCH   1   2
HETATM    2  C1  UNL     1      25.627  -0.685  54.217  1.00  0.00     0.076 C 
HETATM    3  N1  UNL     1      24.981  -0.992  55.280  1.00  0.00    -0.140 NA
BRANCH   3   4
HETATM    4  O1  UNL     1      25.441  -1.263  56.508  1.00  0.00    -0.266 OA
HETATM    5  H1  UNL     1      25.288  -0.791  57.374  1.00  0.00     0.247 HD
ENDBRANCH   3   4
BRANCH   2   6
HETATM    6  C12 UNL     1      27.063  -0.541  54.037  1.00  0.00    -0.009 A 
HETATM    7  C13 UNL     1      27.807   0.492  54.559  1.00  0.00     0.013 A 
HETATM    8  C14 UNL     1      29.168   0.633  54.392  1.00  0.00     0.001 A 
HETATM    9  C15 UNL     1      29.860  -0.307  53.657  1.00  0.00     0.000 A 
HETATM   10  C16 UNL     1      29.136  -1.353  53.123  1.00  0.00     0.001 A 
HETATM   11  C17 UNL     1      27.775  -1.466  53.308  1.00  0.00     0.013 A 
ENDBRANCH   2   6
ENDBRANCH   1   2
BRANCH   1  12
HETATM   12  C3  UNL     1      24.957   0.823  52.360  1.00  0.00    -0.052 A 
HETATM   13  C4  UNL     1      24.066   1.855  52.586  1.00  0.00     0.010 A 
HETATM   14  C5  UNL     1      24.193   3.105  51.980  1.00  0.00     0.038 A 
HETATM   15  C6  UNL     1      25.249   3.325  51.115  1.00  0.00     0.075 A 
HETATM   16  C10 UNL     1      26.139   2.305  50.883  1.00  0.00     0.038 A 
HETATM   17  C11 UNL     1      26.001   1.079  51.490  1.00  0.00     0.010 A 
BRANCH  15  18
HETATM   18  O2  UNL     1      25.244   4.607  50.591  1.00  0.00    -0.315 OA
BRANCH  18  19
HETATM   19  C7  UNL     1      26.175   4.991  49.643  1.00  0.00     0.053 A 
HETATM   20  C8  UNL     1      27.275   4.731  48.756  1.00  0.00     0.013 A 
HETATM   21  C9  UNL     1      26.705   6.072  48.821  1.00  0.00     0.094 A 
ENDBRANCH  18  19
ENDBRANCH  15  18
ENDBRANCH   1  12
TORSDOF 6
ENDMDL
MODEL 3
REMARK VINA RESULT:      -7.2      2.791      6.633
REMARK  6 active torsions:
REMARK  status: ('A' for Active; 'I' for Inactive)
REMARK    1  A    between atoms: O1_1  and  N1_2 
REMARK    2  A    between atoms: C1_3  and  C2_4 
REMARK    3  A    between atoms: C1_3  and  C12_15 
REMARK    4  A    between atoms: C2_4  and  C3_5 
REMARK    5  A    between atoms: C6_8  and  O2_9 
REMARK    6  A    between atoms: O2_9  and  C7_10 
ROOT
HETATM    1  C2  UNL     1      26.023   1.413  54.363  1.00  0.00     0.101 C 
ENDROOT
BRANCH   1   2
HETATM    2  C1  UNL     1      27.385   1.332  53.771  1.00  0.00     0.076 C 
HETATM    3  N1  UNL     1      27.906   2.479  53.537  1.00  0.00    -0.140 NA
BRANCH   3   4
HETATM    4  O1  UNL     1      29.101   2.781  53.015  1.00  0.00    -0.266 OA
HETATM    5  H1  UNL     1      29.724   2.230  52.464  1.00  0.00     0.247 HD
ENDBRANCH   3   4
BRANCH   2   6
HETATM    6  C12 UNL     1      27.950   0.013  53.533  1.00  0.00    -0.009 A 
HETATM    7  C13 UNL     1      29.234  -0.349  53.869  1.00  0.00     0.013 A 
HETATM    8  C14 UNL     1      29.774  -1.598  53.646  1.00  0.00     0.001 A 
HETATM    9  C15 UNL     1      29.002  -2.572  53.048  1.00  0.00     0.000 A 
HETATM   10  C16 UNL     1      27.710  -2.233  52.702  1.00  0.00     0.001 A 
HETATM   11  C17 UNL     1      27.199  -0.975  52.938  1.00  0.00     0.013 A 
ENDBRANCH   2   6
ENDBRANCH   1   2
BRANCH   1  12
HETATM   12  C3  UNL     1      24.985   1.884  53.446  1.00  0.00    -0.052 A 
HETATM   13  C4  UNL     1      24.342   0.969  52.634  1.00  0.00     0.010 A 
HETATM   14  C5  UNL     1      23.341   1.336  51.734  1.00  0.00     0.038 A 
HETATM   15  C6  UNL     1      22.976   2.667  51.645  1.00  0.00     0.075 A 
HETATM   16  C10 UNL     1      23.609   3.583  52.448  1.00  0.00     0.038 A 
HETATM   17  C11 UNL     1      24.593   3.205  53.331  1.00  0.00     0.010 A 
BRANCH  15  18
HETATM   18  O2  UNL     1      21.974   2.877  50.713  1.00  0.00    -0.315 OA
BRANCH  18  19
HETATM   19  C7  UNL     1      22.046   2.313  49.452  1.00  0.00     0.053 A 
HETATM   20  C8  UNL     1      21.682   1.327  48.472  1.00  0.00     0.013 A 
HETATM   21  C9  UNL     1      22.631   2.376  48.118  1.00  0.00     0.094 A 
ENDBRANCH  18  19
ENDBRANCH  15  18
ENDBRANCH   1  12
TORSDOF 6
ENDMDL
MODEL 4
REMARK VINA RESULT:      -7.1      2.870      4.335
REMARK  6 active torsions:
REMARK  status: ('A' for Active; 'I' for Inactive)
REMARK    1  A    between atoms: O1_1  and  N1_2 
REMARK    2  A    between atoms: C1_3  and  C2_4 
REMARK    3  A    between atoms: C1_3  and  C12_15 
REMARK    4  A    between atoms: C2_4  and  C3_5 
REMARK    5  A    between atoms: C6_8  and  O2_9 
REMARK    6  A    between atoms: O2_9  and  C7_10 
ROOT
HETATM    1  C2  UNL     1      23.897   3.796  49.842  1.00  0.00     0.101 C 
ENDROOT
BRANCH   1   2
HETATM    2  C1  UNL     1      24.614   5.013  50.309  1.00  0.00     0.076 C 
HETATM    3  N1  UNL     1      24.072   5.560  51.333  1.00  0.00    -0.140 NA
BRANCH   3   4
HETATM    4  O1  UNL     1      24.443   6.653  52.010  1.00  0.00    -0.266 OA
HETATM    5  H1  UNL     1      24.207   7.613  51.869  1.00  0.00     0.247 HD
ENDBRANCH   3   4
BRANCH   2   6
HETATM    6  C12 UNL     1      25.802   5.428  49.580  1.00  0.00    -0.009 A 
HETATM    7  C13 UNL     1      26.052   6.721  49.183  1.00  0.00     0.013 A 
HETATM    8  C14 UNL     1      27.176   7.120  48.492  1.00  0.00     0.001 A 
HETATM    9  C15 UNL     1      28.133   6.185  48.160  1.00  0.00     0.000 A 
HETATM   10  C16 UNL     1      27.906   4.880  48.547  1.00  0.00     0.001 A 
HETATM   11  C17 UNL     1      26.770   4.513  49.237  1.00  0.00     0.013 A 
ENDBRANCH   2   6
ENDBRANCH   1   2
BRANCH   1  12
HETATM   12  C3  UNL     1      23.931   2.670  50.776  1.00  0.00    -0.052 A 
HETATM   13  C4  UNL     1      22.769   1.959  51.011  1.00  0.00     0.010 A 
HETATM   14  C5  UNL     1      22.716   0.873  51.885  1.00  0.00     0.038 A 
HETATM   15  C6  UNL     1      23.868   0.490  52.547  1.00  0.00     0.075 A 
HETATM   16  C10 UNL     1      25.027   1.190  52.320  1.00  0.00     0.038 A 
HETATM   17  C11 UNL     1      25.063   2.258  51.454  1.00  0.00     0.010 A 
BRANCH  15  18
HETATM   18  O2  UNL     1      23.662  -0.599  53.377  1.00  0.00    -0.315 OA
BRANCH  18  19
HETATM   19  C7  UNL     1      22.434  -0.814  53.975  1.00  0.00     0.053 A 
HETATM   20  C8  UNL     1      21.284  -1.623  54.275  1.00  0.00     0.013 A 
HETATM   21  C9  UNL     1      21.368  -0.268  54.807  1.00  0.00     0.094 A 
ENDBRANCH  18  19
ENDBRANCH  15  18
ENDBRANCH   1  12
TORSDOF 6
ENDMDL
MODEL 5
REMARK VINA RESULT:      -7.0      2.086      4.468
REMARK  6 active torsions:
REMARK  status: ('A' for Active; 'I' for Inactive)
REMARK    1  A    between atoms: O1_1  and  N1_2 
REMARK    2  A    between atoms: C1_3  and  C2_4 
REMARK    3  A    between atoms: C1_3  and  C12_15 
REMARK    4  A    between atoms: C2_4  and  C3_5 
REMARK    5  A    between atoms: C6_8  and  O2_9 
REMARK    6  A    between atoms: O2_9  and  C7_10 
ROOT
HETATM    1  C2  UNL     1      23.121   3.062  52.035  1.00  0.00     0.101 C 
ENDROOT
BRANCH   1   2
HETATM    2  C1  UNL     1      22.255   1.918  51.642  1.00  0.00     0.076 C 
HETATM    3  N1  UNL     1      21.912   1.941  50.408  1.00  0.00    -0.140 NA
BRANCH   3   4
HETATM    4  O1  UNL     1      21.149   1.083  49.720  1.00  0.00    -0.266 OA
HETATM    5  H1  UNL     1      20.981   1.011  48.739  1.00  0.00     0.247 HD
ENDBRANCH   3   4
BRANCH   2   6
HETATM    6  C12 UNL     1      21.908   0.942  52.663  1.00  0.00    -0.009 A 
HETATM    7  C13 UNL     1      20.913   1.120  53.596  1.00  0.00     0.013 A 
HETATM    8  C14 UNL     1      20.581   0.198  54.565  1.00  0.00     0.001 A 
HETATM    9  C15 UNL     1      21.273  -0.993  54.631  1.00  0.00     0.000 A 
HETATM   10  C16 UNL     1      22.276  -1.196  53.706  1.00  0.00     0.001 A 
HETATM   11  C17 UNL     1      22.585  -0.253  52.748  1.00  0.00     0.013 A 
ENDBRANCH   2   6
ENDBRANCH   1   2
BRANCH   1  12
HETATM   12  C3  UNL     1      24.505   2.704  52.345  1.00  0.00    -0.052 A 
HETATM   13  C4  UNL     1      25.408   2.558  51.309  1.00  0.00     0.010 A 
HETATM   14  C5  UNL     1      26.745   2.219  51.518  1.00  0.00     0.038 A 
HETATM   15  C6  UNL     1      27.189   2.017  52.812  1.00  0.00     0.075 A 
HETATM   16  C10 UNL     1      26.299   2.158  53.848  1.00  0.00     0.038 A 
HETATM   17  C11 UNL     1      24.984   2.495  53.625  1.00  0.00     0.010 A 
BRANCH  15  18
HETATM   18  O2  UNL     1      28.533   1.687  52.863  1.00  0.00    -0.315 OA
BRANCH  18  19
HETATM   19  C7  UNL     1      28.940   0.415  53.223  1.00  0.00     0.053 A 
HETATM   20  C8  UNL     1      29.894  -0.517  53.758  1.00  0.00     0.013 A 
HETATM   21  C9  UNL     1      28.599  -1.001  53.294  1.00  0.00     0.094 A 
ENDBRANCH  18  19
ENDBRANCH  15  18
ENDBRANCH   1  12
TORSDOF 6
ENDMDL
MODEL 6
REMARK VINA RESULT:      -7.0      2.321      3.014
REMARK  6 active torsions:
REMARK  status: ('A' for Active; 'I' for Inactive)
REMARK    1  A    between atoms: O1_1  and  N1_2 
REMARK    2  A    between atoms: C1_3  and  C2_4 
REMARK    3  A    between atoms: C1_3  and  C12_15 
REMARK    4  A    between atoms: C2_4  and  C3_5 
REMARK    5  A    between atoms: C6_8  and  O2_9 
REMARK    6  A    between atoms: O2_9  and  C7_10 
ROOT
HETATM    1  C2  UNL     1      23.443   3.404  52.511  1.00  0.00     0.101 C 
ENDROOT
BRANCH   1   2
HETATM    2  C1  UNL     1      22.133   3.205  51.836  1.00  0.00     0.076 C 
HETATM    3  N1  UNL     1      21.130   3.519  52.570  1.00  0.00    -0.140 NA
BRANCH   3   4
HETATM    4  O1  UNL     1      19.822   3.468  52.293  1.00  0.00    -0.266 OA
HETATM    5  H1  UNL     1      19.348   3.201  51.456  1.00  0.00     0.247 HD
ENDBRANCH   3   4
BRANCH   2   6
HETATM    6  C12 UNL     1      22.136   2.696  50.474  1.00  0.00    -0.009 A 
HETATM    7  C13 UNL     1      22.690   3.359  49.403  1.00  0.00     0.013 A 
HETATM    8  C14 UNL     1      22.696   2.880  48.110  1.00  0.00     0.001 A 
HETATM    9  C15 UNL     1      22.115   1.659  47.838  1.00  0.00     0.000 A 
HETATM   10  C16 UNL     1      21.551   0.976  48.895  1.00  0.00     0.001 A 
HETATM   11  C17 UNL     1      21.562   1.481  50.178  1.00  0.00     0.013 A 
ENDBRANCH   2   6
ENDBRANCH   1   2
BRANCH   1  12
HETATM   12  C3  UNL     1      24.300   2.219  52.545  1.00  0.00    -0.052 A 
HETATM   13  C4  UNL     1      25.546   2.276  51.948  1.00  0.00     0.010 A 
HETATM   14  C5  UNL     1      26.424   1.192  51.936  1.00  0.00     0.038 A 
HETATM   15  C6  UNL     1      26.037   0.011  52.543  1.00  0.00     0.075 A 
HETATM   16  C10 UNL     1      24.801  -0.055  53.138  1.00  0.00     0.038 A 
HETATM   17  C11 UNL     1      23.948   1.024  53.143  1.00  0.00     0.010 A 
BRANCH  15  18
HETATM   18  O2  UNL     1      27.008  -0.972  52.451  1.00  0.00    -0.315 OA
BRANCH  18  19
HETATM   19  C7  UNL     1      28.193  -0.869  53.157  1.00  0.00     0.053 A 
HETATM   20  C8  UNL     1      29.575  -1.190  53.386  1.00  0.00     0.013 A 
HETATM   21  C9  UNL     1      28.890  -0.275  54.292  1.00  0.00     0.094 A 
ENDBRANCH  18  19
ENDBRANCH  15  18
ENDBRANCH   1  12
TORSDOF 6
ENDMDL
MODEL 7
REMARK VINA RESULT:      -6.8      2.308      6.991
REMARK  6 active torsions:
REMARK  status: ('A' for Active; 'I' for Inactive)
REMARK    1  A    between atoms: O1_1  and  N1_2 
REMARK    2  A    between atoms: C1_3  and  C2_4 
REMARK    3  A    between atoms: C1_3  and  C12_15 
REMARK    4  A    between atoms: C2_4  and  C3_5 
REMARK    5  A    between atoms: C6_8  and  O2_9 
REMARK    6  A    between atoms: O2_9  and  C7_10 
ROOT
HETATM    1  C2  UNL     1      25.221   1.091  53.302  1.00  0.00     0.101 C 
ENDROOT
BRANCH   1   2
HETATM    2  C1  UNL     1      26.688   1.144  53.543  1.00  0.00     0.076 C 
HETATM    3  N1  UNL     1      27.103   2.305  53.892  1.00  0.00    -0.140 NA
BRANCH   3   4
HETATM    4  O1  UNL     1      28.343   2.713  54.185  1.00  0.00    -0.266 OA
HETATM    5  H1  UNL     1      28.882   2.599  55.018  1.00  0.00     0.247 HD
ENDBRANCH   3   4
BRANCH   2   6
HETATM    6  C12 UNL     1      27.455  -0.077  53.361  1.00  0.00    -0.009 A 
HETATM    7  C13 UNL     1      28.789  -0.205  53.673  1.00  0.00     0.013 A 
HETATM    8  C14 UNL     1      29.521  -1.362  53.503  1.00  0.00     0.001 A 
HETATM    9  C15 UNL     1      28.904  -2.482  52.988  1.00  0.00     0.000 A 
HETATM   10  C16 UNL     1      27.567  -2.379  52.667  1.00  0.00     0.001 A 
HETATM   11  C17 UNL     1      26.862  -1.208  52.848  1.00  0.00     0.013 A 
ENDBRANCH   2   6
ENDBRANCH   1   2
BRANCH   1  12
HETATM   12  C3  UNL     1      24.690   2.199  52.507  1.00  0.00    -0.052 A 
HETATM   13  C4  UNL     1      24.903   2.206  51.141  1.00  0.00     0.010 A 
HETATM   14  C5  UNL     1      24.431   3.223  50.312  1.00  0.00     0.038 A 
HETATM   15  C6  UNL     1      23.724   4.270  50.874  1.00  0.00     0.075 A 
HETATM   16  C10 UNL     1      23.508   4.273  52.230  1.00  0.00     0.038 A 
HETATM   17  C11 UNL     1      23.979   3.260  53.034  1.00  0.00     0.010 A 
BRANCH  15  18
HETATM   18  O2  UNL     1      23.321   5.202  49.931  1.00  0.00    -0.315 OA
BRANCH  18  19
HETATM   19  C7  UNL     1      23.168   6.534  50.269  1.00  0.00     0.053 A 
HETATM   20  C8  UNL     1      22.390   7.734  50.407  1.00  0.00     0.013 A 
HETATM   21  C9  UNL     1      23.802   7.746  50.774  1.00  0.00     0.094 A 
ENDBRANCH  18  19
ENDBRANCH  15  18
ENDBRANCH   1  12
TORSDOF 6
ENDMDL
MODEL 8
REMARK VINA RESULT:      -6.8      2.892      7.107
REMARK  6 active torsions:
REMARK  status: ('A' for Active; 'I' for Inactive)
REMARK    1  A    between atoms: O1_1  and  N1_2 
REMARK    2  A    between atoms: C1_3  and  C2_4 
REMARK    3  A    between atoms: C1_3  and  C12_15 
REMARK    4  A    between atoms: C2_4  and  C3_5 
REMARK    5  A    between atoms: C6_8  and  O2_9 
REMARK    6  A    between atoms: O2_9  and  C7_10 
ROOT
HETATM    1  C2  UNL     1      26.455   2.382  50.029  1.00  0.00     0.101 C 
ENDROOT
BRANCH   1   2
HETATM    2  C1  UNL     1      26.538   2.109  51.489  1.00  0.00     0.076 C 
HETATM    3  N1  UNL     1      27.594   2.586  52.036  1.00  0.00    -0.140 NA
BRANCH   3   4
HETATM    4  O1  UNL     1      27.992   2.532  53.312  1.00  0.00    -0.266 OA
HETATM    5  H1  UNL     1      28.850   2.818  53.735  1.00  0.00     0.247 HD
ENDBRANCH   3   4
BRANCH   2   6
HETATM    6  C12 UNL     1      25.455   1.361  52.108  1.00  0.00    -0.009 A 
HETATM    7  C13 UNL     1      24.141   1.769  52.116  1.00  0.00     0.013 A 
HETATM    8  C14 UNL     1      23.111   1.063  52.701  1.00  0.00     0.001 A 
HETATM    9  C15 UNL     1      23.382  -0.135  53.328  1.00  0.00     0.000 A 
HETATM   10  C16 UNL     1      24.693  -0.565  53.334  1.00  0.00     0.001 A 
HETATM   11  C17 UNL     1      25.701   0.164  52.740  1.00  0.00     0.013 A 
ENDBRANCH   2   6
ENDBRANCH   1   2
BRANCH   1  12
HETATM   12  C3  UNL     1      26.375   3.799  49.675  1.00  0.00    -0.052 A 
HETATM   13  C4  UNL     1      27.383   4.357  48.911  1.00  0.00     0.010 A 
HETATM   14  C5  UNL     1      27.382   5.699  48.530  1.00  0.00     0.038 A 
HETATM   15  C6  UNL     1      26.335   6.508  48.932  1.00  0.00     0.075 A 
HETATM   16  C10 UNL     1      25.330   5.964  49.692  1.00  0.00     0.038 A 
HETATM   17  C11 UNL     1      25.345   4.638  50.058  1.00  0.00     0.010 A 
BRANCH  15  18
HETATM   18  O2  UNL     1      26.472   7.810  48.480  1.00  0.00    -0.315 OA
BRANCH  18  19
HETATM   19  C7  UNL     1      27.366   8.680  49.077  1.00  0.00     0.053 A 
HETATM   20  C8  UNL     1      28.601   9.413  49.116  1.00  0.00     0.013 A 
HETATM   21  C9  UNL     1      27.660   9.531  50.224  1.00  0.00     0.094 A 
ENDBRANCH  18  19
ENDBRANCH  15  18
ENDBRANCH   1  12
TORSDOF 6
ENDMDL
MODEL 9
REMARK VINA RESULT:      -6.8      3.045      6.297
REMARK  6 active torsions:
REMARK  status: ('A' for Active; 'I' for Inactive)
REMARK    1  A    between atoms: O1_1  and  N1_2 
REMARK    2  A    between atoms: C1_3  and  C2_4 
REMARK    3  A    between atoms: C1_3  and  C12_15 
REMARK    4  A    between atoms: C2_4  and  C3_5 
REMARK    5  A    between atoms: C6_8  and  O2_9 
REMARK    6  A    between atoms: O2_9  and  C7_10 
ROOT
HETATM    1  C2  UNL     1      24.437   3.563  49.857  1.00  0.00     0.101 C 
ENDROOT
BRANCH   1   2
HETATM    2  C1  UNL     1      24.483   3.369  51.331  1.00  0.00     0.076 C 
HETATM    3  N1  UNL     1      24.093   4.396  51.991  1.00  0.00    -0.140 NA
BRANCH   3   4
HETATM    4  O1  UNL     1      24.004   4.576  53.314  1.00  0.00    -0.266 OA
HETATM    5  H1  UNL     1      24.523   4.161  54.059  1.00  0.00     0.247 HD
ENDBRANCH   3   4
BRANCH   2   6
HETATM    6  C12 UNL     1      24.949   2.089  51.838  1.00  0.00    -0.009 A 
HETATM    7  C13 UNL     1      26.229   1.612  51.674  1.00  0.00     0.013 A 
HETATM    8  C14 UNL     1      26.675   0.398  52.154  1.00  0.00     0.001 A 
HETATM    9  C15 UNL     1      25.805  -0.416  52.848  1.00  0.00     0.000 A 
HETATM   10  C16 UNL     1      24.515   0.040  53.025  1.00  0.00     0.001 A 
HETATM   11  C17 UNL     1      24.099   1.259  52.533  1.00  0.00     0.013 A 
ENDBRANCH   2   6
ENDBRANCH   1   2
BRANCH   1  12
HETATM   12  C3  UNL     1      25.472   4.448  49.323  1.00  0.00    -0.052 A 
HETATM   13  C4  UNL     1      26.761   3.966  49.190  1.00  0.00     0.010 A 
HETATM   14  C5  UNL     1      27.806   4.744  48.689  1.00  0.00     0.038 A 
HETATM   15  C6  UNL     1      27.547   6.049  48.312  1.00  0.00     0.075 A 
HETATM   16  C10 UNL     1      26.270   6.536  48.441  1.00  0.00     0.038 A 
HETATM   17  C11 UNL     1      25.250   5.756  48.935  1.00  0.00     0.010 A 
BRANCH  15  18
HETATM   18  O2  UNL     1      28.676   6.694  47.836  1.00  0.00    -0.315 OA
BRANCH  18  19
HETATM   19  C7  UNL     1      29.938   6.174  48.058  1.00  0.00     0.053 A 
HETATM   20  C8  UNL     1      31.058   5.346  47.704  1.00  0.00     0.013 A 
HETATM   21  C9  UNL     1      31.107   6.136  48.929  1.00  0.00     0.094 A 
ENDBRANCH  18  19
ENDBRANCH  15  18
ENDBRANCH   1  12
TORSDOF 6
ENDMDL
