MODEL 1
REMARK VINA RESULT:      -7.8      0.000      0.000
REMARK  4 active torsions:
REMARK  status: ('A' for Active; 'I' for Inactive)
REMARK    1  A    between atoms: O1_2  and  C2_3 
REMARK    2  A    between atoms: C6_9  and  C7_10 
REMARK    3  A    between atoms: C7_10  and  N3_11 
REMARK    4  A    between atoms: N3_11  and  C8_12 
ROOT
HETATM    1  C2  UNL     1      21.577   0.230  51.840  1.00  0.00     0.077 A 
HETATM    2  C3  UNL     1      21.195   0.610  50.631  1.00  0.00     0.070 A 
HETATM    3  C4  UNL     1      22.241   1.531  50.214  1.00  0.00     0.074 A 
HETATM    4  N1  UNL     1      22.287   2.185  49.026  1.00  0.00    -0.241 NA
HETATM    5  C5  UNL     1      23.277   3.017  48.700  1.00  0.00     0.234 A 
HETATM    6  N2  UNL     1      24.253   3.212  49.582  1.00  0.00    -0.240 NA
HETATM    7  C6  UNL     1      24.220   2.571  50.764  1.00  0.00     0.086 A 
HETATM    8  C14 UNL     1      23.230   1.698  51.163  1.00  0.00     0.032 A 
HETATM    9  C15 UNL     1      22.848   0.921  52.153  1.00  0.00    -0.014 A 
HETATM   10  C16 UNL     1      23.696   0.841  53.395  1.00  0.00     0.052 C 
ENDROOT
BRANCH   7  11
HETATM   11  C7  UNL     1      25.206   2.783  51.600  1.00  0.00     0.121 C 
BRANCH  11  12
HETATM   12  N3  UNL     1      26.416   2.655  52.309  1.00  0.00    -0.364 N 
HETATM   13  H7  UNL     1      26.959   3.491  52.683  1.00  0.00     0.165 HD
BRANCH  12  14
HETATM   14  C8  UNL     1      27.162   1.516  52.667  1.00  0.00     0.033 A 
HETATM   15  C9  UNL     1      28.340   1.898  53.333  1.00  0.00     0.032 A 
HETATM   16  C10 UNL     1      29.255   0.953  53.790  1.00  0.00     0.046 A 
HETATM   17  C11 UNL     1      29.000  -0.393  53.585  1.00  0.00     0.138 A 
HETATM   18  F1  UNL     1      29.845  -1.382  54.002  1.00  0.00    -0.204 F 
HETATM   19  C12 UNL     1      27.864  -0.808  52.940  1.00  0.00     0.074 A 
HETATM   20 CL1  UNL     1      27.417  -2.468  52.615  1.00  0.00    -0.081 Cl
HETATM   21  C13 UNL     1      27.011   0.161  52.519  1.00  0.00     0.056 A 
ENDBRANCH  12  14
ENDBRANCH  11  12
ENDBRANCH   7  11
BRANCH   1  22
HETATM   22  O1  UNL     1      21.076  -0.632  52.833  1.00  0.00    -0.355 OA
HETATM   23  C1  UNL     1      19.842  -0.278  53.479  1.00  0.00     0.210 C 
ENDBRANCH   1  22
TORSDOF 4
ENDMDL
MODEL 2
REMARK VINA RESULT:      -7.8      2.410      3.545
REMARK  4 active torsions:
REMARK  status: ('A' for Active; 'I' for Inactive)
REMARK    1  A    between atoms: O1_2  and  C2_3 
REMARK    2  A    between atoms: C6_9  and  C7_10 
REMARK    3  A    between atoms: C7_10  and  N3_11 
REMARK    4  A    between atoms: N3_11  and  C8_12 
ROOT
HETATM    1  C2  UNL     1      19.686  -0.055  52.180  1.00  0.00     0.077 A 
HETATM    2  C3  UNL     1      19.567  -0.752  53.298  1.00  0.00     0.070 A 
HETATM    3  C4  UNL     1      20.929  -0.834  53.801  1.00  0.00     0.074 A 
HETATM    4  N1  UNL     1      21.312  -1.460  54.941  1.00  0.00    -0.241 NA
HETATM    5  C5  UNL     1      22.581  -1.498  55.351  1.00  0.00     0.234 A 
HETATM    6  N2  UNL     1      23.503  -0.898  54.604  1.00  0.00    -0.240 NA
HETATM    7  C6  UNL     1      23.138  -0.274  53.470  1.00  0.00     0.086 A 
HETATM    8  C14 UNL     1      21.848  -0.195  52.991  1.00  0.00     0.032 A 
HETATM    9  C15 UNL     1      21.118   0.282  52.007  1.00  0.00    -0.014 A 
HETATM   10  C16 UNL     1      21.787   1.056  50.902  1.00  0.00     0.052 C 
ENDROOT
BRANCH   7  11
HETATM   11  C7  UNL     1      24.075   0.314  52.769  1.00  0.00     0.121 C 
BRANCH  11  12
HETATM   12  N3  UNL     1      25.323   0.810  52.344  1.00  0.00    -0.364 N 
HETATM   13  H7  UNL     1      25.422   1.598  51.634  1.00  0.00     0.165 HD
BRANCH  12  14
HETATM   14  C8  UNL     1      26.635   0.436  52.692  1.00  0.00     0.033 A 
HETATM   15  C9  UNL     1      27.408   1.577  52.966  1.00  0.00     0.032 A 
HETATM   16  C10 UNL     1      28.747   1.475  53.333  1.00  0.00     0.046 A 
HETATM   17  C11 UNL     1      29.331   0.223  53.432  1.00  0.00     0.138 A 
HETATM   18  F1  UNL     1      30.637   0.037  53.786  1.00  0.00    -0.204 F 
HETATM   19  C12 UNL     1      28.612  -0.915  53.174  1.00  0.00     0.074 A 
HETATM   20 CL1  UNL     1      29.220  -2.553  53.260  1.00  0.00    -0.081 Cl
HETATM   21  C13 UNL     1      27.312  -0.750  52.821  1.00  0.00     0.056 A 
ENDBRANCH  12  14
ENDBRANCH  11  12
ENDBRANCH   7  11
BRANCH   1  22
HETATM   22  O1  UNL     1      18.812   0.410  51.181  1.00  0.00    -0.355 OA
HETATM   23  C1  UNL     1      17.469  -0.100  51.163  1.00  0.00     0.210 C 
ENDBRANCH   1  22
TORSDOF 4
ENDMDL
MODEL 3
REMARK VINA RESULT:      -7.7      4.334      6.195
REMARK  4 active torsions:
REMARK  status: ('A' for Active; 'I' for Inactive)
REMARK    1  A    between atoms: O1_2  and  C2_3 
REMARK    2  A    between atoms: C6_9  and  C7_10 
REMARK    3  A    between atoms: C7_10  and  N3_11 
REMARK    4  A    between atoms: N3_11  and  C8_12 
ROOT
HETATM    1  C2  UNL     1      24.283  -0.232  53.719  1.00  0.00     0.077 A 
HETATM    2  C3  UNL     1      25.326  -0.445  54.504  1.00  0.00     0.070 A 
HETATM    3  C4  UNL     1      26.371   0.382  53.921  1.00  0.00     0.074 A 
HETATM    4  N1  UNL     1      27.639   0.495  54.388  1.00  0.00    -0.241 NA
HETATM    5  C5  UNL     1      28.554   1.275  53.809  1.00  0.00     0.234 A 
HETATM    6  N2  UNL     1      28.200   1.965  52.728  1.00  0.00    -0.240 NA
HETATM    7  C6  UNL     1      26.947   1.862  52.253  1.00  0.00     0.086 A 
HETATM    8  C14 UNL     1      25.955   1.078  52.803  1.00  0.00     0.032 A 
HETATM    9  C15 UNL     1      24.696   0.722  52.664  1.00  0.00    -0.014 A 
HETATM   10  C16 UNL     1      23.892   1.289  51.524  1.00  0.00     0.052 C 
ENDROOT
BRANCH   7  11
HETATM   11  C7  UNL     1      26.636   2.566  51.193  1.00  0.00     0.121 C 
BRANCH  11  12
HETATM   12  N3  UNL     1      26.501   2.995  49.858  1.00  0.00    -0.364 N 
HETATM   13  H7  UNL     1      26.218   2.341  49.066  1.00  0.00     0.165 HD
BRANCH  12  14
HETATM   14  C8  UNL     1      26.692   4.259  49.269  1.00  0.00     0.033 A 
HETATM   15  C9  UNL     1      25.496   4.997  49.307  1.00  0.00     0.032 A 
HETATM   16  C10 UNL     1      25.421   6.285  48.782  1.00  0.00     0.046 A 
HETATM   17  C11 UNL     1      26.548   6.852  48.212  1.00  0.00     0.138 A 
HETATM   18  F1  UNL     1      26.558   8.109  47.676  1.00  0.00    -0.204 F 
HETATM   19  C12 UNL     1      27.734   6.167  48.155  1.00  0.00     0.074 A 
HETATM   20 CL1  UNL     1      29.229   6.759  47.467  1.00  0.00    -0.081 Cl
HETATM   21  C13 UNL     1      27.743   4.916  48.683  1.00  0.00     0.056 A 
ENDBRANCH  12  14
ENDBRANCH  11  12
ENDBRANCH   7  11
BRANCH   1  22
HETATM   22  O1  UNL     1      22.950  -0.679  53.666  1.00  0.00    -0.355 OA
HETATM   23  C1  UNL     1      22.333  -1.118  54.887  1.00  0.00     0.210 C 
ENDBRANCH   1  22
TORSDOF 4
ENDMDL
MODEL 4
REMARK VINA RESULT:      -7.6      1.721      1.721
REMARK  4 active torsions:
REMARK  status: ('A' for Active; 'I' for Inactive)
REMARK    1  A    between atoms: O1_2  and  C2_3 
REMARK    2  A    between atoms: C6_9  and  C7_10 
REMARK    3  A    between atoms: C7_10  and  N3_11 
REMARK    4  A    between atoms: N3_11  and  C8_12 
ROOT
HETATM    1  C2  UNL     1      21.228   0.443  52.778  1.00  0.00     0.077 A 
HETATM    2  C3  UNL     1      20.578   1.546  52.444  1.00  0.00     0.070 A 
HETATM    3  C4  UNL     1      21.617   2.564  52.421  1.00  0.00     0.074 A 
HETATM    4  N1  UNL     1      21.430   3.874  52.124  1.00  0.00    -0.241 NA
HETATM    5  C5  UNL     1      22.427   4.761  52.117  1.00  0.00     0.234 A 
HETATM    6  N2  UNL     1      23.652   4.335  52.417  1.00  0.00    -0.240 NA
HETATM    7  C6  UNL     1      23.851   3.039  52.715  1.00  0.00     0.086 A 
HETATM    8  C14 UNL     1      22.868   2.073  52.738  1.00  0.00     0.032 A 
HETATM    9  C15 UNL     1      22.655   0.793  52.958  1.00  0.00    -0.014 A 
HETATM   10  C16 UNL     1      23.813  -0.091  53.340  1.00  0.00     0.052 C 
ENDROOT
BRANCH   7  11
HETATM   11  C7  UNL     1      25.073   2.660  52.995  1.00  0.00     0.121 C 
BRANCH  11  12
HETATM   12  N3  UNL     1      26.474   2.513  52.966  1.00  0.00    -0.364 N 
HETATM   13  H7  UNL     1      27.138   3.328  52.798  1.00  0.00     0.165 HD
BRANCH  12  14
HETATM   14  C8  UNL     1      27.287   1.375  53.122  1.00  0.00     0.033 A 
HETATM   15  C9  UNL     1      28.527   1.738  53.676  1.00  0.00     0.032 A 
HETATM   16  C10 UNL     1      29.516   0.789  53.927  1.00  0.00     0.046 A 
HETATM   17  C11 UNL     1      29.272  -0.541  53.628  1.00  0.00     0.138 A 
HETATM   18  F1  UNL     1      30.188  -1.531  53.844  1.00  0.00    -0.204 F 
HETATM   19  C12 UNL     1      28.077  -0.937  53.088  1.00  0.00     0.074 A 
HETATM   20 CL1  UNL     1      27.636  -2.576  52.662  1.00  0.00    -0.081 Cl
HETATM   21  C13 UNL     1      27.154   0.034  52.866  1.00  0.00     0.056 A 
ENDBRANCH  12  14
ENDBRANCH  11  12
ENDBRANCH   7  11
BRANCH   1  22
HETATM   22  O1  UNL     1      20.887  -0.906  52.988  1.00  0.00    -0.355 OA
HETATM   23  C1  UNL     1      20.775  -1.375  54.341  1.00  0.00     0.210 C 
ENDBRANCH   1  22
TORSDOF 4
ENDMDL
MODEL 5
REMARK VINA RESULT:      -7.5      4.277      6.179
REMARK  4 active torsions:
REMARK  status: ('A' for Active; 'I' for Inactive)
REMARK    1  A    between atoms: O1_2  and  C2_3 
REMARK    2  A    between atoms: C6_9  and  C7_10 
REMARK    3  A    between atoms: C7_10  and  N3_11 
REMARK    4  A    between atoms: N3_11  and  C8_12 
ROOT
HETATM    1  C2  UNL     1      26.657   0.403  54.456  1.00  0.00     0.077 A 
HETATM    2  C3  UNL     1      25.671  -0.403  54.814  1.00  0.00     0.070 A 
HETATM    3  C4  UNL     1      24.609  -0.088  53.871  1.00  0.00     0.074 A 
HETATM    4  N1  UNL     1      23.384  -0.671  53.841  1.00  0.00    -0.241 NA
HETATM    5  C5  UNL     1      22.451  -0.339  52.947  1.00  0.00     0.234 A 
HETATM    6  N2  UNL     1      22.740   0.603  52.053  1.00  0.00    -0.240 NA
HETATM    7  C6  UNL     1      23.950   1.189  52.072  1.00  0.00     0.086 A 
HETATM    8  C14 UNL     1      24.958   0.894  52.965  1.00  0.00     0.032 A 
HETATM    9  C15 UNL     1      26.191   1.204  53.301  1.00  0.00    -0.014 A 
HETATM   10  C16 UNL     1      26.921   2.266  52.521  1.00  0.00     0.052 C 
ENDROOT
BRANCH   7  11
HETATM   11  C7  UNL     1      24.198   2.105  51.169  1.00  0.00     0.121 C 
BRANCH  11  12
HETATM   12  N3  UNL     1      24.054   3.010  50.099  1.00  0.00    -0.364 N 
HETATM   13  H7  UNL     1      23.189   3.041  49.480  1.00  0.00     0.165 HD
BRANCH  12  14
HETATM   14  C8  UNL     1      24.923   4.000  49.603  1.00  0.00     0.033 A 
HETATM   15  C9  UNL     1      26.221   3.481  49.463  1.00  0.00     0.032 A 
HETATM   16  C10 UNL     1      27.270   4.266  48.991  1.00  0.00     0.046 A 
HETATM   17  C11 UNL     1      27.030   5.586  48.649  1.00  0.00     0.138 A 
HETATM   18  F1  UNL     1      28.002   6.422  48.178  1.00  0.00    -0.204 F 
HETATM   19  C12 UNL     1      25.778   6.131  48.770  1.00  0.00     0.074 A 
HETATM   20 CL1  UNL     1      25.334   7.777  48.376  1.00  0.00    -0.081 Cl
HETATM   21  C13 UNL     1      24.798   5.316  49.236  1.00  0.00     0.056 A 
ENDBRANCH  12  14
ENDBRANCH  11  12
ENDBRANCH   7  11
BRANCH   1  22
HETATM   22  O1  UNL     1      27.969   0.654  54.899  1.00  0.00    -0.355 OA
HETATM   23  C1  UNL     1      29.024  -0.184  54.403  1.00  0.00     0.210 C 
ENDBRANCH   1  22
TORSDOF 4
ENDMDL
MODEL 6
REMARK VINA RESULT:      -7.5      4.130      5.960
REMARK  4 active torsions:
REMARK  status: ('A' for Active; 'I' for Inactive)
REMARK    1  A    between atoms: O1_2  and  C2_3 
REMARK    2  A    between atoms: C6_9  and  C7_10 
REMARK    3  A    between atoms: C7_10  and  N3_11 
REMARK    4  A    between atoms: N3_11  and  C8_12 
ROOT
HETATM    1  C2  UNL     1      23.706  -0.306  53.817  1.00  0.00     0.077 A 
HETATM    2  C3  UNL     1      24.638  -0.806  54.612  1.00  0.00     0.070 A 
HETATM    3  C4  UNL     1      25.863  -0.179  54.143  1.00  0.00     0.074 A 
HETATM    4  N1  UNL     1      27.101  -0.384  54.659  1.00  0.00    -0.241 NA
HETATM    5  C5  UNL     1      28.189   0.225  54.185  1.00  0.00     0.234 A 
HETATM    6  N2  UNL     1      28.047   1.063  53.161  1.00  0.00    -0.240 NA
HETATM    7  C6  UNL     1      26.827   1.274  52.638  1.00  0.00     0.086 A 
HETATM    8  C14 UNL     1      25.663   0.681  53.081  1.00  0.00     0.032 A 
HETATM    9  C15 UNL     1      24.367   0.619  52.869  1.00  0.00    -0.014 A 
HETATM   10  C16 UNL     1      23.762   1.441  51.761  1.00  0.00     0.052 C 
ENDROOT
BRANCH   7  11
HETATM   11  C7  UNL     1      26.729   2.114  51.638  1.00  0.00     0.121 C 
BRANCH  11  12
HETATM   12  N3  UNL     1      26.518   2.657  50.356  1.00  0.00    -0.364 N 
HETATM   13  H7  UNL     1      26.552   2.071  49.467  1.00  0.00     0.165 HD
BRANCH  12  14
HETATM   14  C8  UNL     1      26.247   3.975  49.942  1.00  0.00     0.033 A 
HETATM   15  C9  UNL     1      27.237   4.415  49.047  1.00  0.00     0.032 A 
HETATM   16  C10 UNL     1      27.199   5.692  48.493  1.00  0.00     0.046 A 
HETATM   17  C11 UNL     1      26.163   6.547  48.829  1.00  0.00     0.138 A 
HETATM   18  F1  UNL     1      26.053   7.814  48.330  1.00  0.00    -0.204 F 
HETATM   19  C12 UNL     1      25.178   6.157  49.698  1.00  0.00     0.074 A 
HETATM   20 CL1  UNL     1      23.817   7.131  50.209  1.00  0.00    -0.081 Cl
HETATM   21  C13 UNL     1      25.271   4.901  50.204  1.00  0.00     0.056 A 
ENDBRANCH  12  14
ENDBRANCH  11  12
ENDBRANCH   7  11
BRANCH   1  22
HETATM   22  O1  UNL     1      22.312  -0.447  53.680  1.00  0.00    -0.355 OA
HETATM   23  C1  UNL     1      21.710  -1.677  54.113  1.00  0.00     0.210 C 
ENDBRANCH   1  22
TORSDOF 4
ENDMDL
MODEL 7
REMARK VINA RESULT:      -7.1      3.803      5.189
REMARK  4 active torsions:
REMARK  status: ('A' for Active; 'I' for Inactive)
REMARK    1  A    between atoms: O1_2  and  C2_3 
REMARK    2  A    between atoms: C6_9  and  C7_10 
REMARK    3  A    between atoms: C7_10  and  N3_11 
REMARK    4  A    between atoms: N3_11  and  C8_12 
ROOT
HETATM    1  C2  UNL     1      19.652  -0.162  52.353  1.00  0.00     0.077 A 
HETATM    2  C3  UNL     1      19.704  -0.856  53.478  1.00  0.00     0.070 A 
HETATM    3  C4  UNL     1      21.112  -0.818  53.841  1.00  0.00     0.074 A 
HETATM    4  N1  UNL     1      21.659  -1.399  54.939  1.00  0.00    -0.241 NA
HETATM    5  C5  UNL     1      22.961  -1.326  55.219  1.00  0.00     0.234 A 
HETATM    6  N2  UNL     1      23.750  -0.656  54.383  1.00  0.00    -0.240 NA
HETATM    7  C6  UNL     1      23.221  -0.076  53.291  1.00  0.00     0.086 A 
HETATM    8  C14 UNL     1      21.888  -0.112  52.944  1.00  0.00     0.032 A 
HETATM    9  C15 UNL     1      21.025   0.293  52.037  1.00  0.00    -0.014 A 
HETATM   10  C16 UNL     1      21.513   1.111  50.870  1.00  0.00     0.052 C 
ENDROOT
BRANCH   7  11
HETATM   11  C7  UNL     1      24.031   0.582  52.499  1.00  0.00     0.121 C 
BRANCH  11  12
HETATM   12  N3  UNL     1      25.179   1.192  51.959  1.00  0.00    -0.364 N 
HETATM   13  H7  UNL     1      26.150   0.760  52.026  1.00  0.00     0.165 HD
BRANCH  12  14
HETATM   14  C8  UNL     1      25.343   2.409  51.270  1.00  0.00     0.033 A 
HETATM   15  C9  UNL     1      24.296   3.291  51.588  1.00  0.00     0.032 A 
HETATM   16  C10 UNL     1      24.227   4.566  51.031  1.00  0.00     0.046 A 
HETATM   17  C11 UNL     1      25.211   4.975  50.147  1.00  0.00     0.138 A 
HETATM   18  F1  UNL     1      25.216   6.208  49.559  1.00  0.00    -0.204 F 
HETATM   19  C12 UNL     1      26.249   4.146  49.811  1.00  0.00     0.074 A 
HETATM   20 CL1  UNL     1      27.555   4.532  48.713  1.00  0.00    -0.081 Cl
HETATM   21  C13 UNL     1      26.261   2.917  50.386  1.00  0.00     0.056 A 
ENDBRANCH  12  14
ENDBRANCH  11  12
ENDBRANCH   7  11
BRANCH   1  22
HETATM   22  O1  UNL     1      18.646   0.218  51.445  1.00  0.00    -0.355 OA
HETATM   23  C1  UNL     1      17.374  -0.445  51.527  1.00  0.00     0.210 C 
ENDBRANCH   1  22
TORSDOF 4
ENDMDL
MODEL 8
REMARK VINA RESULT:      -7.1      4.230      5.665
REMARK  4 active torsions:
REMARK  status: ('A' for Active; 'I' for Inactive)
REMARK    1  A    between atoms: O1_2  and  C2_3 
REMARK    2  A    between atoms: C6_9  and  C7_10 
REMARK    3  A    between atoms: C7_10  and  N3_11 
REMARK    4  A    between atoms: N3_11  and  C8_12 
ROOT
HETATM    1  C2  UNL     1      25.308  -0.357  53.494  1.00  0.00     0.077 A 
HETATM    2  C3  UNL     1      24.061  -0.800  53.516  1.00  0.00     0.070 A 
HETATM    3  C4  UNL     1      23.294   0.308  52.968  1.00  0.00     0.074 A 
HETATM    4  N1  UNL     1      21.949   0.322  52.789  1.00  0.00    -0.241 NA
HETATM    5  C5  UNL     1      21.302   1.371  52.278  1.00  0.00     0.234 A 
HETATM    6  N2  UNL     1      22.010   2.443  51.935  1.00  0.00    -0.240 NA
HETATM    7  C6  UNL     1      23.344   2.443  52.108  1.00  0.00     0.086 A 
HETATM    8  C14 UNL     1      24.073   1.395  52.627  1.00  0.00     0.032 A 
HETATM    9  C15 UNL     1      25.294   1.014  52.937  1.00  0.00    -0.014 A 
HETATM   10  C16 UNL     1      26.442   1.960  52.702  1.00  0.00     0.052 C 
ENDROOT
BRANCH   7  11
HETATM   11  C7  UNL     1      24.005   3.515  51.747  1.00  0.00     0.121 C 
BRANCH  11  12
HETATM   12  N3  UNL     1      24.324   4.785  51.229  1.00  0.00    -0.364 N 
HETATM   13  H7  UNL     1      23.788   5.668  51.489  1.00  0.00     0.165 HD
BRANCH  12  14
HETATM   14  C8  UNL     1      25.320   5.189  50.319  1.00  0.00     0.033 A 
HETATM   15  C9  UNL     1      26.128   4.095  49.968  1.00  0.00     0.032 A 
HETATM   16  C10 UNL     1      27.191   4.234  49.079  1.00  0.00     0.046 A 
HETATM   17  C11 UNL     1      27.458   5.476  48.528  1.00  0.00     0.138 A 
HETATM   18  F1  UNL     1      28.481   5.696  47.650  1.00  0.00    -0.204 F 
HETATM   19  C12 UNL     1      26.694   6.568  48.845  1.00  0.00     0.074 A 
HETATM   20 CL1  UNL     1      26.917   8.190  48.226  1.00  0.00    -0.081 Cl
HETATM   21  C13 UNL     1      25.672   6.369  49.716  1.00  0.00     0.056 A 
ENDBRANCH  12  14
ENDBRANCH  11  12
ENDBRANCH   7  11
BRANCH   1  22
HETATM   22  O1  UNL     1      26.568  -0.868  53.860  1.00  0.00    -0.355 OA
HETATM   23  C1  UNL     1      27.336  -1.557  52.860  1.00  0.00     0.210 C 
ENDBRANCH   1  22
TORSDOF 4
ENDMDL
MODEL 9
REMARK VINA RESULT:      -6.9      3.908      5.408
REMARK  4 active torsions:
REMARK  status: ('A' for Active; 'I' for Inactive)
REMARK    1  A    between atoms: O1_2  and  C2_3 
REMARK    2  A    between atoms: C6_9  and  C7_10 
REMARK    3  A    between atoms: C7_10  and  N3_11 
REMARK    4  A    between atoms: N3_11  and  C8_12 
ROOT
HETATM    1  C2  UNL     1      21.027  -0.373  53.175  1.00  0.00     0.077 A 
HETATM    2  C3  UNL     1      21.486  -1.095  54.184  1.00  0.00     0.070 A 
HETATM    3  C4  UNL     1      22.903  -0.766  54.225  1.00  0.00     0.074 A 
HETATM    4  N1  UNL     1      23.802  -1.268  55.108  1.00  0.00    -0.241 NA
HETATM    5  C5  UNL     1      25.091  -0.923  55.096  1.00  0.00     0.234 A 
HETATM    6  N2  UNL     1      25.504  -0.055  54.177  1.00  0.00    -0.240 NA
HETATM    7  C6  UNL     1      24.623   0.449  53.295  1.00  0.00     0.086 A 
HETATM    8  C14 UNL     1      23.281   0.138  53.253  1.00  0.00     0.032 A 
HETATM    9  C15 UNL     1      22.162   0.389  52.607  1.00  0.00    -0.014 A 
HETATM   10  C16 UNL     1      22.180   1.352  51.450  1.00  0.00     0.052 C 
ENDROOT
BRANCH   7  11
HETATM   11  C7  UNL     1      25.068   1.309  52.413  1.00  0.00     0.121 C 
BRANCH  11  12
HETATM   12  N3  UNL     1      25.922   2.065  51.586  1.00  0.00    -0.364 N 
HETATM   13  H7  UNL     1      26.951   1.829  51.448  1.00  0.00     0.165 HD
BRANCH  12  14
HETATM   14  C8  UNL     1      25.681   3.216  50.813  1.00  0.00     0.033 A 
HETATM   15  C9  UNL     1      26.735   3.422  49.907  1.00  0.00     0.032 A 
HETATM   16  C10 UNL     1      26.736   4.501  49.027  1.00  0.00     0.046 A 
HETATM   17  C11 UNL     1      25.675   5.391  49.043  1.00  0.00     0.138 A 
HETATM   18  F1  UNL     1      25.600   6.474  48.214  1.00  0.00    -0.204 F 
HETATM   19  C12 UNL     1      24.627   5.227  49.911  1.00  0.00     0.074 A 
HETATM   20 CL1  UNL     1      23.228   6.270  50.039  1.00  0.00    -0.081 Cl
HETATM   21  C13 UNL     1      24.684   4.156  50.743  1.00  0.00     0.056 A 
ENDBRANCH  12  14
ENDBRANCH  11  12
ENDBRANCH   7  11
BRANCH   1  22
HETATM   22  O1  UNL     1      19.776  -0.179  52.559  1.00  0.00    -0.355 OA
HETATM   23  C1  UNL     1      18.641  -0.878  53.093  1.00  0.00     0.210 C 
ENDBRANCH   1  22
TORSDOF 4
ENDMDL
