MODEL 1
REMARK VINA RESULT:      -9.7      0.000      0.000
REMARK  4 active torsions:
REMARK  status: ('A' for Active; 'I' for Inactive)
REMARK    1  A    between atoms: C2_2  and  C3_3 
REMARK    2  A    between atoms: C8_9  and  N2_10 
REMARK       I    between atoms: N2_10  and  C9_11 
REMARK    3  A    between atoms: C9_11  and  C10_13 
REMARK    4  A    between atoms: C24_30  and  O3_31 
ROOT
HETATM    1  C3  UNL     1      26.992   2.026  52.480  1.00  0.00     0.065 C 
HETATM    2  C4  UNL     1      26.418   2.078  51.100  1.00  0.00     0.004 C 
HETATM    3  C5  UNL     1      26.477   2.721  49.954  1.00  0.00     0.114 C 
HETATM    4  N1  UNL     1      27.162   3.800  49.344  1.00  0.00    -0.259 NA
HETATM    5  C6  UNL     1      26.458   4.898  49.172  1.00  0.00     0.087 C 
HETATM    6  C7  UNL     1      27.461   5.775  48.535  1.00  0.00     0.061 C 
HETATM    7  C8  UNL     1      27.411   6.988  47.991  1.00  0.00     0.038 C 
HETATM    8  C12 UNL     1      26.373   8.014  47.767  1.00  0.00     0.231 C 
HETATM    9  O2  UNL     1      25.421   8.181  48.749  1.00  0.00    -0.357 OA
HETATM   10  C13 UNL     1      24.408   7.562  49.466  1.00  0.00     0.137 C 
HETATM   11  C14 UNL     1      24.282   6.283  49.782  1.00  0.00     0.058 C 
HETATM   12  C15 UNL     1      25.038   5.056  49.567  1.00  0.00     0.088 C 
HETATM   13  N3  UNL     1      24.317   4.024  49.761  1.00  0.00    -0.240 NA
HETATM   14  C16 UNL     1      22.966   3.978  50.134  1.00  0.00     0.227 C 
HETATM   15  N4  UNL     1      22.553   3.770  51.359  1.00  0.00    -0.278 NA
HETATM   16  C17 UNL     1      23.549   3.570  52.424  1.00  0.00     0.189 C 
HETATM   17  C18 UNL     1      23.574   2.121  52.733  1.00  0.00    -0.029 A 
HETATM   18  C19 UNL     1      22.437   1.366  52.507  1.00  0.00     0.009 A 
HETATM   19  C20 UNL     1      22.294   0.016  52.744  1.00  0.00     0.001 A 
HETATM   20  C21 UNL     1      23.407  -0.612  53.256  1.00  0.00     0.001 A 
HETATM   21  C22 UNL     1      24.563   0.097  53.497  1.00  0.00     0.010 A 
HETATM   22  C23 UNL     1      24.689   1.444  53.254  1.00  0.00    -0.021 A 
HETATM   23  C24 UNL     1      25.876   2.278  53.477  1.00  0.00     0.163 C 
ENDROOT
BRANCH   7  24
HETATM   24  N2  UNL     1      28.732   7.341  47.519  1.00  0.00    -0.329 N 
HETATM   25  C9  UNL     1      29.421   8.215  48.378  1.00  0.00     0.221 C 
HETATM   26  O1  UNL     1      29.049   8.715  49.472  1.00  0.00    -0.273 OA
HETATM   27  H8  UNL     1      29.239   7.045  46.645  1.00  0.00     0.168 HD
BRANCH  25  28
HETATM   28  C10 UNL     1      30.809   8.731  48.114  1.00  0.00     0.098 C 
HETATM   29  C11 UNL     1      31.664   8.331  49.300  1.00  0.00     0.014 C 
ENDBRANCH  25  28
ENDBRANCH   7  24
BRANCH   1  30
HETATM   30  C2  UNL     1      27.516   0.635  52.667  1.00  0.00    -0.025 C 
HETATM   31  C1  UNL     1      28.757   0.457  53.163  1.00  0.00     0.007 C 
ENDBRANCH   1  30
BRANCH  23  32
HETATM   32  O3  UNL     1      26.403   1.903  54.736  1.00  0.00    -0.390 OA
HETATM   33  H26 UNL     1      26.712   0.975  54.745  1.00  0.00     0.210 HD
ENDBRANCH  23  32
TORSDOF 4
ENDMDL
MODEL 2
REMARK VINA RESULT:      -9.4      1.057      1.136
REMARK  4 active torsions:
REMARK  status: ('A' for Active; 'I' for Inactive)
REMARK    1  A    between atoms: C2_2  and  C3_3 
REMARK    2  A    between atoms: C8_9  and  N2_10 
REMARK       I    between atoms: N2_10  and  C9_11 
REMARK    3  A    between atoms: C9_11  and  C10_13 
REMARK    4  A    between atoms: C24_30  and  O3_31 
ROOT
HETATM    1  C3  UNL     1      26.718   2.081  52.165  1.00  0.00     0.065 C 
HETATM    2  C4  UNL     1      26.154   2.344  50.805  1.00  0.00     0.004 C 
HETATM    3  C5  UNL     1      26.360   3.003  49.684  1.00  0.00     0.114 C 
HETATM    4  N1  UNL     1      27.293   3.893  49.100  1.00  0.00    -0.259 NA
HETATM    5  C6  UNL     1      26.898   5.143  48.992  1.00  0.00     0.087 C 
HETATM    6  C7  UNL     1      28.085   5.757  48.363  1.00  0.00     0.061 C 
HETATM    7  C8  UNL     1      28.345   6.965  47.870  1.00  0.00     0.038 C 
HETATM    8  C12 UNL     1      27.608   8.236  47.717  1.00  0.00     0.231 C 
HETATM    9  O2  UNL     1      26.750   8.599  48.733  1.00  0.00    -0.357 OA
HETATM   10  C13 UNL     1      25.623   8.233  49.453  1.00  0.00     0.137 C 
HETATM   11  C14 UNL     1      25.171   7.018  49.720  1.00  0.00     0.058 C 
HETATM   12  C15 UNL     1      25.576   5.648  49.434  1.00  0.00     0.088 C 
HETATM   13  N3  UNL     1      24.613   4.831  49.606  1.00  0.00    -0.240 NA
HETATM   14  C16 UNL     1      23.304   5.122  50.016  1.00  0.00     0.227 C 
HETATM   15  N4  UNL     1      22.872   4.972  51.242  1.00  0.00    -0.278 NA
HETATM   16  C17 UNL     1      23.799   4.470  52.270  1.00  0.00     0.189 C 
HETATM   17  C18 UNL     1      23.449   3.052  52.519  1.00  0.00    -0.029 A 
HETATM   18  C19 UNL     1      22.150   2.631  52.295  1.00  0.00     0.009 A 
HETATM   19  C20 UNL     1      21.663   1.355  52.482  1.00  0.00     0.001 A 
HETATM   20  C21 UNL     1      22.581   0.435  52.935  1.00  0.00     0.001 A 
HETATM   21  C22 UNL     1      23.887   0.807  53.172  1.00  0.00     0.010 A 
HETATM   22  C23 UNL     1      24.357   2.084  52.980  1.00  0.00    -0.021 A 
HETATM   23  C24 UNL     1      25.724   2.568  53.202  1.00  0.00     0.163 C 
ENDROOT
BRANCH   7  24
HETATM   24  N2  UNL     1      29.703   6.983  47.375  1.00  0.00    -0.329 N 
HETATM   25  C9  UNL     1      30.613   7.598  48.253  1.00  0.00     0.221 C 
HETATM   26  O1  UNL     1      30.406   8.119  49.380  1.00  0.00    -0.273 OA
HETATM   27  H8  UNL     1      30.099   6.612  46.473  1.00  0.00     0.168 HD
BRANCH  25  28
HETATM   28  C10 UNL     1      32.084   7.744  47.971  1.00  0.00     0.098 C 
HETATM   29  C11 UNL     1      32.594   6.379  47.555  1.00  0.00     0.014 C 
ENDBRANCH  25  28
ENDBRANCH   7  24
BRANCH   1  30
HETATM   30  C2  UNL     1      26.863   0.594  52.279  1.00  0.00    -0.025 C 
HETATM   31  C1  UNL     1      27.984   0.079  52.823  1.00  0.00     0.007 C 
ENDBRANCH   1  30
BRANCH  23  32
HETATM   32  O3  UNL     1      26.156   2.010  54.429  1.00  0.00    -0.390 OA
HETATM   33  H26 UNL     1      26.932   2.480  54.795  1.00  0.00     0.210 HD
ENDBRANCH  23  32
TORSDOF 4
ENDMDL
MODEL 3
REMARK VINA RESULT:      -8.6      3.474      6.381
REMARK  4 active torsions:
REMARK  status: ('A' for Active; 'I' for Inactive)
REMARK    1  A    between atoms: C2_2  and  C3_3 
REMARK    2  A    between atoms: C8_9  and  N2_10 
REMARK       I    between atoms: N2_10  and  C9_11 
REMARK    3  A    between atoms: C9_11  and  C10_13 
REMARK    4  A    between atoms: C24_30  and  O3_31 
ROOT
HETATM    1  C3  UNL     1      25.404   5.485  50.211  1.00  0.00     0.065 C 
HETATM    2  C4  UNL     1      26.016   5.840  48.895  1.00  0.00     0.004 C 
HETATM    3  C5  UNL     1      27.144   5.832  48.216  1.00  0.00     0.114 C 
HETATM    4  N1  UNL     1      28.502   5.459  48.365  1.00  0.00    -0.259 NA
HETATM    5  C6  UNL     1      29.354   6.452  48.499  1.00  0.00     0.087 C 
HETATM    6  C7  UNL     1      30.626   5.711  48.626  1.00  0.00     0.061 C 
HETATM    7  C8  UNL     1      31.904   6.079  48.680  1.00  0.00     0.038 C 
HETATM    8  C12 UNL     1      32.650   7.352  48.643  1.00  0.00     0.231 C 
HETATM    9  O2  UNL     1      32.089   8.436  49.283  1.00  0.00    -0.357 OA
HETATM   10  C13 UNL     1      30.991   9.282  49.334  1.00  0.00     0.137 C 
HETATM   11  C14 UNL     1      29.735   9.025  49.007  1.00  0.00     0.058 C 
HETATM   12  C15 UNL     1      28.980   7.886  48.500  1.00  0.00     0.088 C 
HETATM   13  N3  UNL     1      27.862   8.249  48.008  1.00  0.00    -0.240 NA
HETATM   14  C16 UNL     1      27.344   9.548  47.921  1.00  0.00     0.227 C 
HETATM   15  N4  UNL     1      26.464  10.040  48.756  1.00  0.00    -0.278 NA
HETATM   16  C17 UNL     1      25.977   9.198  49.860  1.00  0.00     0.189 C 
HETATM   17  C18 UNL     1      24.615   8.743  49.495  1.00  0.00    -0.029 A 
HETATM   18  C19 UNL     1      23.850   9.525  48.648  1.00  0.00     0.009 A 
HETATM   19  C20 UNL     1      22.570   9.249  48.217  1.00  0.00     0.001 A 
HETATM   20  C21 UNL     1      22.028   8.077  48.694  1.00  0.00     0.001 A 
HETATM   21  C22 UNL     1      22.751   7.266  49.541  1.00  0.00     0.010 A 
HETATM   22  C23 UNL     1      24.028   7.555  49.960  1.00  0.00    -0.021 A 
HETATM   23  C24 UNL     1      24.871   6.752  50.853  1.00  0.00     0.163 C 
ENDROOT
BRANCH   7  24
HETATM   24  N2  UNL     1      32.723   4.894  48.808  1.00  0.00    -0.329 N 
HETATM   25  C9  UNL     1      33.131   4.356  47.575  1.00  0.00     0.221 C 
HETATM   26  O1  UNL     1      32.884   4.760  46.408  1.00  0.00    -0.273 OA
HETATM   27  H8  UNL     1      33.049   4.387  49.671  1.00  0.00     0.168 HD
BRANCH  25  28
HETATM   28  C10 UNL     1      33.988   3.127  47.436  1.00  0.00     0.098 C 
HETATM   29  C11 UNL     1      33.110   1.936  47.764  1.00  0.00     0.014 C 
ENDBRANCH  25  28
ENDBRANCH   7  24
BRANCH   1  30
HETATM   30  C2  UNL     1      24.259   4.566  49.910  1.00  0.00    -0.025 C 
HETATM   31  C1  UNL     1      24.481   3.238  49.831  1.00  0.00     0.007 C 
ENDBRANCH   1  30
BRANCH  23  32
HETATM   32  O3  UNL     1      24.038   6.317  51.912  1.00  0.00    -0.390 OA
HETATM   33  H26 UNL     1      23.187   5.960  51.589  1.00  0.00     0.210 HD
ENDBRANCH  23  32
TORSDOF 4
ENDMDL
MODEL 4
REMARK VINA RESULT:      -8.5      5.296      9.228
REMARK  4 active torsions:
REMARK  status: ('A' for Active; 'I' for Inactive)
REMARK    1  A    between atoms: C2_2  and  C3_3 
REMARK    2  A    between atoms: C8_9  and  N2_10 
REMARK       I    between atoms: N2_10  and  C9_11 
REMARK    3  A    between atoms: C9_11  and  C10_13 
REMARK    4  A    between atoms: C24_30  and  O3_31 
ROOT
HETATM    1  C3  UNL     1      27.591   8.169  49.391  1.00  0.00     0.065 C 
HETATM    2  C4  UNL     1      28.285   7.992  48.078  1.00  0.00     0.004 C 
HETATM    3  C5  UNL     1      29.184   7.268  47.446  1.00  0.00     0.114 C 
HETATM    4  N1  UNL     1      30.059   6.178  47.672  1.00  0.00    -0.259 NA
HETATM    5  C6  UNL     1      31.334   6.483  47.773  1.00  0.00     0.087 C 
HETATM    6  C7  UNL     1      31.922   5.147  47.999  1.00  0.00     0.061 C 
HETATM    7  C8  UNL     1      33.170   4.691  48.078  1.00  0.00     0.038 C 
HETATM    8  C12 UNL     1      34.525   5.271  47.986  1.00  0.00     0.231 C 
HETATM    9  O2  UNL     1      34.720   6.522  48.531  1.00  0.00    -0.357 OA
HETATM   10  C13 UNL     1      34.335   7.854  48.483  1.00  0.00     0.137 C 
HETATM   11  C14 UNL     1      33.168   8.364  48.124  1.00  0.00     0.058 C 
HETATM   12  C15 UNL     1      31.882   7.856  47.665  1.00  0.00     0.088 C 
HETATM   13  N3  UNL     1      31.191   8.770  47.106  1.00  0.00    -0.240 NA
HETATM   14  C16 UNL     1      31.541  10.113  46.914  1.00  0.00     0.227 C 
HETATM   15  N4  UNL     1      31.130  11.092  47.679  1.00  0.00    -0.278 NA
HETATM   16  C17 UNL     1      30.247  10.787  48.817  1.00  0.00     0.189 C 
HETATM   17  C18 UNL     1      28.877  11.198  48.430  1.00  0.00    -0.029 A 
HETATM   18  C19 UNL     1      28.717  12.213  47.504  1.00  0.00     0.009 A 
HETATM   19  C20 UNL     1      27.519  12.714  47.043  1.00  0.00     0.001 A 
HETATM   20  C21 UNL     1      26.392  12.129  47.575  1.00  0.00     0.001 A 
HETATM   21  C22 UNL     1      26.501  11.115  48.501  1.00  0.00     0.010 A 
HETATM   22  C23 UNL     1      27.705  10.626  48.950  1.00  0.00    -0.021 A 
HETATM   23  C24 UNL     1      27.916   9.550  49.926  1.00  0.00     0.163 C 
ENDROOT
BRANCH   7  24
HETATM   24  N2  UNL     1      33.130   3.265  48.316  1.00  0.00    -0.329 N 
HETATM   25  C9  UNL     1      32.730   2.519  47.194  1.00  0.00     0.221 C 
HETATM   26  O1  UNL     1      32.411   2.918  46.043  1.00  0.00    -0.273 OA
HETATM   27  H8  UNL     1      33.352   2.719  49.188  1.00  0.00     0.168 HD
BRANCH  25  28
HETATM   28  C10 UNL     1      32.608   1.020  47.182  1.00  0.00     0.098 C 
HETATM   29  C11 UNL     1      31.411   0.679  46.316  1.00  0.00     0.014 C 
ENDBRANCH  25  28
ENDBRANCH   7  24
BRANCH   1  30
HETATM   30  C2  UNL     1      26.122   8.083  49.106  1.00  0.00    -0.025 C 
HETATM   31  C1  UNL     1      25.446   6.969  49.452  1.00  0.00     0.007 C 
ENDBRANCH   1  30
BRANCH  23  32
HETATM   32  O3  UNL     1      26.996   9.774  50.978  1.00  0.00    -0.390 OA
HETATM   33  H26 UNL     1      26.704  10.706  51.021  1.00  0.00     0.210 HD
ENDBRANCH  23  32
TORSDOF 4
ENDMDL
MODEL 5
REMARK VINA RESULT:      -8.1      3.206      5.809
REMARK  4 active torsions:
REMARK  status: ('A' for Active; 'I' for Inactive)
REMARK    1  A    between atoms: C2_2  and  C3_3 
REMARK    2  A    between atoms: C8_9  and  N2_10 
REMARK       I    between atoms: N2_10  and  C9_11 
REMARK    3  A    between atoms: C9_11  and  C10_13 
REMARK    4  A    between atoms: C24_30  and  O3_31 
ROOT
HETATM    1  C3  UNL     1      19.333   2.839  50.752  1.00  0.00     0.065 C 
HETATM    2  C4  UNL     1      20.217   3.388  51.825  1.00  0.00     0.004 C 
HETATM    3  C5  UNL     1      21.059   4.359  52.109  1.00  0.00     0.114 C 
HETATM    4  N1  UNL     1      21.641   5.504  51.513  1.00  0.00    -0.259 NA
HETATM    5  C6  UNL     1      22.908   5.391  51.179  1.00  0.00     0.087 C 
HETATM    6  C7  UNL     1      23.165   6.729  50.608  1.00  0.00     0.061 C 
HETATM    7  C8  UNL     1      24.259   7.350  50.174  1.00  0.00     0.038 C 
HETATM    8  C12 UNL     1      25.694   7.023  50.052  1.00  0.00     0.231 C 
HETATM    9  O2  UNL     1      26.024   5.734  49.693  1.00  0.00    -0.357 OA
HETATM   10  C13 UNL     1      25.927   4.397  50.047  1.00  0.00     0.137 C 
HETATM   11  C14 UNL     1      24.976   3.792  50.740  1.00  0.00     0.058 C 
HETATM   12  C15 UNL     1      23.727   4.173  51.386  1.00  0.00     0.088 C 
HETATM   13  N3  UNL     1      23.352   3.295  52.230  1.00  0.00    -0.240 NA
HETATM   14  C16 UNL     1      23.991   2.092  52.559  1.00  0.00     0.227 C 
HETATM   15  N4  UNL     1      23.643   0.925  52.079  1.00  0.00    -0.278 NA
HETATM   16  C17 UNL     1      22.516   0.848  51.136  1.00  0.00     0.189 C 
HETATM   17  C18 UNL     1      21.354   0.313  51.885  1.00  0.00    -0.029 A 
HETATM   18  C19 UNL     1      21.580  -0.504  52.979  1.00  0.00     0.009 A 
HETATM   19  C20 UNL     1      20.615  -1.084  53.775  1.00  0.00     0.001 A 
HETATM   20  C21 UNL     1      19.314  -0.806  53.422  1.00  0.00     0.001 A 
HETATM   21  C22 UNL     1      19.041   0.003  52.340  1.00  0.00     0.010 A 
HETATM   22  C23 UNL     1      20.014   0.574  51.557  1.00  0.00    -0.021 A 
HETATM   23  C24 UNL     1      19.817   1.447  50.393  1.00  0.00     0.163 C 
ENDROOT
BRANCH   7  24
HETATM   24  N2  UNL     1      23.893   8.673  49.718  1.00  0.00    -0.329 N 
HETATM   25  C9  UNL     1      23.569   8.726  48.351  1.00  0.00     0.221 C 
HETATM   26  O1  UNL     1      23.557   7.800  47.498  1.00  0.00    -0.273 OA
HETATM   27  H8  UNL     1      23.835   9.580  50.249  1.00  0.00     0.168 HD
BRANCH  25  28
HETATM   28  C10 UNL     1      23.156   9.982  47.633  1.00  0.00     0.098 C 
HETATM   29  C11 UNL     1      21.687  10.203  47.935  1.00  0.00     0.014 C 
ENDBRANCH  25  28
ENDBRANCH   7  24
BRANCH   1  30
HETATM   30  C2  UNL     1      17.959   2.747  51.342  1.00  0.00    -0.025 C 
HETATM   31  C1  UNL     1      17.216   3.866  51.464  1.00  0.00     0.007 C 
ENDBRANCH   1  30
BRANCH  23  32
HETATM   32  O3  UNL     1      18.775   0.870  49.628  1.00  0.00    -0.390 OA
HETATM   33  H26 UNL     1      17.956   0.751  50.151  1.00  0.00     0.210 HD
ENDBRANCH  23  32
TORSDOF 4
ENDMDL
MODEL 6
REMARK VINA RESULT:      -7.9      8.230     11.341
REMARK  4 active torsions:
REMARK  status: ('A' for Active; 'I' for Inactive)
REMARK    1  A    between atoms: C2_2  and  C3_3 
REMARK    2  A    between atoms: C8_9  and  N2_10 
REMARK       I    between atoms: N2_10  and  C9_11 
REMARK    3  A    between atoms: C9_11  and  C10_13 
REMARK    4  A    between atoms: C24_30  and  O3_31 
ROOT
HETATM    1  C3  UNL     1      33.973   3.965  46.834  1.00  0.00     0.065 C 
HETATM    2  C4  UNL     1      33.086   4.662  45.853  1.00  0.00     0.004 C 
HETATM    3  C5  UNL     1      32.925   4.924  44.574  1.00  0.00     0.114 C 
HETATM    4  N1  UNL     1      33.544   4.676  43.324  1.00  0.00    -0.259 NA
HETATM    5  C6  UNL     1      34.163   5.703  42.782  1.00  0.00     0.087 C 
HETATM    6  C7  UNL     1      34.671   5.094  41.536  1.00  0.00     0.061 C 
HETATM    7  C8  UNL     1      35.289   5.577  40.461  1.00  0.00     0.038 C 
HETATM    8  C12 UNL     1      35.756   6.901  40.004  1.00  0.00     0.231 C 
HETATM    9  O2  UNL     1      36.280   7.753  40.952  1.00  0.00    -0.357 OA
HETATM   10  C13 UNL     1      36.019   8.443  42.127  1.00  0.00     0.137 C 
HETATM   11  C14 UNL     1      35.180   8.130  43.100  1.00  0.00     0.058 C 
HETATM   12  C15 UNL     1      34.241   7.053  43.388  1.00  0.00     0.088 C 
HETATM   13  N3  UNL     1      33.405   7.391  44.289  1.00  0.00    -0.240 NA
HETATM   14  C16 UNL     1      33.324   8.614  44.969  1.00  0.00     0.227 C 
HETATM   15  N4  UNL     1      33.803   8.815  46.171  1.00  0.00    -0.278 NA
HETATM   16  C17 UNL     1      34.472   7.705  46.868  1.00  0.00     0.189 C 
HETATM   17  C18 UNL     1      33.525   7.196  47.888  1.00  0.00    -0.029 A 
HETATM   18  C19 UNL     1      32.577   8.056  48.413  1.00  0.00     0.009 A 
HETATM   19  C20 UNL     1      31.632   7.743  49.367  1.00  0.00     0.001 A 
HETATM   20  C21 UNL     1      31.661   6.444  49.820  1.00  0.00     0.001 A 
HETATM   21  C22 UNL     1      32.586   5.551  49.327  1.00  0.00     0.010 A 
HETATM   22  C23 UNL     1      33.522   5.879  48.375  1.00  0.00    -0.021 A 
HETATM   23  C24 UNL     1      34.539   4.996  47.791  1.00  0.00     0.163 C 
ENDROOT
BRANCH   7  24
HETATM   24  N2  UNL     1      35.547   4.489  39.544  1.00  0.00    -0.329 N 
HETATM   25  C9  UNL     1      34.474   4.219  38.677  1.00  0.00     0.221 C 
HETATM   26  O1  UNL     1      33.352   4.785  38.596  1.00  0.00    -0.273 OA
HETATM   27  H8  UNL     1      36.401   3.883  39.437  1.00  0.00     0.168 HD
BRANCH  25  28
HETATM   28  C10 UNL     1      34.490   3.137  37.632  1.00  0.00     0.098 C 
HETATM   29  C11 UNL     1      33.972   1.875  38.292  1.00  0.00     0.014 C 
ENDBRANCH  25  28
ENDBRANCH   7  24
BRANCH   1  30
HETATM   30  C2  UNL     1      33.098   3.015  47.593  1.00  0.00    -0.025 C 
HETATM   31  C1  UNL     1      32.758   1.837  47.032  1.00  0.00     0.007 C 
ENDBRANCH   1  30
BRANCH  23  32
HETATM   32  O3  UNL     1      35.093   4.254  48.862  1.00  0.00    -0.390 OA
HETATM   33  H26 UNL     1      36.066   4.177  48.794  1.00  0.00     0.210 HD
ENDBRANCH  23  32
TORSDOF 4
ENDMDL
MODEL 7
REMARK VINA RESULT:      -7.8      4.673      6.758
REMARK  4 active torsions:
REMARK  status: ('A' for Active; 'I' for Inactive)
REMARK    1  A    between atoms: C2_2  and  C3_3 
REMARK    2  A    between atoms: C8_9  and  N2_10 
REMARK       I    between atoms: N2_10  and  C9_11 
REMARK    3  A    between atoms: C9_11  and  C10_13 
REMARK    4  A    between atoms: C24_30  and  O3_31 
ROOT
HETATM    1  C3  UNL     1      24.111   3.821  50.565  1.00  0.00     0.065 C 
HETATM    2  C4  UNL     1      23.604   2.742  49.663  1.00  0.00     0.004 C 
HETATM    3  C5  UNL     1      22.950   2.520  48.543  1.00  0.00     0.114 C 
HETATM    4  N1  UNL     1      22.315   3.229  47.494  1.00  0.00    -0.259 NA
HETATM    5  C6  UNL     1      21.000   3.196  47.499  1.00  0.00     0.087 C 
HETATM    6  C7  UNL     1      20.697   4.013  46.306  1.00  0.00     0.061 C 
HETATM    7  C8  UNL     1      19.576   4.306  45.651  1.00  0.00     0.038 C 
HETATM    8  C12 UNL     1      18.143   3.977  45.789  1.00  0.00     0.231 C 
HETATM    9  O2  UNL     1      17.629   3.893  47.065  1.00  0.00    -0.357 OA
HETATM   10  C13 UNL     1      17.719   3.239  48.285  1.00  0.00     0.137 C 
HETATM   11  C14 UNL     1      18.776   2.673  48.843  1.00  0.00     0.058 C 
HETATM   12  C15 UNL     1      20.180   2.481  48.506  1.00  0.00     0.088 C 
HETATM   13  N3  UNL     1      20.707   1.558  49.210  1.00  0.00    -0.240 NA
HETATM   14  C16 UNL     1      20.095   0.779  50.201  1.00  0.00     0.227 C 
HETATM   15  N4  UNL     1      20.207   1.009  51.485  1.00  0.00    -0.278 NA
HETATM   16  C17 UNL     1      21.019   2.150  51.938  1.00  0.00     0.189 C 
HETATM   17  C18 UNL     1      22.298   1.601  52.446  1.00  0.00    -0.029 A 
HETATM   18  C19 UNL     1      22.324   0.312  52.948  1.00  0.00     0.009 A 
HETATM   19  C20 UNL     1      23.424  -0.341  53.460  1.00  0.00     0.001 A 
HETATM   20  C21 UNL     1      24.593   0.386  53.460  1.00  0.00     0.001 A 
HETATM   21  C22 UNL     1      24.617   1.673  52.971  1.00  0.00     0.010 A 
HETATM   22  C23 UNL     1      23.510   2.310  52.462  1.00  0.00    -0.021 A 
HETATM   23  C24 UNL     1      23.443   3.672  51.918  1.00  0.00     0.163 C 
ENDROOT
BRANCH   7  24
HETATM   24  N2  UNL     1      19.901   5.167  44.536  1.00  0.00    -0.329 N 
HETATM   25  C9  UNL     1      20.237   4.467  43.364  1.00  0.00     0.221 C 
HETATM   26  O1  UNL     1      20.291   3.225  43.166  1.00  0.00    -0.273 OA
HETATM   27  H8  UNL     1      19.922   6.218  44.477  1.00  0.00     0.168 HD
BRANCH  25  28
HETATM   28  C10 UNL     1      20.615   5.131  42.068  1.00  0.00     0.098 C 
HETATM   29  C11 UNL     1      20.166   4.210  40.951  1.00  0.00     0.014 C 
ENDBRANCH  25  28
ENDBRANCH   7  24
BRANCH   1  30
HETATM   30  C2  UNL     1      25.584   3.589  50.713  1.00  0.00    -0.025 C 
HETATM   31  C1  UNL     1      26.306   3.218  49.637  1.00  0.00     0.007 C 
ENDBRANCH   1  30
BRANCH  23  32
HETATM   32  O3  UNL     1      24.185   4.495  52.799  1.00  0.00    -0.390 OA
HETATM   33  H26 UNL     1      25.144   4.302  52.765  1.00  0.00     0.210 HD
ENDBRANCH  23  32
TORSDOF 4
ENDMDL
MODEL 8
REMARK VINA RESULT:      -7.8      4.798      9.141
REMARK  4 active torsions:
REMARK  status: ('A' for Active; 'I' for Inactive)
REMARK    1  A    between atoms: C2_2  and  C3_3 
REMARK    2  A    between atoms: C8_9  and  N2_10 
REMARK       I    between atoms: N2_10  and  C9_11 
REMARK    3  A    between atoms: C9_11  and  C10_13 
REMARK    4  A    between atoms: C24_30  and  O3_31 
ROOT
HETATM    1  C3  UNL     1      22.952   3.677  50.705  1.00  0.00     0.065 C 
HETATM    2  C4  UNL     1      22.653   2.309  50.182  1.00  0.00     0.004 C 
HETATM    3  C5  UNL     1      21.679   1.518  49.782  1.00  0.00     0.114 C 
HETATM    4  N1  UNL     1      20.273   1.522  49.614  1.00  0.00    -0.259 NA
HETATM    5  C6  UNL     1      19.593   0.822  50.496  1.00  0.00     0.087 C 
HETATM    6  C7  UNL     1      18.211   1.050  50.025  1.00  0.00     0.061 C 
HETATM    7  C8  UNL     1      17.026   0.559  50.376  1.00  0.00     0.038 C 
HETATM    8  C12 UNL     1      16.526  -0.412  51.370  1.00  0.00     0.231 C 
HETATM    9  O2  UNL     1      17.140  -0.433  52.604  1.00  0.00    -0.357 OA
HETATM   10  C13 UNL     1      18.340  -0.629  53.272  1.00  0.00     0.137 C 
HETATM   11  C14 UNL     1      19.572  -0.419  52.838  1.00  0.00     0.058 C 
HETATM   12  C15 UNL     1      20.199   0.060  51.613  1.00  0.00     0.088 C 
HETATM   13  N3  UNL     1      21.432  -0.259  51.564  1.00  0.00    -0.240 NA
HETATM   14  C16 UNL     1      22.171  -0.974  52.517  1.00  0.00     0.227 C 
HETATM   15  N4  UNL     1      22.959  -0.414  53.400  1.00  0.00    -0.278 NA
HETATM   16  C17 UNL     1      23.091   1.052  53.413  1.00  0.00     0.189 C 
HETATM   17  C18 UNL     1      24.399   1.378  52.797  1.00  0.00    -0.029 A 
HETATM   18  C19 UNL     1      25.424   0.452  52.867  1.00  0.00     0.009 A 
HETATM   19  C20 UNL     1      26.694   0.601  52.352  1.00  0.00     0.001 A 
HETATM   20  C21 UNL     1      26.935   1.798  51.716  1.00  0.00     0.001 A 
HETATM   21  C22 UNL     1      25.945   2.752  51.622  1.00  0.00     0.010 A 
HETATM   22  C23 UNL     1      24.683   2.587  52.140  1.00  0.00    -0.021 A 
HETATM   23  C24 UNL     1      23.569   3.542  52.084  1.00  0.00     0.163 C 
ENDROOT
BRANCH   7  24
HETATM   24  N2  UNL     1      16.007   1.163  49.547  1.00  0.00    -0.329 N 
HETATM   25  C9  UNL     1      15.394   2.283  50.136  1.00  0.00     0.221 C 
HETATM   26  O1  UNL     1      15.609   2.811  51.258  1.00  0.00    -0.273 OA
HETATM   27  H8  UNL     1      15.667   0.892  48.589  1.00  0.00     0.168 HD
BRANCH  25  28
HETATM   28  C10 UNL     1      14.305   3.087  49.479  1.00  0.00     0.098 C 
HETATM   29  C11 UNL     1      14.498   4.528  49.908  1.00  0.00     0.014 C 
ENDBRANCH  25  28
ENDBRANCH   7  24
BRANCH   1  30
HETATM   30  C2  UNL     1      23.958   4.275  49.770  1.00  0.00    -0.025 C 
HETATM   31  C1  UNL     1      23.553   4.734  48.569  1.00  0.00     0.007 C 
ENDBRANCH   1  30
BRANCH  23  32
HETATM   32  O3  UNL     1      24.114   4.815  52.380  1.00  0.00    -0.390 OA
HETATM   33  H26 UNL     1      23.626   5.537  51.936  1.00  0.00     0.210 HD
ENDBRANCH  23  32
TORSDOF 4
ENDMDL
MODEL 9
REMARK VINA RESULT:      -7.6      2.061      2.582
REMARK  4 active torsions:
REMARK  status: ('A' for Active; 'I' for Inactive)
REMARK    1  A    between atoms: C2_2  and  C3_3 
REMARK    2  A    between atoms: C8_9  and  N2_10 
REMARK       I    between atoms: N2_10  and  C9_11 
REMARK    3  A    between atoms: C9_11  and  C10_13 
REMARK    4  A    between atoms: C24_30  and  O3_31 
ROOT
HETATM    1  C3  UNL     1      25.184   2.803  51.802  1.00  0.00     0.065 C 
HETATM    2  C4  UNL     1      24.482   2.986  50.494  1.00  0.00     0.004 C 
HETATM    3  C5  UNL     1      24.375   3.785  49.454  1.00  0.00     0.114 C 
HETATM    4  N1  UNL     1      24.899   5.004  48.958  1.00  0.00    -0.259 NA
HETATM    5  C6  UNL     1      24.084   6.035  49.005  1.00  0.00     0.087 C 
HETATM    6  C7  UNL     1      24.940   7.092  48.427  1.00  0.00     0.061 C 
HETATM    7  C8  UNL     1      24.728   8.357  48.073  1.00  0.00     0.038 C 
HETATM    8  C12 UNL     1      23.585   9.291  48.085  1.00  0.00     0.231 C 
HETATM    9  O2  UNL     1      22.717   9.220  49.154  1.00  0.00    -0.357 OA
HETATM   10  C13 UNL     1      21.836   8.406  49.849  1.00  0.00     0.137 C 
HETATM   11  C14 UNL     1      21.857   7.089  49.982  1.00  0.00     0.058 C 
HETATM   12  C15 UNL     1      22.699   5.989  49.530  1.00  0.00     0.088 C 
HETATM   13  N3  UNL     1      22.096   4.870  49.626  1.00  0.00    -0.240 NA
HETATM   14  C16 UNL     1      20.796   4.633  50.093  1.00  0.00     0.227 C 
HETATM   15  N4  UNL     1      20.520   4.215  51.303  1.00  0.00    -0.278 NA
HETATM   16  C17 UNL     1      21.624   3.974  52.245  1.00  0.00     0.189 C 
HETATM   17  C18 UNL     1      21.811   2.507  52.334  1.00  0.00    -0.029 A 
HETATM   18  C19 UNL     1      20.731   1.677  52.090  1.00  0.00     0.009 A 
HETATM   19  C20 UNL     1      20.735   0.299  52.136  1.00  0.00     0.001 A 
HETATM   20  C21 UNL     1      21.944  -0.275  52.460  1.00  0.00     0.001 A 
HETATM   21  C22 UNL     1      23.047   0.510  52.712  1.00  0.00     0.010 A 
HETATM   22  C23 UNL     1      23.026   1.883  52.661  1.00  0.00    -0.021 A 
HETATM   23  C24 UNL     1      24.148   2.797  52.909  1.00  0.00     0.163 C 
ENDROOT
BRANCH   7  24
HETATM   24  N2  UNL     1      25.961   8.907  47.555  1.00  0.00    -0.329 N 
HETATM   25  C9  UNL     1      26.660   9.695  48.487  1.00  0.00     0.221 C 
HETATM   26  O1  UNL     1      26.361   9.976  49.678  1.00  0.00    -0.273 OA
HETATM   27  H8  UNL     1      26.400   8.806  46.604  1.00  0.00     0.168 HD
BRANCH  25  28
HETATM   28  C10 UNL     1      27.968  10.379  48.196  1.00  0.00     0.098 C 
HETATM   29  C11 UNL     1      27.759  11.225  46.956  1.00  0.00     0.014 C 
ENDBRANCH  25  28
ENDBRANCH   7  24
BRANCH   1  30
HETATM   30  C2  UNL     1      25.848   1.462  51.739  1.00  0.00    -0.025 C 
HETATM   31  C1  UNL     1      27.169   1.365  51.993  1.00  0.00     0.007 C 
ENDBRANCH   1  30
BRANCH  23  32
HETATM   32  O3  UNL     1      24.821   2.308  54.054  1.00  0.00    -0.390 OA
HETATM   33  H26 UNL     1      24.367   1.536  54.447  1.00  0.00     0.210 HD
ENDBRANCH  23  32
TORSDOF 4
ENDMDL
