MODEL 1
REMARK VINA RESULT:      -8.2      0.000      0.000
REMARK  4 active torsions:
REMARK  status: ('A' for Active; 'I' for Inactive)
REMARK    1  A    between atoms: C3_4  and  C4_5 
REMARK    2  A    between atoms: C10_12  and  N2_13 
REMARK    3  A    between atoms: C22_26  and  O2_27 
REMARK    4  A    between atoms: C24_29  and  N3_30 
ROOT
HETATM    1  N2  UNL     1      21.991   2.379  50.390  1.00  0.00    -0.333 N 
HETATM    2  C11 UNL     1      21.807   2.995  49.116  1.00  0.00     0.075 C 
HETATM    3  C12 UNL     1      21.971   4.492  49.142  1.00  0.00     0.004 C 
HETATM    4  C13 UNL     1      22.094   5.001  47.897  1.00  0.00    -0.003 C 
HETATM    5  C14 UNL     1      22.078   4.238  46.628  1.00  0.00     0.195 C 
HETATM    6  O1  UNL     1      22.115   2.878  46.805  1.00  0.00    -0.385 OA
HETATM    7  C15 UNL     1      22.707   2.492  48.027  1.00  0.00     0.203 C 
HETATM    8  C16 UNL     1      20.378   2.685  48.729  1.00  0.00     0.040 C 
HETATM    9  C17 UNL     1      20.204   1.307  49.304  1.00  0.00     0.037 C 
HETATM   10  C18 UNL     1      20.934   1.397  50.649  1.00  0.00     0.072 C 
HETATM   11  C19 UNL     1      21.500   0.024  50.893  1.00  0.00     0.060 C 
HETATM   12  C20 UNL     1      21.985  -0.104  52.292  1.00  0.00    -0.025 C 
HETATM   13  C21 UNL     1      21.182   0.379  53.236  1.00  0.00     0.003 C 
HETATM   14  C22 UNL     1      19.881   1.005  52.903  1.00  0.00     0.178 C 
HETATM   15  C24 UNL     1      19.936   1.854  51.657  1.00  0.00     0.278 C 
ENDROOT
BRANCH   1  16
HETATM   16  C10 UNL     1      22.990   2.563  51.388  1.00  0.00     0.164 A 
HETATM   17  S1  UNL     1      23.092   3.821  52.659  1.00  0.00    -0.111 SA
HETATM   18  C1  UNL     1      23.459   5.259  52.044  1.00  0.00     0.065 C 
HETATM   19  C2  UNL     1      24.631   3.179  53.323  1.00  0.00     0.078 A 
HETATM   20  C3  UNL     1      24.891   2.133  52.551  1.00  0.00     0.076 A 
HETATM   21  N1  UNL     1      24.018   1.799  51.515  1.00  0.00    -0.224 NA
BRANCH  20  22
HETATM   22  C4  UNL     1      26.087   1.324  52.774  1.00  0.00    -0.007 A 
HETATM   23  C5  UNL     1      26.064  -0.034  52.539  1.00  0.00     0.014 A 
HETATM   24  C6  UNL     1      27.155  -0.862  52.727  1.00  0.00     0.001 A 
HETATM   25  C7  UNL     1      28.338  -0.352  53.168  1.00  0.00     0.000 A 
HETATM   26  C8  UNL     1      28.414   0.998  53.419  1.00  0.00     0.001 A 
HETATM   27  C9  UNL     1      27.306   1.792  53.219  1.00  0.00     0.014 A 
ENDBRANCH  20  22
ENDBRANCH   1  16
BRANCH  15  28
HETATM   28  N3  UNL     1      20.152   3.240  52.041  1.00  0.00     0.088 N 
HETATM   29  H28 UNL     1      20.524   3.819  51.254  1.00  0.00     0.313 HD
HETATM   30  H29 UNL     1      19.237   3.643  52.369  1.00  0.00     0.313 HD
ENDBRANCH  15  28
BRANCH  14  31
HETATM   31  O2  UNL     1      18.953  -0.004  52.790  1.00  0.00    -0.385 OA
HETATM   32  C23 UNL     1      17.872   0.334  51.992  1.00  0.00     0.202 C 
ENDBRANCH  14  31
TORSDOF 4
ENDMDL
MODEL 2
REMARK VINA RESULT:      -8.1      2.691      5.549
REMARK  4 active torsions:
REMARK  status: ('A' for Active; 'I' for Inactive)
REMARK    1  A    between atoms: C3_4  and  C4_5 
REMARK    2  A    between atoms: C10_12  and  N2_13 
REMARK    3  A    between atoms: C22_26  and  O2_27 
REMARK    4  A    between atoms: C24_29  and  N3_30 
ROOT
HETATM    1  N2  UNL     1      21.735   3.058  50.279  1.00  0.00    -0.333 N 
HETATM    2  C11 UNL     1      21.382   1.963  51.122  1.00  0.00     0.075 C 
HETATM    3  C12 UNL     1      22.569   1.266  51.733  1.00  0.00     0.004 C 
HETATM    4  C13 UNL     1      22.202   0.450  52.745  1.00  0.00    -0.003 C 
HETATM    5  C14 UNL     1      20.825   0.225  53.239  1.00  0.00     0.195 C 
HETATM    6  O1  UNL     1      19.900   1.084  52.699  1.00  0.00    -0.385 OA
HETATM    7  C15 UNL     1      20.463   2.301  52.259  1.00  0.00     0.203 C 
HETATM    8  C16 UNL     1      20.672   0.979  50.219  1.00  0.00     0.040 C 
HETATM    9  C17 UNL     1      19.948   1.904  49.280  1.00  0.00     0.037 C 
HETATM   10  C18 UNL     1      20.974   3.014  49.027  1.00  0.00     0.072 C 
HETATM   11  C19 UNL     1      20.167   4.269  48.823  1.00  0.00     0.060 C 
HETATM   12  C20 UNL     1      21.021   5.361  48.287  1.00  0.00    -0.025 C 
HETATM   13  C21 UNL     1      21.849   5.026  47.301  1.00  0.00     0.003 C 
HETATM   14  C22 UNL     1      21.910   3.643  46.775  1.00  0.00     0.178 C 
HETATM   15  C24 UNL     1      21.791   2.595  47.852  1.00  0.00     0.278 C 
ENDROOT
BRANCH   1  16
HETATM   16  C10 UNL     1      22.659   4.126  50.462  1.00  0.00     0.164 A 
HETATM   17  S1  UNL     1      22.551   5.531  51.566  1.00  0.00    -0.111 SA
HETATM   18  C1  UNL     1      21.447   6.589  51.075  1.00  0.00     0.065 C 
HETATM   19  C2  UNL     1      24.127   6.207  51.037  1.00  0.00     0.078 A 
HETATM   20  C3  UNL     1      24.547   5.339  50.125  1.00  0.00     0.076 A 
HETATM   21  N1  UNL     1      23.767   4.226  49.815  1.00  0.00    -0.224 NA
BRANCH  20  22
HETATM   22  C4  UNL     1      25.823   5.539  49.442  1.00  0.00    -0.007 A 
HETATM   23  C5  UNL     1      26.193   6.795  49.012  1.00  0.00     0.014 A 
HETATM   24  C6  UNL     1      27.383   7.061  48.360  1.00  0.00     0.001 A 
HETATM   25  C7  UNL     1      28.268   6.058  48.107  1.00  0.00     0.000 A 
HETATM   26  C8  UNL     1      27.946   4.785  48.515  1.00  0.00     0.001 A 
HETATM   27  C9  UNL     1      26.752   4.558  49.163  1.00  0.00     0.014 A 
ENDBRANCH  20  22
ENDBRANCH   1  16
BRANCH  15  28
HETATM   28  N3  UNL     1      23.125   2.172  48.247  1.00  0.00     0.088 N 
HETATM   29  H28 UNL     1      23.250   1.136  48.187  1.00  0.00     0.313 HD
HETATM   30  H29 UNL     1      23.826   2.644  47.620  1.00  0.00     0.313 HD
ENDBRANCH  15  28
BRANCH  14  31
HETATM   31  O2  UNL     1      20.917   3.516  45.829  1.00  0.00    -0.385 OA
HETATM   32  C23 UNL     1      21.201   4.180  44.647  1.00  0.00     0.202 C 
ENDBRANCH  14  31
TORSDOF 4
ENDMDL
MODEL 3
REMARK VINA RESULT:      -7.9      2.877      3.851
REMARK  4 active torsions:
REMARK  status: ('A' for Active; 'I' for Inactive)
REMARK    1  A    between atoms: C3_4  and  C4_5 
REMARK    2  A    between atoms: C10_12  and  N2_13 
REMARK    3  A    between atoms: C22_26  and  O2_27 
REMARK    4  A    between atoms: C24_29  and  N3_30 
ROOT
HETATM    1  N2  UNL     1      21.299   3.643  49.410  1.00  0.00    -0.333 N 
HETATM    2  C11 UNL     1      20.291   3.749  48.405  1.00  0.00     0.075 C 
HETATM    3  C12 UNL     1      19.569   5.071  48.414  1.00  0.00     0.004 C 
HETATM    4  C13 UNL     1      18.853   5.256  47.284  1.00  0.00    -0.003 C 
HETATM    5  C14 UNL     1      18.749   4.316  46.144  1.00  0.00     0.195 C 
HETATM    6  O1  UNL     1      19.621   3.260  46.223  1.00  0.00    -0.385 OA
HETATM    7  C15 UNL     1      20.766   3.540  46.998  1.00  0.00     0.203 C 
HETATM    8  C16 UNL     1      19.290   2.664  48.731  1.00  0.00     0.040 C 
HETATM    9  C17 UNL     1      20.186   1.578  49.259  1.00  0.00     0.037 C 
HETATM   10  C18 UNL     1      21.210   2.352  50.098  1.00  0.00     0.072 C 
HETATM   11  C19 UNL     1      22.494   1.573  49.983  1.00  0.00     0.060 C 
HETATM   12  C20 UNL     1      23.490   2.053  50.976  1.00  0.00    -0.025 C 
HETATM   13  C21 UNL     1      23.034   2.261  52.209  1.00  0.00     0.003 C 
HETATM   14  C22 UNL     1      21.615   2.025  52.562  1.00  0.00     0.178 C 
HETATM   15  C24 UNL     1      20.658   2.453  51.478  1.00  0.00     0.278 C 
ENDROOT
BRANCH   1  16
HETATM   16  C10 UNL     1      22.318   4.549  49.819  1.00  0.00     0.164 A 
HETATM   17  S1  UNL     1      22.269   5.788  51.111  1.00  0.00    -0.111 SA
HETATM   18  C1  UNL     1      21.342   7.035  50.704  1.00  0.00     0.065 C 
HETATM   19  C2  UNL     1      23.954   6.328  50.808  1.00  0.00     0.078 A 
HETATM   20  C3  UNL     1      24.355   5.550  49.811  1.00  0.00     0.076 A 
HETATM   21  N1  UNL     1      23.485   4.599  49.279  1.00  0.00    -0.224 NA
BRANCH  20  22
HETATM   22  C4  UNL     1      25.702   5.682  49.262  1.00  0.00    -0.007 A 
HETATM   23  C5  UNL     1      26.537   4.588  49.195  1.00  0.00     0.014 A 
HETATM   24  C6  UNL     1      27.822   4.636  48.689  1.00  0.00     0.001 A 
HETATM   25  C7  UNL     1      28.335   5.808  48.221  1.00  0.00     0.000 A 
HETATM   26  C8  UNL     1      27.542   6.931  48.266  1.00  0.00     0.001 A 
HETATM   27  C9  UNL     1      26.266   6.844  48.777  1.00  0.00     0.014 A 
ENDBRANCH  20  22
ENDBRANCH   1  16
BRANCH  15  28
HETATM   28  N3  UNL     1      20.183   3.796  51.773  1.00  0.00     0.088 N 
HETATM   29  H28 UNL     1      20.804   4.300  52.445  1.00  0.00     0.313 HD
HETATM   30  H29 UNL     1      20.131   4.338  50.872  1.00  0.00     0.313 HD
ENDBRANCH  15  28
BRANCH  14  31
HETATM   31  O2  UNL     1      21.481   0.688  52.861  1.00  0.00    -0.385 OA
HETATM   32  C23 UNL     1      20.160   0.283  52.970  1.00  0.00     0.202 C 
ENDBRANCH  14  31
TORSDOF 4
ENDMDL
MODEL 4
REMARK VINA RESULT:      -7.9      2.394      3.757
REMARK  4 active torsions:
REMARK  status: ('A' for Active; 'I' for Inactive)
REMARK    1  A    between atoms: C3_4  and  C4_5 
REMARK    2  A    between atoms: C10_12  and  N2_13 
REMARK    3  A    between atoms: C22_26  and  O2_27 
REMARK    4  A    between atoms: C24_29  and  N3_30 
ROOT
HETATM    1  N2  UNL     1      24.147   4.745  49.978  1.00  0.00    -0.333 N 
HETATM    2  C11 UNL     1      24.862   5.882  49.498  1.00  0.00     0.075 C 
HETATM    3  C12 UNL     1      25.153   6.905  50.565  1.00  0.00     0.004 C 
HETATM    4  C13 UNL     1      26.077   7.801  50.158  1.00  0.00    -0.003 C 
HETATM    5  C14 UNL     1      26.755   7.831  48.842  1.00  0.00     0.195 C 
HETATM    6  O1  UNL     1      26.513   6.719  48.074  1.00  0.00    -0.385 OA
HETATM    7  C15 UNL     1      26.174   5.580  48.837  1.00  0.00     0.203 C 
HETATM    8  C16 UNL     1      23.952   6.520  48.472  1.00  0.00     0.040 C 
HETATM    9  C17 UNL     1      23.297   5.312  47.861  1.00  0.00     0.037 C 
HETATM   10  C18 UNL     1      23.047   4.404  49.071  1.00  0.00     0.072 C 
HETATM   11  C19 UNL     1      23.173   2.997  48.551  1.00  0.00     0.060 C 
HETATM   12  C20 UNL     1      22.672   2.020  49.553  1.00  0.00    -0.025 C 
HETATM   13  C21 UNL     1      21.523   2.328  50.147  1.00  0.00     0.003 C 
HETATM   14  C22 UNL     1      20.791   3.575  49.823  1.00  0.00     0.178 C 
HETATM   15  C24 UNL     1      21.703   4.757  49.611  1.00  0.00     0.278 C 
ENDROOT
BRANCH   1  16
HETATM   16  C10 UNL     1      24.331   3.938  51.137  1.00  0.00     0.164 A 
HETATM   17  S1  UNL     1      23.420   3.959  52.678  1.00  0.00    -0.111 SA
HETATM   18  C1  UNL     1      23.757   5.265  53.550  1.00  0.00     0.065 C 
HETATM   19  C2  UNL     1      24.398   2.639  53.400  1.00  0.00     0.078 A 
HETATM   20  C3  UNL     1      25.267   2.337  52.445  1.00  0.00     0.076 A 
HETATM   21  N1  UNL     1      25.236   3.028  51.234  1.00  0.00    -0.224 NA
BRANCH  20  22
HETATM   22  C4  UNL     1      26.260   1.286  52.649  1.00  0.00    -0.007 A 
HETATM   23  C5  UNL     1      27.501   1.590  53.166  1.00  0.00     0.014 A 
HETATM   24  C6  UNL     1      28.489   0.650  53.387  1.00  0.00     0.001 A 
HETATM   25  C7  UNL     1      28.271  -0.662  53.094  1.00  0.00     0.000 A 
HETATM   26  C8  UNL     1      27.048  -1.019  52.574  1.00  0.00     0.001 A 
HETATM   27  C9  UNL     1      26.087  -0.054  52.368  1.00  0.00     0.014 A 
ENDBRANCH  20  22
ENDBRANCH   1  16
BRANCH  15  28
HETATM   28  N3  UNL     1      21.800   5.506  50.853  1.00  0.00     0.088 N 
HETATM   29  H28 UNL     1      21.130   6.307  50.891  1.00  0.00     0.313 HD
HETATM   30  H29 UNL     1      21.608   4.852  51.655  1.00  0.00     0.313 HD
ENDBRANCH  15  28
BRANCH  14  31
HETATM   31  O2  UNL     1      20.017   3.323  48.713  1.00  0.00    -0.385 OA
HETATM   32  C23 UNL     1      19.436   4.464  48.182  1.00  0.00     0.202 C 
ENDBRANCH  14  31
TORSDOF 4
ENDMDL
MODEL 5
REMARK VINA RESULT:      -7.8      2.529      6.122
REMARK  4 active torsions:
REMARK  status: ('A' for Active; 'I' for Inactive)
REMARK    1  A    between atoms: C3_4  and  C4_5 
REMARK    2  A    between atoms: C10_12  and  N2_13 
REMARK    3  A    between atoms: C22_26  and  O2_27 
REMARK    4  A    between atoms: C24_29  and  N3_30 
ROOT
HETATM    1  N2  UNL     1      22.768   4.348  50.493  1.00  0.00    -0.333 N 
HETATM    2  C11 UNL     1      22.503   5.723  50.217  1.00  0.00     0.075 C 
HETATM    3  C12 UNL     1      22.267   6.009  48.757  1.00  0.00     0.004 C 
HETATM    4  C13 UNL     1      21.726   7.232  48.570  1.00  0.00    -0.003 C 
HETATM    5  C14 UNL     1      21.385   8.215  49.624  1.00  0.00     0.195 C 
HETATM    6  O1  UNL     1      21.486   7.712  50.897  1.00  0.00    -0.385 OA
HETATM    7  C15 UNL     1      21.336   6.310  50.954  1.00  0.00     0.203 C 
HETATM    8  C16 UNL     1      23.751   6.462  50.645  1.00  0.00     0.040 C 
HETATM    9  C17 UNL     1      24.180   5.657  51.841  1.00  0.00     0.037 C 
HETATM   10  C18 UNL     1      23.909   4.213  51.403  1.00  0.00     0.072 C 
HETATM   11  C19 UNL     1      23.532   3.476  52.660  1.00  0.00     0.060 C 
HETATM   12  C20 UNL     1      23.523   2.008  52.426  1.00  0.00    -0.025 C 
HETATM   13  C21 UNL     1      24.554   1.519  51.741  1.00  0.00     0.003 C 
HETATM   14  C22 UNL     1      25.642   2.393  51.247  1.00  0.00     0.178 C 
HETATM   15  C24 UNL     1      25.146   3.721  50.733  1.00  0.00     0.278 C 
ENDROOT
BRANCH   1  16
HETATM   16  C10 UNL     1      22.127   3.159  50.045  1.00  0.00     0.164 A 
HETATM   17  S1  UNL     1      22.477   2.170  48.593  1.00  0.00    -0.111 SA
HETATM   18  C1  UNL     1      22.016   2.912  47.244  1.00  0.00     0.065 C 
HETATM   19  C2  UNL     1      21.180   0.984  48.952  1.00  0.00     0.078 A 
HETATM   20  C3  UNL     1      20.646   1.439  50.078  1.00  0.00     0.076 A 
HETATM   21  N1  UNL     1      21.148   2.600  50.666  1.00  0.00    -0.224 NA
BRANCH  20  22
HETATM   22  C4  UNL     1      19.533   0.734  50.710  1.00  0.00    -0.007 A 
HETATM   23  C5  UNL     1      19.682   0.179  51.963  1.00  0.00     0.014 A 
HETATM   24  C6  UNL     1      18.676  -0.501  52.623  1.00  0.00     0.001 A 
HETATM   25  C7  UNL     1      17.453  -0.656  52.042  1.00  0.00     0.000 A 
HETATM   26  C8  UNL     1      17.253  -0.121  50.791  1.00  0.00     0.001 A 
HETATM   27  C9  UNL     1      18.280   0.551  50.165  1.00  0.00     0.014 A 
ENDBRANCH  20  22
ENDBRANCH   1  16
BRANCH  15  28
HETATM   28  N3  UNL     1      24.981   3.636  49.291  1.00  0.00     0.088 N 
HETATM   29  H28 UNL     1      25.780   3.149  48.825  1.00  0.00     0.313 HD
HETATM   30  H29 UNL     1      24.088   3.118  49.085  1.00  0.00     0.313 HD
ENDBRANCH  15  28
BRANCH  14  31
HETATM   31  O2  UNL     1      26.546   2.550  52.273  1.00  0.00    -0.385 OA
HETATM   32  C23 UNL     1      27.256   1.394  52.557  1.00  0.00     0.202 C 
ENDBRANCH  14  31
TORSDOF 4
ENDMDL
MODEL 6
REMARK VINA RESULT:      -7.7      2.749      5.035
REMARK  4 active torsions:
REMARK  status: ('A' for Active; 'I' for Inactive)
REMARK    1  A    between atoms: C3_4  and  C4_5 
REMARK    2  A    between atoms: C10_12  and  N2_13 
REMARK    3  A    between atoms: C22_26  and  O2_27 
REMARK    4  A    between atoms: C24_29  and  N3_30 
ROOT
HETATM    1  N2  UNL     1      21.766   4.741  48.520  1.00  0.00    -0.333 N 
HETATM    2  C11 UNL     1      21.584   4.923  47.117  1.00  0.00     0.075 C 
HETATM    3  C12 UNL     1      21.927   3.704  46.302  1.00  0.00     0.004 C 
HETATM    4  C13 UNL     1      21.462   3.802  45.038  1.00  0.00    -0.003 C 
HETATM    5  C14 UNL     1      20.704   4.938  44.464  1.00  0.00     0.195 C 
HETATM    6  O1  UNL     1      20.317   5.867  45.398  1.00  0.00    -0.385 OA
HETATM    7  C15 UNL     1      20.204   5.333  46.699  1.00  0.00     0.203 C 
HETATM    8  C16 UNL     1      22.541   6.030  46.733  1.00  0.00     0.040 C 
HETATM    9  C17 UNL     1      22.496   6.903  47.956  1.00  0.00     0.037 C 
HETATM   10  C18 UNL     1      22.466   5.889  49.106  1.00  0.00     0.072 C 
HETATM   11  C19 UNL     1      21.653   6.537  50.194  1.00  0.00     0.060 C 
HETATM   12  C20 UNL     1      21.785   5.785  51.469  1.00  0.00    -0.025 C 
HETATM   13  C21 UNL     1      23.017   5.405  51.799  1.00  0.00     0.003 C 
HETATM   14  C22 UNL     1      24.182   5.720  50.941  1.00  0.00     0.178 C 
HETATM   15  C24 UNL     1      23.882   5.597  49.468  1.00  0.00     0.278 C 
ENDROOT
BRANCH   1  16
HETATM   16  C10 UNL     1      21.391   3.675  49.386  1.00  0.00     0.164 A 
HETATM   17  S1  UNL     1      19.759   3.016  49.719  1.00  0.00    -0.111 SA
HETATM   18  C1  UNL     1      18.879   4.027  50.603  1.00  0.00     0.065 C 
HETATM   19  C2  UNL     1      20.372   1.784  50.871  1.00  0.00     0.078 A 
HETATM   20  C3  UNL     1      21.682   1.992  50.881  1.00  0.00     0.076 A 
HETATM   21  N1  UNL     1      22.232   3.000  50.090  1.00  0.00    -0.224 NA
BRANCH  20  22
HETATM   22  C4  UNL     1      22.557   1.172  51.715  1.00  0.00    -0.007 A 
HETATM   23  C5  UNL     1      22.049   0.095  52.410  1.00  0.00     0.014 A 
HETATM   24  C6  UNL     1      22.815  -0.724  53.217  1.00  0.00     0.001 A 
HETATM   25  C7  UNL     1      24.149  -0.495  53.365  1.00  0.00     0.000 A 
HETATM   26  C8  UNL     1      24.706   0.569  52.693  1.00  0.00     0.001 A 
HETATM   27  C9  UNL     1      23.911   1.363  51.897  1.00  0.00     0.014 A 
ENDBRANCH  20  22
ENDBRANCH   1  16
BRANCH  15  28
HETATM   28  N3  UNL     1      24.295   4.280  49.011  1.00  0.00     0.088 N 
HETATM   29  H28 UNL     1      25.119   4.320  48.370  1.00  0.00     0.313 HD
HETATM   30  H29 UNL     1      24.535   3.694  49.852  1.00  0.00     0.313 HD
ENDBRANCH  15  28
BRANCH  14  31
HETATM   31  O2  UNL     1      24.608   6.987  51.269  1.00  0.00    -0.385 OA
HETATM   32  C23 UNL     1      25.571   7.481  50.404  1.00  0.00     0.202 C 
ENDBRANCH  14  31
TORSDOF 4
ENDMDL
MODEL 7
REMARK VINA RESULT:      -7.6      2.308      4.229
REMARK  4 active torsions:
REMARK  status: ('A' for Active; 'I' for Inactive)
REMARK    1  A    between atoms: C3_4  and  C4_5 
REMARK    2  A    between atoms: C10_12  and  N2_13 
REMARK    3  A    between atoms: C22_26  and  O2_27 
REMARK    4  A    between atoms: C24_29  and  N3_30 
ROOT
HETATM    1  N2  UNL     1      23.187   4.732  49.750  1.00  0.00    -0.333 N 
HETATM    2  C11 UNL     1      23.464   6.125  49.624  1.00  0.00     0.075 C 
HETATM    3  C12 UNL     1      23.585   6.838  50.946  1.00  0.00     0.004 C 
HETATM    4  C13 UNL     1      24.141   8.060  50.804  1.00  0.00    -0.003 C 
HETATM    5  C14 UNL     1      24.593   8.681  49.538  1.00  0.00     0.195 C 
HETATM    6  O1  UNL     1      24.584   7.818  48.470  1.00  0.00    -0.385 OA
HETATM    7  C15 UNL     1      24.702   6.464  48.849  1.00  0.00     0.203 C 
HETATM    8  C16 UNL     1      22.275   6.701  48.888  1.00  0.00     0.040 C 
HETATM    9  C17 UNL     1      21.926   5.575  47.955  1.00  0.00     0.037 C 
HETATM   10  C18 UNL     1      22.121   4.329  48.827  1.00  0.00     0.072 C 
HETATM   11  C19 UNL     1      22.582   3.248  47.886  1.00  0.00     0.060 C 
HETATM   12  C20 UNL     1      22.533   1.919  48.549  1.00  0.00    -0.025 C 
HETATM   13  C21 UNL     1      21.437   1.658  49.256  1.00  0.00     0.003 C 
HETATM   14  C22 UNL     1      20.334   2.640  49.370  1.00  0.00     0.178 C 
HETATM   15  C24 UNL     1      20.821   4.061  49.504  1.00  0.00     0.278 C 
ENDROOT
BRANCH   1  16
HETATM   16  C10 UNL     1      23.757   3.732  50.588  1.00  0.00     0.164 A 
HETATM   17  S1  UNL     1      25.484   3.340  50.858  1.00  0.00    -0.111 SA
HETATM   18  C1  UNL     1      26.137   2.623  49.578  1.00  0.00     0.065 C 
HETATM   19  C2  UNL     1      25.116   2.016  52.012  1.00  0.00     0.078 A 
HETATM   20  C3  UNL     1      23.791   2.011  52.068  1.00  0.00     0.076 A 
HETATM   21  N1  UNL     1      23.060   2.925  51.310  1.00  0.00    -0.224 NA
BRANCH  20  22
HETATM   22  C4  UNL     1      23.087   1.055  52.919  1.00  0.00    -0.007 A 
HETATM   23  C5  UNL     1      21.728   1.167  53.118  1.00  0.00     0.014 A 
HETATM   24  C6  UNL     1      20.996   0.300  53.907  1.00  0.00     0.001 A 
HETATM   25  C7  UNL     1      21.609  -0.736  54.543  1.00  0.00     0.000 A 
HETATM   26  C8  UNL     1      22.965  -0.893  54.379  1.00  0.00     0.001 A 
HETATM   27  C9  UNL     1      23.661  -0.009  53.583  1.00  0.00     0.014 A 
ENDBRANCH  20  22
ENDBRANCH   1  16
BRANCH  15  28
HETATM   28  N3  UNL     1      20.864   4.414  50.914  1.00  0.00     0.088 N 
HETATM   29  H28 UNL     1      20.406   5.332  51.111  1.00  0.00     0.313 HD
HETATM   30  H29 UNL     1      20.380   3.658  51.464  1.00  0.00     0.313 HD
ENDBRANCH  15  28
BRANCH  14  31
HETATM   31  O2  UNL     1      19.523   2.481  48.269  1.00  0.00    -0.385 OA
HETATM   32  C23 UNL     1      18.218   2.891  48.489  1.00  0.00     0.202 C 
ENDBRANCH  14  31
TORSDOF 4
ENDMDL
MODEL 8
REMARK VINA RESULT:      -7.5      2.005      6.051
REMARK  4 active torsions:
REMARK  status: ('A' for Active; 'I' for Inactive)
REMARK    1  A    between atoms: C3_4  and  C4_5 
REMARK    2  A    between atoms: C10_12  and  N2_13 
REMARK    3  A    between atoms: C22_26  and  O2_27 
REMARK    4  A    between atoms: C24_29  and  N3_30 
ROOT
HETATM    1  N2  UNL     1      23.307   2.553  51.513  1.00  0.00    -0.333 N 
HETATM    2  C11 UNL     1      24.327   1.797  52.164  1.00  0.00     0.075 C 
HETATM    3  C12 UNL     1      25.424   1.343  51.238  1.00  0.00     0.004 C 
HETATM    4  C13 UNL     1      26.505   0.907  51.921  1.00  0.00    -0.003 C 
HETATM    5  C14 UNL     1      26.653   0.855  53.393  1.00  0.00     0.195 C 
HETATM    6  O1  UNL     1      25.639   1.485  54.070  1.00  0.00    -0.385 OA
HETATM    7  C15 UNL     1      25.004   2.490  53.309  1.00  0.00     0.203 C 
HETATM    8  C16 UNL     1      23.628   0.569  52.703  1.00  0.00     0.040 C 
HETATM    9  C17 UNL     1      22.284   1.130  53.079  1.00  0.00     0.037 C 
HETATM   10  C18 UNL     1      21.978   2.097  51.929  1.00  0.00     0.072 C 
HETATM   11  C19 UNL     1      21.175   3.212  52.544  1.00  0.00     0.060 C 
HETATM   12  C20 UNL     1      20.570   4.067  51.490  1.00  0.00    -0.025 C 
HETATM   13  C21 UNL     1      20.005   3.427  50.470  1.00  0.00     0.003 C 
HETATM   14  C22 UNL     1      19.984   1.948  50.398  1.00  0.00     0.178 C 
HETATM   15  C24 UNL     1      21.265   1.314  50.879  1.00  0.00     0.278 C 
ENDROOT
BRANCH   1  16
HETATM   16  C10 UNL     1      23.383   3.623  50.576  1.00  0.00     0.164 A 
HETATM   17  S1  UNL     1      24.168   5.222  50.754  1.00  0.00    -0.111 SA
HETATM   18  C1  UNL     1      23.353   6.176  51.758  1.00  0.00     0.065 C 
HETATM   19  C2  UNL     1      23.704   5.756  49.106  1.00  0.00     0.078 A 
HETATM   20  C3  UNL     1      23.037   4.718  48.618  1.00  0.00     0.076 A 
HETATM   21  N1  UNL     1      22.862   3.576  49.399  1.00  0.00    -0.224 NA
BRANCH  20  22
HETATM   22  C4  UNL     1      22.482   4.760  47.268  1.00  0.00    -0.007 A 
HETATM   23  C5  UNL     1      22.443   5.947  46.567  1.00  0.00     0.014 A 
HETATM   24  C6  UNL     1      21.934   6.063  45.288  1.00  0.00     0.001 A 
HETATM   25  C7  UNL     1      21.431   4.973  44.644  1.00  0.00     0.000 A 
HETATM   26  C8  UNL     1      21.445   3.764  45.300  1.00  0.00     0.001 A 
HETATM   27  C9  UNL     1      21.962   3.687  46.575  1.00  0.00     0.014 A 
ENDBRANCH  20  22
ENDBRANCH   1  16
BRANCH  15  28
HETATM   28  N3  UNL     1      22.118   1.048  49.732  1.00  0.00     0.088 N 
HETATM   29  H28 UNL     1      22.496   0.073  49.733  1.00  0.00     0.313 HD
HETATM   30  H29 UNL     1      21.560   1.205  48.855  1.00  0.00     0.313 HD
ENDBRANCH  15  28
BRANCH  14  31
HETATM   31  O2  UNL     1      18.897   1.514  51.123  1.00  0.00    -0.385 OA
HETATM   32  C23 UNL     1      18.917   0.151  51.373  1.00  0.00     0.202 C 
ENDBRANCH  14  31
TORSDOF 4
ENDMDL
MODEL 9
REMARK VINA RESULT:      -7.4      3.344      7.854
REMARK  4 active torsions:
REMARK  status: ('A' for Active; 'I' for Inactive)
REMARK    1  A    between atoms: C3_4  and  C4_5 
REMARK    2  A    between atoms: C10_12  and  N2_13 
REMARK    3  A    between atoms: C22_26  and  O2_27 
REMARK    4  A    between atoms: C24_29  and  N3_30 
ROOT
HETATM    1  N2  UNL     1      22.318   3.845  50.615  1.00  0.00    -0.333 N 
HETATM    2  C11 UNL     1      22.161   2.754  51.520  1.00  0.00     0.075 C 
HETATM    3  C12 UNL     1      20.881   2.809  52.314  1.00  0.00     0.004 C 
HETATM    4  C13 UNL     1      20.621   1.631  52.921  1.00  0.00    -0.003 C 
HETATM    5  C14 UNL     1      21.448   0.405  52.856  1.00  0.00     0.195 C 
HETATM    6  O1  UNL     1      22.466   0.477  51.938  1.00  0.00    -0.385 OA
HETATM    7  C15 UNL     1      22.209   1.392  50.895  1.00  0.00     0.203 C 
HETATM    8  C16 UNL     1      23.319   2.870  52.486  1.00  0.00     0.040 C 
HETATM    9  C17 UNL     1      24.407   3.388  51.588  1.00  0.00     0.037 C 
HETATM   10  C18 UNL     1      23.673   4.398  50.699  1.00  0.00     0.072 C 
HETATM   11  C19 UNL     1      24.375   4.348  49.368  1.00  0.00     0.060 C 
HETATM   12  C20 UNL     1      23.949   5.481  48.506  1.00  0.00    -0.025 C 
HETATM   13  C21 UNL     1      23.884   6.673  49.095  1.00  0.00     0.003 C 
HETATM   14  C22 UNL     1      24.220   6.850  50.527  1.00  0.00     0.178 C 
HETATM   15  C24 UNL     1      23.733   5.716  51.393  1.00  0.00     0.278 C 
ENDROOT
BRANCH   1  16
HETATM   16  C10 UNL     1      21.409   4.442  49.695  1.00  0.00     0.164 A 
HETATM   17  S1  UNL     1      20.654   3.729  48.236  1.00  0.00    -0.111 SA
HETATM   18  C1  UNL     1      21.719   3.546  47.046  1.00  0.00     0.065 C 
HETATM   19  C2  UNL     1      19.749   5.227  47.839  1.00  0.00     0.078 A 
HETATM   20  C3  UNL     1      20.096   6.066  48.806  1.00  0.00     0.076 A 
HETATM   21  N1  UNL     1      20.982   5.652  49.800  1.00  0.00    -0.224 NA
BRANCH  20  22
HETATM   22  C4  UNL     1      19.557   7.423  48.840  1.00  0.00    -0.007 A 
HETATM   23  C5  UNL     1      19.947   8.303  49.827  1.00  0.00     0.014 A 
HETATM   24  C6  UNL     1      19.481   9.601  49.922  1.00  0.00     0.001 A 
HETATM   25  C7  UNL     1      18.587  10.081  49.014  1.00  0.00     0.000 A 
HETATM   26  C8  UNL     1      18.165   9.242  48.009  1.00  0.00     0.001 A 
HETATM   27  C9  UNL     1      18.652   7.955  47.945  1.00  0.00     0.014 A 
ENDBRANCH  20  22
ENDBRANCH   1  16
BRANCH  15  28
HETATM   28  N3  UNL     1      22.449   6.081  51.970  1.00  0.00     0.088 N 
HETATM   29  H28 UNL     1      22.516   6.912  52.600  1.00  0.00     0.313 HD
HETATM   30  H29 UNL     1      21.777   6.290  51.187  1.00  0.00     0.313 HD
ENDBRANCH  15  28
BRANCH  14  31
HETATM   31  O2  UNL     1      25.584   7.009  50.615  1.00  0.00    -0.385 OA
HETATM   32  C23 UNL     1      26.039   8.169  50.009  1.00  0.00     0.202 C 
ENDBRANCH  14  31
TORSDOF 4
ENDMDL
