MODEL 1
REMARK VINA RESULT:      -7.9      0.000      0.000
REMARK  3 active torsions:
REMARK  status: ('A' for Active; 'I' for Inactive)
REMARK    1  A    between atoms: C5_6  and  O1_7 
REMARK    2  A    between atoms: N2_13  and  N3_14 
REMARK    3  A    between atoms: N3_14  and  C10_15 
ROOT
HETATM    1  C1  UNL     1      22.282  -1.266  54.370  1.00  0.00     0.046 C 
HETATM    2  C2  UNL     1      22.696  -0.409  53.469  1.00  0.00     0.059 A 
HETATM    3  C3  UNL     1      21.773   0.222  52.539  1.00  0.00     0.028 A 
HETATM    4  C4  UNL     1      20.396  -0.163  52.686  1.00  0.00     0.113 A 
HETATM    5  N1  UNL     1      19.704  -0.895  53.381  1.00  0.00    -0.216 NA
HETATM    6  C5  UNL     1      18.389  -0.989  53.203  1.00  0.00     0.169 A 
HETATM    7  C6  UNL     1      17.718  -0.191  52.137  1.00  0.00     0.109 A 
HETATM    8  S1  UNL     1      19.208   0.669  51.465  1.00  0.00    -0.077 SA
HETATM    9  C7  UNL     1      22.290   1.066  51.675  1.00  0.00     0.018 A 
HETATM   10  C8  UNL     1      23.716   1.370  51.633  1.00  0.00     0.020 A 
HETATM   11  C9  UNL     1      24.549   0.797  52.477  1.00  0.00     0.116 A 
HETATM   12  N2  UNL     1      24.086  -0.134  53.452  1.00  0.00    -0.267 N 
ENDROOT
BRANCH  12  13
HETATM   13  N3  UNL     1      25.024  -0.698  54.309  1.00  0.00    -0.292 N 
HETATM   14  H8  UNL     1      24.917  -1.415  55.050  1.00  0.00     0.187 HD
BRANCH  13  15
HETATM   15  C10 UNL     1      26.386  -0.303  54.249  1.00  0.00     0.070 A 
HETATM   16  C11 UNL     1      26.982   0.647  54.955  1.00  0.00     0.165 A 
HETATM   17  O2  UNL     1      28.324   0.960  54.822  1.00  0.00    -0.357 OA
HETATM   18  C12 UNL     1      29.177   0.284  53.912  1.00  0.00     0.202 A 
HETATM   19  C13 UNL     1      28.478  -0.765  53.146  1.00  0.00     0.002 A 
HETATM   20  C14 UNL     1      27.191  -1.056  53.281  1.00  0.00     0.031 A 
ENDBRANCH  13  15
ENDBRANCH  12  13
BRANCH   6  21
HETATM   21  O1  UNL     1      17.767  -1.882  54.101  1.00  0.00    -0.344 OA
HETATM   22  H3  UNL     1      17.674  -2.858  53.908  1.00  0.00     0.219 HD
ENDBRANCH   6  21
TORSDOF 3
ENDMDL
MODEL 2
REMARK VINA RESULT:      -7.5      3.184      7.689
REMARK  3 active torsions:
REMARK  status: ('A' for Active; 'I' for Inactive)
REMARK    1  A    between atoms: C5_6  and  O1_7 
REMARK    2  A    between atoms: N2_13  and  N3_14 
REMARK    3  A    between atoms: N3_14  and  C10_15 
ROOT
HETATM    1  C1  UNL     1      24.763   2.303  51.475  1.00  0.00     0.046 C 
HETATM    2  C2  UNL     1      24.223   1.307  52.133  1.00  0.00     0.059 A 
HETATM    3  C3  UNL     1      24.956   0.592  53.165  1.00  0.00     0.028 A 
HETATM    4  C4  UNL     1      26.295   1.056  53.400  1.00  0.00     0.113 A 
HETATM    5  N1  UNL     1      27.069   1.911  52.988  1.00  0.00    -0.216 NA
HETATM    6  C5  UNL     1      28.298   2.036  53.482  1.00  0.00     0.169 A 
HETATM    7  C6  UNL     1      28.767   1.126  54.565  1.00  0.00     0.109 A 
HETATM    8  S1  UNL     1      27.236   0.111  54.748  1.00  0.00    -0.077 SA
HETATM    9  C7  UNL     1      24.323  -0.391  53.765  1.00  0.00     0.018 A 
HETATM   10  C8  UNL     1      22.954  -0.763  53.429  1.00  0.00     0.020 A 
HETATM   11  C9  UNL     1      22.293  -0.112  52.494  1.00  0.00     0.116 A 
HETATM   12  N2  UNL     1      22.892   0.969  51.784  1.00  0.00    -0.267 N 
ENDROOT
BRANCH  12  13
HETATM   13  N3  UNL     1      22.132   1.609  50.811  1.00  0.00    -0.292 N 
HETATM   14  H8  UNL     1      22.339   1.806  49.815  1.00  0.00     0.187 HD
BRANCH  13  15
HETATM   15  C10 UNL     1      20.844   2.117  51.121  1.00  0.00     0.070 A 
HETATM   16  C11 UNL     1      20.538   3.055  52.006  1.00  0.00     0.165 A 
HETATM   17  O2  UNL     1      19.242   3.484  52.236  1.00  0.00    -0.357 OA
HETATM   18  C12 UNL     1      18.128   2.951  51.539  1.00  0.00     0.202 A 
HETATM   19  C13 UNL     1      18.508   1.912  50.563  1.00  0.00     0.002 A 
HETATM   20  C14 UNL     1      19.753   1.508  50.351  1.00  0.00     0.031 A 
ENDBRANCH  13  15
ENDBRANCH  12  13
BRANCH   6  21
HETATM   21  O1  UNL     1      29.037   3.078  52.880  1.00  0.00    -0.344 OA
HETATM   22  H3  UNL     1      28.660   3.993  52.744  1.00  0.00     0.219 HD
ENDBRANCH   6  21
TORSDOF 3
ENDMDL
MODEL 3
REMARK VINA RESULT:      -7.5      3.277      7.225
REMARK  3 active torsions:
REMARK  status: ('A' for Active; 'I' for Inactive)
REMARK    1  A    between atoms: C5_6  and  O1_7 
REMARK    2  A    between atoms: N2_13  and  N3_14 
REMARK    3  A    between atoms: N3_14  and  C10_15 
ROOT
HETATM    1  C1  UNL     1      24.640  -1.109  53.171  1.00  0.00     0.046 C 
HETATM    2  C2  UNL     1      24.810   0.190  53.199  1.00  0.00     0.059 A 
HETATM    3  C3  UNL     1      26.135   0.781  53.287  1.00  0.00     0.028 A 
HETATM    4  C4  UNL     1      27.223  -0.156  53.341  1.00  0.00     0.113 A 
HETATM    5  N1  UNL     1      27.409  -1.366  53.337  1.00  0.00    -0.216 NA
HETATM    6  C5  UNL     1      28.633  -1.884  53.405  1.00  0.00     0.169 A 
HETATM    7  C6  UNL     1      29.822  -0.990  53.489  1.00  0.00     0.109 A 
HETATM    8  S1  UNL     1      28.943   0.634  53.457  1.00  0.00    -0.077 SA
HETATM    9  C7  UNL     1      26.195   2.093  53.309  1.00  0.00     0.018 A 
HETATM   10  C8  UNL     1      25.006   2.934  53.248  1.00  0.00     0.020 A 
HETATM   11  C9  UNL     1      23.807   2.395  53.167  1.00  0.00     0.116 A 
HETATM   12  N2  UNL     1      23.635   0.980  53.138  1.00  0.00    -0.267 N 
ENDROOT
BRANCH  12  13
HETATM   13  N3  UNL     1      22.340   0.483  53.052  1.00  0.00    -0.292 N 
HETATM   14  H8  UNL     1      21.854  -0.239  53.614  1.00  0.00     0.187 HD
BRANCH  13  15
HETATM   15  C10 UNL     1      21.443   0.975  52.067  1.00  0.00     0.070 A 
HETATM   16  C11 UNL     1      20.343   1.687  52.261  1.00  0.00     0.165 A 
HETATM   17  O2  UNL     1      19.529   2.121  51.228  1.00  0.00    -0.357 OA
HETATM   18  C12 UNL     1      19.810   1.836  49.868  1.00  0.00     0.202 A 
HETATM   19  C13 UNL     1      21.042   1.043  49.692  1.00  0.00     0.002 A 
HETATM   20  C14 UNL     1      21.813   0.632  50.689  1.00  0.00     0.031 A 
ENDBRANCH  13  15
ENDBRANCH  12  13
BRANCH   6  21
HETATM   21  O1  UNL     1      28.642  -3.296  53.387  1.00  0.00    -0.344 OA
HETATM   22  H3  UNL     1      29.261  -3.836  53.955  1.00  0.00     0.219 HD
ENDBRANCH   6  21
TORSDOF 3
ENDMDL
MODEL 4
REMARK VINA RESULT:      -7.5      3.576      7.382
REMARK  3 active torsions:
REMARK  status: ('A' for Active; 'I' for Inactive)
REMARK    1  A    between atoms: C5_6  and  O1_7 
REMARK    2  A    between atoms: N2_13  and  N3_14 
REMARK    3  A    between atoms: N3_14  and  C10_15 
ROOT
HETATM    1  C1  UNL     1      24.589   2.791  52.426  1.00  0.00     0.046 C 
HETATM    2  C2  UNL     1      24.155   1.661  52.927  1.00  0.00     0.059 A 
HETATM    3  C3  UNL     1      25.062   0.705  53.542  1.00  0.00     0.028 A 
HETATM    4  C4  UNL     1      26.446   1.093  53.555  1.00  0.00     0.113 A 
HETATM    5  N1  UNL     1      27.155   2.024  53.194  1.00  0.00    -0.216 NA
HETATM    6  C5  UNL     1      28.470   2.018  53.393  1.00  0.00     0.169 A 
HETATM    7  C6  UNL     1      29.121   0.861  54.071  1.00  0.00     0.109 A 
HETATM    8  S1  UNL     1      27.614  -0.166  54.359  1.00  0.00    -0.077 SA
HETATM    9  C7  UNL     1      24.527  -0.398  54.013  1.00  0.00     0.018 A 
HETATM   10  C8  UNL     1      23.096  -0.670  53.936  1.00  0.00     0.020 A 
HETATM   11  C9  UNL     1      22.278   0.198  53.379  1.00  0.00     0.116 A 
HETATM   12  N2  UNL     1      22.762   1.424  52.836  1.00  0.00    -0.267 N 
ENDROOT
BRANCH  12  13
HETATM   13  N3  UNL     1      21.838   2.292  52.264  1.00  0.00    -0.292 N 
HETATM   14  H8  UNL     1      21.167   2.949  52.702  1.00  0.00     0.187 HD
BRANCH  13  15
HETATM   15  C10 UNL     1      21.704   2.375  50.853  1.00  0.00     0.070 A 
HETATM   16  C11 UNL     1      21.676   3.471  50.108  1.00  0.00     0.165 A 
HETATM   17  O2  UNL     1      21.540   3.447  48.731  1.00  0.00    -0.357 OA
HETATM   18  C12 UNL     1      21.419   2.238  47.999  1.00  0.00     0.202 A 
HETATM   19  C13 UNL     1      21.456   1.041  48.861  1.00  0.00     0.002 A 
HETATM   20  C14 UNL     1      21.586   1.076  50.180  1.00  0.00     0.031 A 
ENDBRANCH  13  15
ENDBRANCH  12  13
BRANCH   6  21
HETATM   21  O1  UNL     1      29.112   3.178  52.908  1.00  0.00    -0.344 OA
HETATM   22  H3  UNL     1      29.040   4.063  53.367  1.00  0.00     0.219 HD
ENDBRANCH   6  21
TORSDOF 3
ENDMDL
MODEL 5
REMARK VINA RESULT:      -7.4      3.011      3.622
REMARK  3 active torsions:
REMARK  status: ('A' for Active; 'I' for Inactive)
REMARK    1  A    between atoms: C5_6  and  O1_7 
REMARK    2  A    between atoms: N2_13  and  N3_14 
REMARK    3  A    between atoms: N3_14  and  C10_15 
ROOT
HETATM    1  C1  UNL     1      24.511   2.216  51.079  1.00  0.00     0.046 C 
HETATM    2  C2  UNL     1      24.060   1.359  51.963  1.00  0.00     0.059 A 
HETATM    3  C3  UNL     1      22.674   1.378  52.402  1.00  0.00     0.028 A 
HETATM    4  C4  UNL     1      21.854   2.392  51.800  1.00  0.00     0.113 A 
HETATM    5  N1  UNL     1      21.947   3.303  50.987  1.00  0.00    -0.216 NA
HETATM    6  C5  UNL     1      20.905   4.068  50.673  1.00  0.00     0.169 A 
HETATM    7  C6  UNL     1      19.580   3.829  51.312  1.00  0.00     0.109 A 
HETATM    8  S1  UNL     1      20.050   2.402  52.385  1.00  0.00    -0.077 SA
HETATM    9  C7  UNL     1      22.325   0.477  53.292  1.00  0.00     0.018 A 
HETATM   10  C8  UNL     1      23.264  -0.503  53.826  1.00  0.00     0.020 A 
HETATM   11  C9  UNL     1      24.518  -0.517  53.425  1.00  0.00     0.116 A 
HETATM   12  N2  UNL     1      24.996   0.420  52.463  1.00  0.00    -0.267 N 
ENDROOT
BRANCH  12  13
HETATM   13  N3  UNL     1      26.332   0.344  52.089  1.00  0.00    -0.292 N 
HETATM   14  H8  UNL     1      26.777  -0.079  51.253  1.00  0.00     0.187 HD
BRANCH  13  15
HETATM   15  C10 UNL     1      27.345   0.905  52.911  1.00  0.00     0.070 A 
HETATM   16  C11 UNL     1      27.447   2.161  53.322  1.00  0.00     0.165 A 
HETATM   17  O2  UNL     1      28.480   2.612  54.126  1.00  0.00    -0.357 OA
HETATM   18  C12 UNL     1      29.519   1.762  54.579  1.00  0.00     0.202 A 
HETATM   19  C13 UNL     1      29.370   0.373  54.103  1.00  0.00     0.002 A 
HETATM   20  C14 UNL     1      28.378  -0.049  53.332  1.00  0.00     0.031 A 
ENDBRANCH  13  15
ENDBRANCH  12  13
BRANCH   6  21
HETATM   21  O1  UNL     1      21.211   5.062  49.718  1.00  0.00    -0.344 OA
HETATM   22  H3  UNL     1      21.913   4.936  49.019  1.00  0.00     0.219 HD
ENDBRANCH   6  21
TORSDOF 3
ENDMDL
MODEL 6
REMARK VINA RESULT:      -7.2      3.654      5.565
REMARK  3 active torsions:
REMARK  status: ('A' for Active; 'I' for Inactive)
REMARK    1  A    between atoms: C5_6  and  O1_7 
REMARK    2  A    between atoms: N2_13  and  N3_14 
REMARK    3  A    between atoms: N3_14  and  C10_15 
ROOT
HETATM    1  C1  UNL     1      26.493   2.516  52.445  1.00  0.00     0.046 C 
HETATM    2  C2  UNL     1      25.311   1.963  52.329  1.00  0.00     0.059 A 
HETATM    3  C3  UNL     1      24.335   2.449  51.368  1.00  0.00     0.028 A 
HETATM    4  C4  UNL     1      24.763   3.566  50.570  1.00  0.00     0.113 A 
HETATM    5  N1  UNL     1      25.743   4.285  50.428  1.00  0.00    -0.216 NA
HETATM    6  C5  UNL     1      25.761   5.271  49.534  1.00  0.00     0.169 A 
HETATM    7  C6  UNL     1      24.571   5.525  48.674  1.00  0.00     0.109 A 
HETATM    8  S1  UNL     1      23.476   4.187  49.324  1.00  0.00    -0.077 SA
HETATM    9  C7  UNL     1      23.179   1.825  51.333  1.00  0.00     0.018 A 
HETATM   10  C8  UNL     1      22.870   0.697  52.204  1.00  0.00     0.020 A 
HETATM   11  C9  UNL     1      23.757   0.259  53.073  1.00  0.00     0.116 A 
HETATM   12  N2  UNL     1      25.040   0.870  53.189  1.00  0.00    -0.267 N 
ENDROOT
BRANCH  12  13
HETATM   13  N3  UNL     1      25.924   0.352  54.129  1.00  0.00    -0.292 N 
HETATM   14  H8  UNL     1      26.008   0.528  55.147  1.00  0.00     0.187 HD
BRANCH  13  15
HETATM   15  C10 UNL     1      26.921  -0.582  53.743  1.00  0.00     0.070 A 
HETATM   16  C11 UNL     1      26.745  -1.743  53.128  1.00  0.00     0.165 A 
HETATM   17  O2  UNL     1      27.789  -2.589  52.794  1.00  0.00    -0.357 OA
HETATM   18  C12 UNL     1      29.142  -2.280  53.084  1.00  0.00     0.202 A 
HETATM   19  C13 UNL     1      29.298  -0.981  53.767  1.00  0.00     0.002 A 
HETATM   20  C14 UNL     1      28.291  -0.179  54.083  1.00  0.00     0.031 A 
ENDBRANCH  13  15
ENDBRANCH  12  13
BRANCH   6  21
HETATM   21  O1  UNL     1      26.978   5.987  49.519  1.00  0.00    -0.344 OA
HETATM   22  H3  UNL     1      27.355   6.421  50.336  1.00  0.00     0.219 HD
ENDBRANCH   6  21
TORSDOF 3
ENDMDL
MODEL 7
REMARK VINA RESULT:      -7.0      4.477      6.667
REMARK  3 active torsions:
REMARK  status: ('A' for Active; 'I' for Inactive)
REMARK    1  A    between atoms: C5_6  and  O1_7 
REMARK    2  A    between atoms: N2_13  and  N3_14 
REMARK    3  A    between atoms: N3_14  and  C10_15 
ROOT
HETATM    1  C1  UNL     1      26.628   2.407  51.423  1.00  0.00     0.046 C 
HETATM    2  C2  UNL     1      25.387   2.368  51.006  1.00  0.00     0.059 A 
HETATM    3  C3  UNL     1      24.388   1.546  51.669  1.00  0.00     0.028 A 
HETATM    4  C4  UNL     1      24.863   0.792  52.796  1.00  0.00     0.113 A 
HETATM    5  N1  UNL     1      25.900   0.605  53.420  1.00  0.00    -0.216 NA
HETATM    6  C5  UNL     1      25.948  -0.213  54.467  1.00  0.00     0.169 A 
HETATM    7  C6  UNL     1      24.720  -0.931  54.913  1.00  0.00     0.109 A 
HETATM    8  S1  UNL     1      23.547  -0.276  53.647  1.00  0.00    -0.077 SA
HETATM    9  C7  UNL     1      23.172   1.577  51.171  1.00  0.00     0.018 A 
HETATM   10  C8  UNL     1      22.820   2.391  50.014  1.00  0.00     0.020 A 
HETATM   11  C9  UNL     1      23.727   3.136  49.417  1.00  0.00     0.116 A 
HETATM   12  N2  UNL     1      25.075   3.169  49.879  1.00  0.00    -0.267 N 
ENDROOT
BRANCH  12  13
HETATM   13  N3  UNL     1      25.977   3.979  49.199  1.00  0.00    -0.292 N 
HETATM   14  H8  UNL     1      26.686   3.744  48.479  1.00  0.00     0.187 HD
BRANCH  13  15
HETATM   15  C10 UNL     1      26.024   5.375  49.449  1.00  0.00     0.070 A 
HETATM   16  C11 UNL     1      25.300   6.064  50.319  1.00  0.00     0.165 A 
HETATM   17  O2  UNL     1      25.420   7.433  50.489  1.00  0.00    -0.357 OA
HETATM   18  C12 UNL     1      26.335   8.215  49.740  1.00  0.00     0.202 A 
HETATM   19  C13 UNL     1      27.123   7.414  48.783  1.00  0.00     0.002 A 
HETATM   20  C14 UNL     1      26.999   6.103  48.628  1.00  0.00     0.031 A 
ENDBRANCH  13  15
ENDBRANCH  12  13
BRANCH   6  21
HETATM   21  O1  UNL     1      27.230  -0.296  55.052  1.00  0.00    -0.344 OA
HETATM   22  H3  UNL     1      28.041  -0.556  54.531  1.00  0.00     0.219 HD
ENDBRANCH   6  21
TORSDOF 3
ENDMDL
MODEL 8
REMARK VINA RESULT:      -7.0      4.028      5.358
REMARK  3 active torsions:
REMARK  status: ('A' for Active; 'I' for Inactive)
REMARK    1  A    between atoms: C5_6  and  O1_7 
REMARK    2  A    between atoms: N2_13  and  N3_14 
REMARK    3  A    between atoms: N3_14  and  C10_15 
ROOT
HETATM    1  C1  UNL     1      22.828   2.149  50.848  1.00  0.00     0.046 C 
HETATM    2  C2  UNL     1      24.024   1.879  51.308  1.00  0.00     0.059 A 
HETATM    3  C3  UNL     1      24.223   0.958  52.415  1.00  0.00     0.028 A 
HETATM    4  C4  UNL     1      23.023   0.378  52.954  1.00  0.00     0.113 A 
HETATM    5  N1  UNL     1      21.812   0.410  52.773  1.00  0.00    -0.216 NA
HETATM    6  C5  UNL     1      20.976  -0.308  53.518  1.00  0.00     0.169 A 
HETATM    7  C6  UNL     1      21.502  -1.180  54.606  1.00  0.00     0.109 A 
HETATM    8  S1  UNL     1      23.301  -0.819  54.397  1.00  0.00    -0.077 SA
HETATM    9  C7  UNL     1      25.462   0.757  52.801  1.00  0.00     0.018 A 
HETATM   10  C8  UNL     1      26.598   1.414  52.164  1.00  0.00     0.020 A 
HETATM   11  C9  UNL     1      26.414   2.247  51.161  1.00  0.00     0.116 A 
HETATM   12  N2  UNL     1      25.107   2.533  50.669  1.00  0.00    -0.267 N 
ENDROOT
BRANCH  12  13
HETATM   13  N3  UNL     1      24.991   3.423  49.608  1.00  0.00    -0.292 N 
HETATM   14  H8  UNL     1      24.704   3.267  48.624  1.00  0.00     0.187 HD
BRANCH  13  15
HETATM   15  C10 UNL     1      25.291   4.799  49.785  1.00  0.00     0.070 A 
HETATM   16  C11 UNL     1      24.718   5.648  50.625  1.00  0.00     0.165 A 
HETATM   17  O2  UNL     1      25.083   6.980  50.722  1.00  0.00    -0.357 OA
HETATM   18  C12 UNL     1      26.107   7.549  49.924  1.00  0.00     0.202 A 
HETATM   19  C13 UNL     1      26.721   6.574  49.002  1.00  0.00     0.002 A 
HETATM   20  C14 UNL     1      26.363   5.300  48.917  1.00  0.00     0.031 A 
ENDBRANCH  13  15
ENDBRANCH  12  13
BRANCH   6  21
HETATM   21  O1  UNL     1      19.622  -0.138  53.157  1.00  0.00    -0.344 OA
HETATM   22  H3  UNL     1      19.249   0.744  52.873  1.00  0.00     0.219 HD
ENDBRANCH   6  21
TORSDOF 3
ENDMDL
MODEL 9
REMARK VINA RESULT:      -7.0      3.153      4.712
REMARK  3 active torsions:
REMARK  status: ('A' for Active; 'I' for Inactive)
REMARK    1  A    between atoms: C5_6  and  O1_7 
REMARK    2  A    between atoms: N2_13  and  N3_14 
REMARK    3  A    between atoms: N3_14  and  C10_15 
ROOT
HETATM    1  C1  UNL     1      25.413   1.798  51.912  1.00  0.00     0.046 C 
HETATM    2  C2  UNL     1      24.232   1.436  52.350  1.00  0.00     0.059 A 
HETATM    3  C3  UNL     1      23.098   2.346  52.319  1.00  0.00     0.028 A 
HETATM    4  C4  UNL     1      23.372   3.650  51.780  1.00  0.00     0.113 A 
HETATM    5  N1  UNL     1      24.308   4.284  51.310  1.00  0.00    -0.216 NA
HETATM    6  C5  UNL     1      24.163   5.541  50.898  1.00  0.00     0.169 A 
HETATM    7  C6  UNL     1      22.837   6.215  51.001  1.00  0.00     0.109 A 
HETATM    8  S1  UNL     1      21.882   4.822  51.749  1.00  0.00    -0.077 SA
HETATM    9  C7  UNL     1      21.959   1.885  52.781  1.00  0.00     0.018 A 
HETATM   10  C8  UNL     1      21.815   0.531  53.304  1.00  0.00     0.020 A 
HETATM   11  C9  UNL     1      22.844  -0.291  53.330  1.00  0.00     0.116 A 
HETATM   12  N2  UNL     1      24.124   0.116  52.851  1.00  0.00    -0.267 N 
ENDROOT
BRANCH  12  13
HETATM   13  N3  UNL     1      25.163  -0.806  52.910  1.00  0.00    -0.292 N 
HETATM   14  H8  UNL     1      25.240  -1.763  52.520  1.00  0.00     0.187 HD
BRANCH  13  15
HETATM   15  C10 UNL     1      26.368  -0.492  53.592  1.00  0.00     0.070 A 
HETATM   16  C11 UNL     1      26.498   0.127  54.757  1.00  0.00     0.165 A 
HETATM   17  O2  UNL     1      27.726   0.389  55.341  1.00  0.00    -0.357 OA
HETATM   18  C12 UNL     1      28.952   0.013  54.738  1.00  0.00     0.202 A 
HETATM   19  C13 UNL     1      28.766  -0.674  53.445  1.00  0.00     0.002 A 
HETATM   20  C14 UNL     1      27.586  -0.919  52.894  1.00  0.00     0.031 A 
ENDBRANCH  13  15
ENDBRANCH  12  13
BRANCH   6  21
HETATM   21  O1  UNL     1      25.353   6.101  50.387  1.00  0.00    -0.344 OA
HETATM   22  H3  UNL     1      25.507   6.235  49.409  1.00  0.00     0.219 HD
ENDBRANCH   6  21
TORSDOF 3
ENDMDL
