MODEL 1
REMARK VINA RESULT:      -8.6      0.000      0.000
REMARK  3 active torsions:
REMARK  status: ('A' for Active; 'I' for Inactive)
REMARK    1  A    between atoms: O1_1  and  C1_2 
REMARK    2  A    between atoms: C1_2  and  C2_3 
REMARK    3  A    between atoms: C10_11  and  C11_12 
ROOT
HETATM    1  C2  UNL     1      13.829   1.631  53.238  1.00  0.00     0.024 C 
HETATM    2  C3  UNL     1      14.869   1.066  52.692  1.00  0.00     0.011 C 
HETATM    3  C4  UNL     1      15.853   1.639  51.757  1.00  0.00     0.084 C 
HETATM    4  C5  UNL     1      15.913   0.923  50.477  1.00  0.00    -0.020 C 
HETATM    5  C6  UNL     1      17.031   0.331  50.098  1.00  0.00     0.010 C 
HETATM    6  C7  UNL     1      18.303   0.268  50.792  1.00  0.00    -0.008 A 
HETATM    7  C8  UNL     1      19.350   0.968  50.238  1.00  0.00     0.014 A 
HETATM    8  C9  UNL     1      20.650   1.039  50.751  1.00  0.00     0.015 A 
HETATM    9  C10 UNL     1      20.832   0.324  51.916  1.00  0.00     0.002 A 
HETATM   10  C18 UNL     1      19.811  -0.384  52.492  1.00  0.00     0.046 A 
HETATM   11  C19 UNL     1      18.533  -0.430  51.951  1.00  0.00     0.069 A 
HETATM   12  N2  UNL     1      17.680  -1.237  52.745  1.00  0.00    -0.243 NA
HETATM   13  C20 UNL     1      16.464  -0.862  52.913  1.00  0.00     0.208 C 
HETATM   14  N3  UNL     1      15.164  -0.291  52.986  1.00  0.00    -0.354 N 
HETATM   15  H16 UNL     1      14.437  -0.968  53.279  1.00  0.00     0.166 HD
ENDROOT
BRANCH   9  16
HETATM   16  C11 UNL     1      22.192   0.396  52.458  1.00  0.00     0.109 A 
HETATM   17  N1  UNL     1      23.130   1.010  52.418  1.00  0.00    -0.240 NA
HETATM   18  C12 UNL     1      24.295   0.899  53.010  1.00  0.00     0.076 A 
HETATM   19  C13 UNL     1      25.418   1.718  52.901  1.00  0.00     0.057 A 
HETATM   20  C17 UNL     1      24.411  -0.155  53.834  1.00  0.00     0.036 A 
HETATM   21  C14 UNL     1      26.534   1.415  53.613  1.00  0.00     0.036 A 
HETATM   22 CL1  UNL     1      28.002   2.404  53.529  1.00  0.00    -0.084 Cl
HETATM   23  C15 UNL     1      26.685   0.330  54.474  1.00  0.00     0.025 A 
HETATM   24  C16 UNL     1      25.558  -0.492  54.584  1.00  0.00     0.023 A 
HETATM   25  S1  UNL     1      22.826  -0.903  53.689  1.00  0.00    -0.068 SA
ENDBRANCH   9  16
BRANCH   1  26
HETATM   26  C1  UNL     1      13.351   3.019  53.062  1.00  0.00     0.193 C 
BRANCH  26  27
HETATM   27  O1  UNL     1      14.132   3.847  53.874  1.00  0.00    -0.397 OA
HETATM   28  H1  UNL     1      15.024   3.984  53.497  1.00  0.00     0.209 HD
ENDBRANCH  26  27
ENDBRANCH   1  26
TORSDOF 3
ENDMDL
MODEL 2
REMARK VINA RESULT:      -8.5      8.470     12.169
REMARK  3 active torsions:
REMARK  status: ('A' for Active; 'I' for Inactive)
REMARK    1  A    between atoms: O1_1  and  C1_2 
REMARK    2  A    between atoms: C1_2  and  C2_3 
REMARK    3  A    between atoms: C10_11  and  C11_12 
ROOT
HETATM    1  C2  UNL     1      29.051  12.217  48.684  1.00  0.00     0.024 C 
HETATM    2  C3  UNL     1      28.699  11.047  48.228  1.00  0.00     0.011 C 
HETATM    3  C4  UNL     1      29.464   9.788  48.216  1.00  0.00     0.084 C 
HETATM    4  C5  UNL     1      29.671   9.255  46.863  1.00  0.00    -0.020 C 
HETATM    5  C6  UNL     1      29.180   8.075  46.531  1.00  0.00     0.010 C 
HETATM    6  C7  UNL     1      28.412   7.151  47.344  1.00  0.00    -0.008 A 
HETATM    7  C8  UNL     1      29.030   5.975  47.702  1.00  0.00     0.014 A 
HETATM    8  C9  UNL     1      28.466   4.958  48.482  1.00  0.00     0.015 A 
HETATM    9  C10 UNL     1      27.178   5.220  48.897  1.00  0.00     0.002 A 
HETATM   10  C18 UNL     1      26.535   6.381  48.558  1.00  0.00     0.046 A 
HETATM   11  C19 UNL     1      27.128   7.366  47.781  1.00  0.00     0.069 A 
HETATM   12  N2  UNL     1      26.240   8.452  47.579  1.00  0.00    -0.243 NA
HETATM   13  C20 UNL     1      26.714   9.644  47.594  1.00  0.00     0.208 C 
HETATM   14  N3  UNL     1      27.416  10.879  47.645  1.00  0.00    -0.354 N 
HETATM   15  H16 UNL     1      26.897  11.662  47.207  1.00  0.00     0.166 HD
ENDROOT
BRANCH   9  16
HETATM   16  C11 UNL     1      26.584   4.159  49.715  1.00  0.00     0.109 A 
HETATM   17  N1  UNL     1      26.849   3.243  50.307  1.00  0.00    -0.240 NA
HETATM   18  C12 UNL     1      26.133   2.391  50.999  1.00  0.00     0.076 A 
HETATM   19  C13 UNL     1      26.550   1.267  51.712  1.00  0.00     0.057 A 
HETATM   20  C17 UNL     1      24.814   2.645  51.018  1.00  0.00     0.036 A 
HETATM   21  C14 UNL     1      25.629   0.514  52.366  1.00  0.00     0.036 A 
HETATM   22 CL1  UNL     1      26.078  -0.928  53.293  1.00  0.00    -0.084 Cl
HETATM   23  C15 UNL     1      24.256   0.752  52.405  1.00  0.00     0.025 A 
HETATM   24  C16 UNL     1      23.838   1.879  51.689  1.00  0.00     0.023 A 
HETATM   25  S1  UNL     1      24.713   4.098  50.033  1.00  0.00    -0.068 SA
ENDBRANCH   9  16
BRANCH   1  26
HETATM   26  C1  UNL     1      30.330  12.598  49.319  1.00  0.00     0.193 C 
BRANCH  26  27
HETATM   27  O1  UNL     1      31.300  12.675  48.316  1.00  0.00    -0.397 OA
HETATM   28  H1  UNL     1      31.222  11.936  47.680  1.00  0.00     0.209 HD
ENDBRANCH  26  27
ENDBRANCH   1  26
TORSDOF 3
ENDMDL
MODEL 3
REMARK VINA RESULT:      -8.4      3.272      4.144
REMARK  3 active torsions:
REMARK  status: ('A' for Active; 'I' for Inactive)
REMARK    1  A    between atoms: O1_1  and  C1_2 
REMARK    2  A    between atoms: C1_2  and  C2_3 
REMARK    3  A    between atoms: C10_11  and  C11_12 
ROOT
HETATM    1  C2  UNL     1      17.550   3.492  48.521  1.00  0.00     0.024 C 
HETATM    2  C3  UNL     1      18.116   3.005  49.589  1.00  0.00     0.011 C 
HETATM    3  C4  UNL     1      18.667   1.657  49.814  1.00  0.00     0.084 C 
HETATM    4  C5  UNL     1      18.020   0.950  50.927  1.00  0.00    -0.020 C 
HETATM    5  C6  UNL     1      18.724   0.587  51.983  1.00  0.00     0.010 C 
HETATM    6  C7  UNL     1      20.138   0.787  52.242  1.00  0.00    -0.008 A 
HETATM    7  C8  UNL     1      20.936  -0.333  52.239  1.00  0.00     0.014 A 
HETATM    8  C9  UNL     1      22.318  -0.355  52.463  1.00  0.00     0.015 A 
HETATM    9  C10 UNL     1      22.866   0.888  52.700  1.00  0.00     0.002 A 
HETATM   10  C18 UNL     1      22.099   2.022  52.710  1.00  0.00     0.046 A 
HETATM   11  C19 UNL     1      20.729   2.002  52.485  1.00  0.00     0.069 A 
HETATM   12  N2  UNL     1      20.187   3.310  52.559  1.00  0.00    -0.243 NA
HETATM   13  C20 UNL     1      19.264   3.639  51.732  1.00  0.00     0.208 C 
HETATM   14  N3  UNL     1      18.261   3.821  50.742  1.00  0.00    -0.354 N 
HETATM   15  H16 UNL     1      17.630   4.618  50.941  1.00  0.00     0.166 HD
ENDROOT
BRANCH   9  16
HETATM   16  C11 UNL     1      24.313   0.871  52.933  1.00  0.00     0.109 A 
HETATM   17  N1  UNL     1      25.185   0.172  53.040  1.00  0.00    -0.240 NA
HETATM   18  C12 UNL     1      26.463   0.369  53.256  1.00  0.00     0.076 A 
HETATM   19  C13 UNL     1      27.488  -0.569  53.376  1.00  0.00     0.057 A 
HETATM   20  C17 UNL     1      26.824   1.657  53.378  1.00  0.00     0.036 A 
HETATM   21  C14 UNL     1      28.757  -0.142  53.602  1.00  0.00     0.036 A 
HETATM   22 CL1  UNL     1      30.115  -1.269  53.767  1.00  0.00    -0.084 Cl
HETATM   23  C15 UNL     1      29.163   1.185  53.733  1.00  0.00     0.025 A 
HETATM   24  C16 UNL     1      28.134   2.126  53.613  1.00  0.00     0.023 A 
HETATM   25  S1  UNL     1      25.286   2.484  53.170  1.00  0.00    -0.068 SA
ENDBRANCH   9  16
BRANCH   1  26
HETATM   26  C1  UNL     1      17.304   2.813  47.231  1.00  0.00     0.193 C 
BRANCH  26  27
HETATM   27  O1  UNL     1      18.510   2.786  46.525  1.00  0.00    -0.397 OA
HETATM   28  H1  UNL     1      18.645   3.606  46.009  1.00  0.00     0.209 HD
ENDBRANCH  26  27
ENDBRANCH   1  26
TORSDOF 3
ENDMDL
MODEL 4
REMARK VINA RESULT:      -8.1      5.810      7.686
REMARK  3 active torsions:
REMARK  status: ('A' for Active; 'I' for Inactive)
REMARK    1  A    between atoms: O1_1  and  C1_2 
REMARK    2  A    between atoms: C1_2  and  C2_3 
REMARK    3  A    between atoms: C10_11  and  C11_12 
ROOT
HETATM    1  C2  UNL     1      21.494  -0.512  53.086  1.00  0.00     0.024 C 
HETATM    2  C3  UNL     1      21.597   0.534  52.314  1.00  0.00     0.011 C 
HETATM    3  C4  UNL     1      21.913   1.927  52.677  1.00  0.00     0.084 C 
HETATM    4  C5  UNL     1      20.853   2.872  52.304  1.00  0.00    -0.020 C 
HETATM    5  C6  UNL     1      21.099   3.841  51.441  1.00  0.00     0.010 C 
HETATM    6  C7  UNL     1      22.338   4.147  50.751  1.00  0.00    -0.008 A 
HETATM    7  C8  UNL     1      22.985   5.304  51.117  1.00  0.00     0.014 A 
HETATM    8  C9  UNL     1      24.189   5.774  50.578  1.00  0.00     0.015 A 
HETATM    9  C10 UNL     1      24.720   4.961  49.600  1.00  0.00     0.002 A 
HETATM   10  C18 UNL     1      24.101   3.803  49.213  1.00  0.00     0.046 A 
HETATM   11  C19 UNL     1      22.906   3.369  49.772  1.00  0.00     0.069 A 
HETATM   12  N2  UNL     1      22.487   2.150  49.184  1.00  0.00    -0.243 NA
HETATM   13  C20 UNL     1      21.953   1.258  49.935  1.00  0.00     0.208 C 
HETATM   14  N3  UNL     1      21.389   0.398  50.917  1.00  0.00    -0.354 N 
HETATM   15  H16 UNL     1      20.800  -0.352  50.513  1.00  0.00     0.166 HD
ENDROOT
BRANCH   9  16
HETATM   16  C11 UNL     1      25.981   5.448  49.034  1.00  0.00     0.109 A 
HETATM   17  N1  UNL     1      27.056   5.161  48.887  1.00  0.00    -0.240 NA
HETATM   18  C12 UNL     1      28.073   5.769  48.326  1.00  0.00     0.076 A 
HETATM   19  C13 UNL     1      29.390   5.333  48.187  1.00  0.00     0.057 A 
HETATM   20  C17 UNL     1      27.796   6.982  47.819  1.00  0.00     0.036 A 
HETATM   21  C14 UNL     1      30.294   6.133  47.565  1.00  0.00     0.036 A 
HETATM   22 CL1  UNL     1      31.986   5.653  47.347  1.00  0.00    -0.084 Cl
HETATM   23  C15 UNL     1      30.038   7.394  47.029  1.00  0.00     0.025 A 
HETATM   24  C16 UNL     1      28.716   7.832  47.170  1.00  0.00     0.023 A 
HETATM   25  S1  UNL     1      26.086   7.148  48.193  1.00  0.00    -0.068 SA
ENDBRANCH   9  16
BRANCH   1  26
HETATM   26  C1  UNL     1      21.668  -0.581  54.552  1.00  0.00     0.193 C 
BRANCH  26  27
HETATM   27  O1  UNL     1      21.121  -1.790  54.992  1.00  0.00    -0.397 OA
HETATM   28  H1  UNL     1      21.813  -2.464  55.148  1.00  0.00     0.209 HD
ENDBRANCH  26  27
ENDBRANCH   1  26
TORSDOF 3
ENDMDL
MODEL 5
REMARK VINA RESULT:      -8.1      6.561      9.815
REMARK  3 active torsions:
REMARK  status: ('A' for Active; 'I' for Inactive)
REMARK    1  A    between atoms: O1_1  and  C1_2 
REMARK    2  A    between atoms: C1_2  and  C2_3 
REMARK    3  A    between atoms: C10_11  and  C11_12 
ROOT
HETATM    1  C2  UNL     1      26.918  -2.032  53.170  1.00  0.00     0.024 C 
HETATM    2  C3  UNL     1      26.284  -0.918  52.934  1.00  0.00     0.011 C 
HETATM    3  C4  UNL     1      26.681   0.210  52.072  1.00  0.00     0.084 C 
HETATM    4  C5  UNL     1      26.796   1.478  52.804  1.00  0.00    -0.020 C 
HETATM    5  C6  UNL     1      26.020   2.499  52.490  1.00  0.00     0.010 C 
HETATM    6  C7  UNL     1      24.997   2.579  51.465  1.00  0.00    -0.008 A 
HETATM    7  C8  UNL     1      25.258   3.391  50.386  1.00  0.00     0.014 A 
HETATM    8  C9  UNL     1      24.408   3.601  49.294  1.00  0.00     0.015 A 
HETATM    9  C10 UNL     1      23.221   2.904  49.366  1.00  0.00     0.002 A 
HETATM   10  C18 UNL     1      22.930   2.087  50.427  1.00  0.00     0.046 A 
HETATM   11  C19 UNL     1      23.801   1.905  51.493  1.00  0.00     0.069 A 
HETATM   12  N2  UNL     1      23.247   1.018  52.449  1.00  0.00    -0.243 NA
HETATM   13  C20 UNL     1      24.024   0.175  53.026  1.00  0.00     0.208 C 
HETATM   14  N3  UNL     1      25.030  -0.679  53.554  1.00  0.00    -0.354 N 
HETATM   15  H16 UNL     1      24.761  -1.120  54.453  1.00  0.00     0.166 HD
ENDROOT
BRANCH   9  16
HETATM   16  C11 UNL     1      22.327   3.119  48.225  1.00  0.00     0.109 A 
HETATM   17  N1  UNL     1      22.331   3.394  47.137  1.00  0.00    -0.240 NA
HETATM   18  C12 UNL     1      21.375   3.540  46.251  1.00  0.00     0.076 A 
HETATM   19  C13 UNL     1      21.471   3.887  44.904  1.00  0.00     0.057 A 
HETATM   20  C17 UNL     1      20.134   3.322  46.717  1.00  0.00     0.036 A 
HETATM   21  C14 UNL     1      20.339   3.983  44.159  1.00  0.00     0.036 A 
HETATM   22 CL1  UNL     1      20.375   4.419  42.442  1.00  0.00    -0.084 Cl
HETATM   23  C15 UNL     1      19.040   3.763  44.614  1.00  0.00     0.025 A 
HETATM   24  C16 UNL     1      18.944   3.415  45.966  1.00  0.00     0.023 A 
HETATM   25  S1  UNL     1      20.447   2.923  48.401  1.00  0.00    -0.068 SA
ENDBRANCH   9  16
BRANCH   1  26
HETATM   26  C1  UNL     1      28.224  -2.468  52.631  1.00  0.00     0.193 C 
BRANCH  26  27
HETATM   27  O1  UNL     1      28.647  -3.573  53.375  1.00  0.00    -0.397 OA
HETATM   28  H1  UNL     1      29.601  -3.523  53.587  1.00  0.00     0.209 HD
ENDBRANCH  26  27
ENDBRANCH   1  26
TORSDOF 3
ENDMDL
MODEL 6
REMARK VINA RESULT:      -7.8     10.190     14.774
REMARK  3 active torsions:
REMARK  status: ('A' for Active; 'I' for Inactive)
REMARK    1  A    between atoms: O1_1  and  C1_2 
REMARK    2  A    between atoms: C1_2  and  C2_3 
REMARK    3  A    between atoms: C10_11  and  C11_12 
ROOT
HETATM    1  C2  UNL     1      34.612   4.988  43.414  1.00  0.00     0.024 C 
HETATM    2  C3  UNL     1      33.945   5.516  44.402  1.00  0.00     0.011 C 
HETATM    3  C4  UNL     1      32.736   6.358  44.360  1.00  0.00     0.084 C 
HETATM    4  C5  UNL     1      32.936   7.679  44.970  1.00  0.00    -0.020 C 
HETATM    5  C6  UNL     1      32.227   8.037  46.026  1.00  0.00     0.010 C 
HETATM    6  C7  UNL     1      31.208   7.283  46.732  1.00  0.00    -0.008 A 
HETATM    7  C8  UNL     1      29.913   7.734  46.624  1.00  0.00     0.014 A 
HETATM    8  C9  UNL     1      28.790   7.149  47.222  1.00  0.00     0.015 A 
HETATM    9  C10 UNL     1      29.075   6.027  47.970  1.00  0.00     0.002 A 
HETATM   10  C18 UNL     1      30.353   5.553  48.098  1.00  0.00     0.046 A 
HETATM   11  C19 UNL     1      31.442   6.162  47.490  1.00  0.00     0.069 A 
HETATM   12  N2  UNL     1      32.641   5.470  47.793  1.00  0.00    -0.243 NA
HETATM   13  C20 UNL     1      33.525   5.341  46.872  1.00  0.00     0.208 C 
HETATM   14  N3  UNL     1      34.378   5.298  45.736  1.00  0.00    -0.354 N 
HETATM   15  H16 UNL     1      35.365   5.090  45.974  1.00  0.00     0.166 HD
ENDROOT
BRANCH   9  16
HETATM   16  C11 UNL     1      27.902   5.411  48.598  1.00  0.00     0.109 A 
HETATM   17  N1  UNL     1      27.578   4.498  49.164  1.00  0.00    -0.240 NA
HETATM   18  C12 UNL     1      26.425   4.119  49.661  1.00  0.00     0.076 A 
HETATM   19  C13 UNL     1      26.109   2.954  50.359  1.00  0.00     0.057 A 
HETATM   20  C17 UNL     1      25.414   4.981  49.462  1.00  0.00     0.036 A 
HETATM   21  C14 UNL     1      24.835   2.761  50.788  1.00  0.00     0.036 A 
HETATM   22 CL1  UNL     1      24.352   1.309  51.681  1.00  0.00    -0.084 Cl
HETATM   23  C15 UNL     1      23.767   3.635  50.598  1.00  0.00     0.025 A 
HETATM   24  C16 UNL     1      24.084   4.804  49.897  1.00  0.00     0.023 A 
HETATM   25  S1  UNL     1      26.210   6.273  48.574  1.00  0.00    -0.068 SA
ENDBRANCH   9  16
BRANCH   1  26
HETATM   26  C1  UNL     1      34.331   5.096  41.966  1.00  0.00     0.193 C 
BRANCH  26  27
HETATM   27  O1  UNL     1      33.725   3.905  41.558  1.00  0.00    -0.397 OA
HETATM   28  H1  UNL     1      33.285   4.004  40.689  1.00  0.00     0.209 HD
ENDBRANCH  26  27
ENDBRANCH   1  26
TORSDOF 3
ENDMDL
MODEL 7
REMARK VINA RESULT:      -7.5      4.032      5.090
REMARK  3 active torsions:
REMARK  status: ('A' for Active; 'I' for Inactive)
REMARK    1  A    between atoms: O1_1  and  C1_2 
REMARK    2  A    between atoms: C1_2  and  C2_3 
REMARK    3  A    between atoms: C10_11  and  C11_12 
ROOT
HETATM    1  C2  UNL     1      15.729   0.132  49.819  1.00  0.00     0.024 C 
HETATM    2  C3  UNL     1      16.754   0.568  50.498  1.00  0.00     0.011 C 
HETATM    3  C4  UNL     1      18.082  -0.046  50.669  1.00  0.00     0.084 C 
HETATM    4  C5  UNL     1      18.409  -0.323  52.074  1.00  0.00    -0.020 C 
HETATM    5  C6  UNL     1      19.446   0.264  52.643  1.00  0.00     0.010 C 
HETATM    6  C7  UNL     1      20.384   1.207  52.064  1.00  0.00    -0.008 A 
HETATM    7  C8  UNL     1      21.672   0.764  51.870  1.00  0.00     0.014 A 
HETATM    8  C9  UNL     1      22.722   1.513  51.324  1.00  0.00     0.015 A 
HETATM    9  C10 UNL     1      22.368   2.797  50.970  1.00  0.00     0.002 A 
HETATM   10  C18 UNL     1      21.095   3.269  51.151  1.00  0.00     0.046 A 
HETATM   11  C19 UNL     1      20.080   2.495  51.697  1.00  0.00     0.069 A 
HETATM   12  N2  UNL     1      18.872   3.230  51.775  1.00  0.00    -0.243 NA
HETATM   13  C20 UNL     1      17.769   2.628  51.516  1.00  0.00     0.208 C 
HETATM   14  N3  UNL     1      16.659   1.799  51.198  1.00  0.00    -0.354 N 
HETATM   15  H16 UNL     1      15.755   2.181  51.532  1.00  0.00     0.166 HD
ENDROOT
BRANCH   9  16
HETATM   16  C11 UNL     1      23.463   3.585  50.397  1.00  0.00     0.109 A 
HETATM   17  N1  UNL     1      24.531   3.504  50.059  1.00  0.00    -0.240 NA
HETATM   18  C12 UNL     1      25.373   4.370  49.550  1.00  0.00     0.076 A 
HETATM   19  C13 UNL     1      26.697   4.180  49.154  1.00  0.00     0.057 A 
HETATM   20  C17 UNL     1      24.882   5.610  49.393  1.00  0.00     0.036 A 
HETATM   21  C14 UNL     1      27.396   5.228  48.646  1.00  0.00     0.036 A 
HETATM   22 CL1  UNL     1      29.081   5.070  48.121  1.00  0.00    -0.084 Cl
HETATM   23  C15 UNL     1      26.915   6.524  48.471  1.00  0.00     0.025 A 
HETATM   24  C16 UNL     1      25.587   6.715  48.869  1.00  0.00     0.023 A 
HETATM   25  S1  UNL     1      23.240   5.427  49.994  1.00  0.00    -0.068 SA
ENDBRANCH   9  16
BRANCH   1  26
HETATM   26  C1  UNL     1      15.624  -1.114  49.031  1.00  0.00     0.193 C 
BRANCH  26  27
HETATM   27  O1  UNL     1      15.023  -2.083  49.841  1.00  0.00    -0.397 OA
HETATM   28  H1  UNL     1      15.613  -2.850  49.983  1.00  0.00     0.209 HD
ENDBRANCH  26  27
ENDBRANCH   1  26
TORSDOF 3
ENDMDL
MODEL 8
REMARK VINA RESULT:      -7.5      5.756      6.648
REMARK  3 active torsions:
REMARK  status: ('A' for Active; 'I' for Inactive)
REMARK    1  A    between atoms: O1_1  and  C1_2 
REMARK    2  A    between atoms: C1_2  and  C2_3 
REMARK    3  A    between atoms: C10_11  and  C11_12 
ROOT
HETATM    1  C2  UNL     1      19.306   7.987  49.304  1.00  0.00     0.024 C 
HETATM    2  C3  UNL     1      20.279   7.174  49.000  1.00  0.00     0.011 C 
HETATM    3  C4  UNL     1      21.733   7.400  49.072  1.00  0.00     0.084 C 
HETATM    4  C5  UNL     1      22.402   7.250  47.774  1.00  0.00    -0.020 C 
HETATM    5  C6  UNL     1      23.322   6.317  47.604  1.00  0.00     0.010 C 
HETATM    6  C7  UNL     1      23.816   5.346  48.561  1.00  0.00    -0.008 A 
HETATM    7  C8  UNL     1      25.109   5.506  49.001  1.00  0.00     0.014 A 
HETATM    8  C9  UNL     1      25.770   4.684  49.921  1.00  0.00     0.015 A 
HETATM    9  C10 UNL     1      25.001   3.641  50.392  1.00  0.00     0.002 A 
HETATM   10  C18 UNL     1      23.711   3.453  49.974  1.00  0.00     0.046 A 
HETATM   11  C19 UNL     1      23.090   4.291  49.057  1.00  0.00     0.069 A 
HETATM   12  N2  UNL     1      21.764   3.863  48.801  1.00  0.00    -0.243 NA
HETATM   13  C20 UNL     1      20.850   4.752  48.656  1.00  0.00     0.208 C 
HETATM   14  N3  UNL     1      19.981   5.869  48.526  1.00  0.00    -0.354 N 
HETATM   15  H16 UNL     1      19.093   5.642  48.043  1.00  0.00     0.166 HD
ENDROOT
BRANCH   9  16
HETATM   16  C11 UNL     1      25.687   2.778  51.357  1.00  0.00     0.109 A 
HETATM   17  N1  UNL     1      26.629   2.185  51.502  1.00  0.00    -0.240 NA
HETATM   18  C12 UNL     1      27.073   1.445  52.489  1.00  0.00     0.076 A 
HETATM   19  C13 UNL     1      28.270   0.735  52.586  1.00  0.00     0.057 A 
HETATM   20  C17 UNL     1      26.252   1.365  53.549  1.00  0.00     0.036 A 
HETATM   21  C14 UNL     1      28.533   0.025  53.713  1.00  0.00     0.036 A 
HETATM   22 CL1  UNL     1      30.029  -0.903  53.915  1.00  0.00    -0.084 Cl
HETATM   23  C15 UNL     1      27.703  -0.078  54.828  1.00  0.00     0.025 A 
HETATM   24  C16 UNL     1      26.501   0.634  54.730  1.00  0.00     0.023 A 
HETATM   25  S1  UNL     1      24.902   2.367  53.037  1.00  0.00    -0.068 SA
ENDBRANCH   9  16
BRANCH   1  26
HETATM   26  C1  UNL     1      19.403   9.373  49.807  1.00  0.00     0.193 C 
BRANCH  26  27
HETATM   27  O1  UNL     1      18.114   9.916  49.817  1.00  0.00    -0.397 OA
HETATM   28  H1  UNL     1      18.092  10.784  50.268  1.00  0.00     0.209 HD
ENDBRANCH  26  27
ENDBRANCH   1  26
TORSDOF 3
ENDMDL
MODEL 9
REMARK VINA RESULT:      -7.4      2.907      3.758
REMARK  3 active torsions:
REMARK  status: ('A' for Active; 'I' for Inactive)
REMARK    1  A    between atoms: O1_1  and  C1_2 
REMARK    2  A    between atoms: C1_2  and  C2_3 
REMARK    3  A    between atoms: C10_11  and  C11_12 
ROOT
HETATM    1  C2  UNL     1      15.043  -1.412  47.397  1.00  0.00     0.024 C 
HETATM    2  C3  UNL     1      15.563  -0.859  48.458  1.00  0.00     0.011 C 
HETATM    3  C4  UNL     1      15.894  -1.473  49.756  1.00  0.00     0.084 C 
HETATM    4  C5  UNL     1      15.183  -0.854  50.881  1.00  0.00    -0.020 C 
HETATM    5  C6  UNL     1      15.859  -0.260  51.848  1.00  0.00     0.010 C 
HETATM    6  C7  UNL     1      17.295  -0.110  51.990  1.00  0.00    -0.008 A 
HETATM    7  C8  UNL     1      17.898  -0.819  53.002  1.00  0.00     0.014 A 
HETATM    8  C9  UNL     1      19.265  -0.815  53.303  1.00  0.00     0.015 A 
HETATM    9  C10 UNL     1      20.018  -0.011  52.475  1.00  0.00     0.002 A 
HETATM   10  C18 UNL     1      19.448   0.709  51.459  1.00  0.00     0.046 A 
HETATM   11  C19 UNL     1      18.086   0.679  51.193  1.00  0.00     0.069 A 
HETATM   12  N2  UNL     1      17.769   1.518  50.096  1.00  0.00    -0.243 NA
HETATM   13  C20 UNL     1      16.881   1.124  49.258  1.00  0.00     0.208 C 
HETATM   14  N3  UNL     1      15.883   0.524  48.443  1.00  0.00    -0.354 N 
HETATM   15  H16 UNL     1      15.399   1.200  47.825  1.00  0.00     0.166 HD
ENDROOT
BRANCH   9  16
HETATM   16  C11 UNL     1      21.451  -0.004  52.785  1.00  0.00     0.109 A 
HETATM   17  N1  UNL     1      22.424   0.455  52.465  1.00  0.00    -0.240 NA
HETATM   18  C12 UNL     1      23.656   0.322  52.894  1.00  0.00     0.076 A 
HETATM   19  C13 UNL     1      24.819   0.938  52.433  1.00  0.00     0.057 A 
HETATM   20  C17 UNL     1      23.807  -0.531  53.921  1.00  0.00     0.036 A 
HETATM   21  C14 UNL     1      26.005   0.652  53.030  1.00  0.00     0.036 A 
HETATM   22 CL1  UNL     1      27.526   1.393  52.503  1.00  0.00    -0.084 Cl
HETATM   23  C15 UNL     1      26.194  -0.226  54.095  1.00  0.00     0.025 A 
HETATM   24  C16 UNL     1      25.027  -0.845  54.557  1.00  0.00     0.023 A 
HETATM   25  S1  UNL     1      22.156  -1.073  54.187  1.00  0.00    -0.068 SA
ENDBRANCH   9  16
BRANCH   1  26
HETATM   26  C1  UNL     1      14.639  -2.821  47.211  1.00  0.00     0.193 C 
BRANCH  26  27
HETATM   27  O1  UNL     1      15.553  -3.416  46.336  1.00  0.00    -0.397 OA
HETATM   28  H1  UNL     1      16.205  -2.769  45.999  1.00  0.00     0.209 HD
ENDBRANCH  26  27
ENDBRANCH   1  26
TORSDOF 3
ENDMDL
