MODEL 1
REMARK VINA RESULT:      -7.6      0.000      0.000
REMARK  7 active torsions:
REMARK  status: ('A' for Active; 'I' for Inactive)
REMARK    1  A    between atoms: O1_2  and  C2_3 
REMARK    2  A    between atoms: C2_3  and  C3_4 
REMARK    3  A    between atoms: C3_4  and  C4_5 
REMARK    4  A    between atoms: C4_5  and  O2_6 
REMARK    5  A    between atoms: C5_7  and  C6_8 
REMARK    6  A    between atoms: C8_10  and  N1_11 
REMARK    7  A    between atoms: N1_11  and  C9_12 
ROOT
HETATM    1  C9  UNL     1      26.970   1.911  53.348  1.00  0.00     0.035 A 
HETATM    2  C10 UNL     1      28.224   2.338  53.732  1.00  0.00     0.032 A 
HETATM    3  C11 UNL     1      29.328   1.540  53.876  1.00  0.00     0.046 A 
HETATM    4  C12 UNL     1      29.189   0.193  53.618  1.00  0.00     0.137 A 
HETATM    5  F1  UNL     1      30.242  -0.630  53.746  1.00  0.00    -0.204 F 
HETATM    6  C13 UNL     1      27.976  -0.299  53.232  1.00  0.00     0.085 A 
HETATM    7  C14 UNL     1      27.797  -1.699  52.957  1.00  0.00     0.102 C 
HETATM    8  N2  UNL     1      27.648  -2.837  52.712  1.00  0.00    -0.191 NA
HETATM    9  C15 UNL     1      26.914   0.559  53.109  1.00  0.00     0.055 A 
ENDROOT
BRANCH   1  10
HETATM   10  N1  UNL     1      25.833   2.718  53.209  1.00  0.00    -0.341 N 
HETATM   11  H11 UNL     1      25.817   3.606  53.787  1.00  0.00     0.167 HD
BRANCH  10  12
HETATM   12  C8  UNL     1      24.696   2.494  52.391  1.00  0.00     0.131 A 
HETATM   13  C7  UNL     1      23.500   2.057  52.960  1.00  0.00     0.082 A 
HETATM   14  C6  UNL     1      22.361   1.829  52.234  1.00  0.00     0.064 A 
HETATM   15  N4  UNL     1      22.435   2.046  50.911  1.00  0.00    -0.242 NA
HETATM   16  C16 UNL     1      23.553   2.466  50.306  1.00  0.00     0.235 A 
HETATM   17  N3  UNL     1      24.631   2.670  51.069  1.00  0.00    -0.224 NA
BRANCH  14  18
HETATM   18  C5  UNL     1      21.139   1.369  52.876  1.00  0.00     0.063 C 
HETATM   19  C4  UNL     1      21.058   0.206  53.456  1.00  0.00     0.047 C 
BRANCH  19  20
HETATM   20  C3  UNL     1      22.101  -0.843  53.590  1.00  0.00     0.090 C 
BRANCH  20  21
HETATM   21  C2  UNL     1      21.705  -1.738  54.748  1.00  0.00     0.173 C 
BRANCH  21  22
HETATM   22  O1  UNL     1      22.793  -1.793  55.618  1.00  0.00    -0.396 OA
HETATM   23  C1  UNL     1      23.893  -1.145  55.018  1.00  0.00     0.201 C 
ENDBRANCH  21  22
ENDBRANCH  20  21
ENDBRANCH  19  20
BRANCH  19  24
HETATM   24  O2  UNL     1      19.897  -0.243  54.074  1.00  0.00    -0.365 OA
HETATM   25  H8  UNL     1      19.650  -1.209  53.994  1.00  0.00     0.217 HD
ENDBRANCH  19  24
ENDBRANCH  14  18
ENDBRANCH  10  12
ENDBRANCH   1  10
TORSDOF 7
ENDMDL
MODEL 2
REMARK VINA RESULT:      -7.5      3.403      5.632
REMARK  7 active torsions:
REMARK  status: ('A' for Active; 'I' for Inactive)
REMARK    1  A    between atoms: O1_2  and  C2_3 
REMARK    2  A    between atoms: C2_3  and  C3_4 
REMARK    3  A    between atoms: C3_4  and  C4_5 
REMARK    4  A    between atoms: C4_5  and  O2_6 
REMARK    5  A    between atoms: C5_7  and  C6_8 
REMARK    6  A    between atoms: C8_10  and  N1_11 
REMARK    7  A    between atoms: N1_11  and  C9_12 
ROOT
HETATM    1  C9  UNL     1      21.848   0.832  52.965  1.00  0.00     0.035 A 
HETATM    2  C10 UNL     1      21.033   0.176  53.862  1.00  0.00     0.032 A 
HETATM    3  C11 UNL     1      21.444  -0.747  54.786  1.00  0.00     0.046 A 
HETATM    4  C12 UNL     1      22.788  -1.056  54.836  1.00  0.00     0.137 A 
HETATM    5  F1  UNL     1      23.240  -1.954  55.725  1.00  0.00    -0.204 F 
HETATM    6  C13 UNL     1      23.653  -0.443  53.977  1.00  0.00     0.085 A 
HETATM    7  C14 UNL     1      25.059  -0.744  54.002  1.00  0.00     0.102 C 
HETATM    8  N2  UNL     1      26.210  -0.970  54.029  1.00  0.00    -0.191 NA
HETATM    9  C15 UNL     1      23.169   0.471  53.077  1.00  0.00     0.055 A 
ENDROOT
BRANCH   1  10
HETATM   10  N1  UNL     1      21.434   1.769  52.008  1.00  0.00    -0.341 N 
HETATM   11  H11 UNL     1      20.564   2.326  52.246  1.00  0.00     0.167 HD
BRANCH  10  12
HETATM   12  C8  UNL     1      22.032   2.064  50.756  1.00  0.00     0.131 A 
HETATM   13  C7  UNL     1      23.189   2.841  50.700  1.00  0.00     0.082 A 
HETATM   14  C6  UNL     1      23.825   3.158  49.529  1.00  0.00     0.064 A 
HETATM   15  N4  UNL     1      23.282   2.681  48.398  1.00  0.00    -0.242 NA
HETATM   16  C16 UNL     1      22.173   1.929  48.386  1.00  0.00     0.235 A 
HETATM   17  N3  UNL     1      21.598   1.655  49.561  1.00  0.00    -0.224 NA
BRANCH  14  18
HETATM   18  C5  UNL     1      25.028   3.977  49.524  1.00  0.00     0.063 C 
HETATM   19  C4  UNL     1      26.178   3.519  49.928  1.00  0.00     0.047 C 
BRANCH  19  20
HETATM   20  C3  UNL     1      26.513   2.168  50.449  1.00  0.00     0.090 C 
BRANCH  20  21
HETATM   21  C2  UNL     1      26.680   2.284  51.950  1.00  0.00     0.173 C 
BRANCH  21  22
HETATM   22  O1  UNL     1      28.030   2.527  52.198  1.00  0.00    -0.396 OA
HETATM   23  C1  UNL     1      28.301   2.267  53.558  1.00  0.00     0.201 C 
ENDBRANCH  21  22
ENDBRANCH  20  21
ENDBRANCH  19  20
BRANCH  19  24
HETATM   24  O2  UNL     1      27.333   4.291  49.927  1.00  0.00    -0.365 OA
HETATM   25  H8  UNL     1      28.164   3.917  50.340  1.00  0.00     0.217 HD
ENDBRANCH  19  24
ENDBRANCH  14  18
ENDBRANCH  10  12
ENDBRANCH   1  10
TORSDOF 7
ENDMDL
MODEL 3
REMARK VINA RESULT:      -7.5      1.619      2.287
REMARK  7 active torsions:
REMARK  status: ('A' for Active; 'I' for Inactive)
REMARK    1  A    between atoms: O1_2  and  C2_3 
REMARK    2  A    between atoms: C2_3  and  C3_4 
REMARK    3  A    between atoms: C3_4  and  C4_5 
REMARK    4  A    between atoms: C4_5  and  O2_6 
REMARK    5  A    between atoms: C5_7  and  C6_8 
REMARK    6  A    between atoms: C8_10  and  N1_11 
REMARK    7  A    between atoms: N1_11  and  C9_12 
ROOT
HETATM    1  C9  UNL     1      26.213   0.916  52.012  1.00  0.00     0.035 A 
HETATM    2  C10 UNL     1      26.342  -0.456  52.055  1.00  0.00     0.032 A 
HETATM    3  C11 UNL     1      27.279  -1.146  52.777  1.00  0.00     0.046 A 
HETATM    4  C12 UNL     1      28.177  -0.419  53.531  1.00  0.00     0.137 A 
HETATM    5  F1  UNL     1      29.113  -1.051  54.256  1.00  0.00    -0.204 F 
HETATM    6  C13 UNL     1      28.107   0.943  53.536  1.00  0.00     0.085 A 
HETATM    7  C14 UNL     1      29.029   1.730  54.310  1.00  0.00     0.102 C 
HETATM    8  N2  UNL     1      29.765   2.378  54.953  1.00  0.00    -0.191 NA
HETATM    9  C15 UNL     1      27.142   1.567  52.788  1.00  0.00     0.055 A 
ENDROOT
BRANCH   1  10
HETATM   10  N1  UNL     1      25.265   1.631  51.267  1.00  0.00    -0.341 N 
HETATM   11  H11 UNL     1      25.559   1.918  50.290  1.00  0.00     0.167 HD
BRANCH  10  12
HETATM   12  C8  UNL     1      23.958   2.021  51.658  1.00  0.00     0.131 A 
HETATM   13  C7  UNL     1      22.976   1.056  51.878  1.00  0.00     0.082 A 
HETATM   14  C6  UNL     1      21.698   1.359  52.266  1.00  0.00     0.064 A 
HETATM   15  N4  UNL     1      21.410   2.659  52.432  1.00  0.00    -0.242 NA
HETATM   16  C16 UNL     1      22.308   3.633  52.236  1.00  0.00     0.235 A 
HETATM   17  N3  UNL     1      23.539   3.273  51.858  1.00  0.00    -0.224 NA
BRANCH  14  18
HETATM   18  C5  UNL     1      20.709   0.313  52.478  1.00  0.00     0.063 C 
HETATM   19  C4  UNL     1      20.613  -0.330  53.607  1.00  0.00     0.047 C 
BRANCH  19  20
HETATM   20  C3  UNL     1      21.422  -0.168  54.843  1.00  0.00     0.090 C 
BRANCH  20  21
HETATM   21  C2  UNL     1      22.417  -1.311  54.892  1.00  0.00     0.173 C 
BRANCH  21  22
HETATM   22  O1  UNL     1      23.656  -0.796  54.516  1.00  0.00    -0.396 OA
HETATM   23  C1  UNL     1      24.619  -1.173  55.476  1.00  0.00     0.201 C 
ENDBRANCH  21  22
ENDBRANCH  20  21
ENDBRANCH  19  20
BRANCH  19  24
HETATM   24  O2  UNL     1      19.672  -1.329  53.822  1.00  0.00    -0.365 OA
HETATM   25  H8  UNL     1      18.813  -1.301  53.310  1.00  0.00     0.217 HD
ENDBRANCH  19  24
ENDBRANCH  14  18
ENDBRANCH  10  12
ENDBRANCH   1  10
TORSDOF 7
ENDMDL
MODEL 4
REMARK VINA RESULT:      -7.4      3.528      5.099
REMARK  7 active torsions:
REMARK  status: ('A' for Active; 'I' for Inactive)
REMARK    1  A    between atoms: O1_2  and  C2_3 
REMARK    2  A    between atoms: C2_3  and  C3_4 
REMARK    3  A    between atoms: C3_4  and  C4_5 
REMARK    4  A    between atoms: C4_5  and  O2_6 
REMARK    5  A    between atoms: C5_7  and  C6_8 
REMARK    6  A    between atoms: C8_10  and  N1_11 
REMARK    7  A    between atoms: N1_11  and  C9_12 
ROOT
HETATM    1  C9  UNL     1      25.691  -0.151  53.420  1.00  0.00     0.035 A 
HETATM    2  C10 UNL     1      26.238  -1.277  52.844  1.00  0.00     0.032 A 
HETATM    3  C11 UNL     1      27.575  -1.556  52.750  1.00  0.00     0.046 A 
HETATM    4  C12 UNL     1      28.464  -0.640  53.273  1.00  0.00     0.137 A 
HETATM    5  F1  UNL     1      29.785  -0.868  53.206  1.00  0.00    -0.204 F 
HETATM    6  C13 UNL     1      27.992   0.498  53.860  1.00  0.00     0.085 A 
HETATM    7  C14 UNL     1      28.891   1.474  54.413  1.00  0.00     0.102 C 
HETATM    8  N2  UNL     1      29.618   2.266  54.884  1.00  0.00    -0.191 NA
HETATM    9  C15 UNL     1      26.639   0.711  53.917  1.00  0.00     0.055 A 
ENDROOT
BRANCH   1  10
HETATM   10  N1  UNL     1      24.325   0.148  53.510  1.00  0.00    -0.341 N 
HETATM   11  H11 UNL     1      23.776  -0.393  54.238  1.00  0.00     0.167 HD
BRANCH  10  12
HETATM   12  C8  UNL     1      23.581   1.084  52.746  1.00  0.00     0.131 A 
HETATM   13  C7  UNL     1      23.778   2.452  52.932  1.00  0.00     0.082 A 
HETATM   14  C6  UNL     1      23.103   3.411  52.224  1.00  0.00     0.064 A 
HETATM   15  N4  UNL     1      22.216   2.978  51.315  1.00  0.00    -0.242 NA
HETATM   16  C16 UNL     1      21.982   1.679  51.090  1.00  0.00     0.235 A 
HETATM   17  N3  UNL     1      22.672   0.791  51.813  1.00  0.00    -0.224 NA
BRANCH  14  18
HETATM   18  C5  UNL     1      23.343   4.827  52.459  1.00  0.00     0.063 C 
HETATM   19  C4  UNL     1      24.108   5.538  51.682  1.00  0.00     0.047 C 
BRANCH  19  20
HETATM   20  C3  UNL     1      24.860   5.113  50.472  1.00  0.00     0.090 C 
BRANCH  20  21
HETATM   21  C2  UNL     1      25.482   6.352  49.860  1.00  0.00     0.173 C 
BRANCH  21  22
HETATM   22  O1  UNL     1      26.555   5.931  49.077  1.00  0.00    -0.396 OA
HETATM   23  C1  UNL     1      26.665   4.527  49.167  1.00  0.00     0.201 C 
ENDBRANCH  21  22
ENDBRANCH  20  21
ENDBRANCH  19  20
BRANCH  19  24
HETATM   24  O2  UNL     1      24.342   6.890  51.895  1.00  0.00    -0.365 OA
HETATM   25  H8  UNL     1      24.279   7.520  51.120  1.00  0.00     0.217 HD
ENDBRANCH  19  24
ENDBRANCH  14  18
ENDBRANCH  10  12
ENDBRANCH   1  10
TORSDOF 7
ENDMDL
MODEL 5
REMARK VINA RESULT:      -7.2      3.081      4.809
REMARK  7 active torsions:
REMARK  status: ('A' for Active; 'I' for Inactive)
REMARK    1  A    between atoms: O1_2  and  C2_3 
REMARK    2  A    between atoms: C2_3  and  C3_4 
REMARK    3  A    between atoms: C3_4  and  C4_5 
REMARK    4  A    between atoms: C4_5  and  O2_6 
REMARK    5  A    between atoms: C5_7  and  C6_8 
REMARK    6  A    between atoms: C8_10  and  N1_11 
REMARK    7  A    between atoms: N1_11  and  C9_12 
ROOT
HETATM    1  C9  UNL     1      25.850  -0.604  53.716  1.00  0.00     0.035 A 
HETATM    2  C10 UNL     1      26.468  -1.616  53.013  1.00  0.00     0.032 A 
HETATM    3  C11 UNL     1      27.813  -1.718  52.777  1.00  0.00     0.046 A 
HETATM    4  C12 UNL     1      28.633  -0.729  53.281  1.00  0.00     0.137 A 
HETATM    5  F1  UNL     1      29.958  -0.784  53.076  1.00  0.00    -0.204 F 
HETATM    6  C13 UNL     1      28.089   0.303  53.987  1.00  0.00     0.085 A 
HETATM    7  C14 UNL     1      28.915   1.350  54.525  1.00  0.00     0.102 C 
HETATM    8  N2  UNL     1      29.585   2.198  54.982  1.00  0.00    -0.191 NA
HETATM    9  C15 UNL     1      26.733   0.339  54.184  1.00  0.00     0.055 A 
ENDROOT
BRANCH   1  10
HETATM   10  N1  UNL     1      24.474  -0.487  53.952  1.00  0.00    -0.341 N 
HETATM   11  H11 UNL     1      24.131  -0.826  54.896  1.00  0.00     0.167 HD
BRANCH  10  12
HETATM   12  C8  UNL     1      23.478   0.030  53.084  1.00  0.00     0.131 A 
HETATM   13  C7  UNL     1      23.821   0.950  52.094  1.00  0.00     0.082 A 
HETATM   14  C6  UNL     1      22.915   1.483  51.216  1.00  0.00     0.064 A 
HETATM   15  N4  UNL     1      21.642   1.078  51.342  1.00  0.00    -0.242 NA
HETATM   16  C16 UNL     1      21.249   0.197  52.271  1.00  0.00     0.235 A 
HETATM   17  N3  UNL     1      22.181  -0.287  53.100  1.00  0.00    -0.224 NA
BRANCH  14  18
HETATM   18  C5  UNL     1      23.325   2.445  50.203  1.00  0.00     0.063 C 
HETATM   19  C4  UNL     1      23.536   3.699  50.485  1.00  0.00     0.047 C 
BRANCH  19  20
HETATM   20  C3  UNL     1      23.418   4.392  51.794  1.00  0.00     0.090 C 
BRANCH  20  21
HETATM   21  C2  UNL     1      23.165   5.860  51.514  1.00  0.00     0.173 C 
BRANCH  21  22
HETATM   22  O1  UNL     1      21.829   5.985  51.139  1.00  0.00    -0.396 OA
HETATM   23  C1  UNL     1      21.591   7.314  50.727  1.00  0.00     0.201 C 
ENDBRANCH  21  22
ENDBRANCH  20  21
ENDBRANCH  19  20
BRANCH  19  24
HETATM   24  O2  UNL     1      23.929   4.625  49.527  1.00  0.00    -0.365 OA
HETATM   25  H8  UNL     1      24.227   5.532  49.827  1.00  0.00     0.217 HD
ENDBRANCH  19  24
ENDBRANCH  14  18
ENDBRANCH  10  12
ENDBRANCH   1  10
TORSDOF 7
ENDMDL
MODEL 6
REMARK VINA RESULT:      -7.1      2.002      3.224
REMARK  7 active torsions:
REMARK  status: ('A' for Active; 'I' for Inactive)
REMARK    1  A    between atoms: O1_2  and  C2_3 
REMARK    2  A    between atoms: C2_3  and  C3_4 
REMARK    3  A    between atoms: C3_4  and  C4_5 
REMARK    4  A    between atoms: C4_5  and  O2_6 
REMARK    5  A    between atoms: C5_7  and  C6_8 
REMARK    6  A    between atoms: C8_10  and  N1_11 
REMARK    7  A    between atoms: N1_11  and  C9_12 
ROOT
HETATM    1  C9  UNL     1      27.073   1.826  53.417  1.00  0.00     0.035 A 
HETATM    2  C10 UNL     1      28.297   2.332  53.798  1.00  0.00     0.032 A 
HETATM    3  C11 UNL     1      29.448   1.606  53.948  1.00  0.00     0.046 A 
HETATM    4  C12 UNL     1      29.393   0.250  53.699  1.00  0.00     0.137 A 
HETATM    5  F1  UNL     1      30.495  -0.504  53.832  1.00  0.00    -0.204 F 
HETATM    6  C13 UNL     1      28.214  -0.318  53.317  1.00  0.00     0.085 A 
HETATM    7  C14 UNL     1      28.122  -1.729  53.052  1.00  0.00     0.102 C 
HETATM    8  N2  UNL     1      28.044  -2.875  52.815  1.00  0.00    -0.191 NA
HETATM    9  C15 UNL     1      27.100   0.472  53.188  1.00  0.00     0.055 A 
ENDROOT
BRANCH   1  10
HETATM   10  N1  UNL     1      25.887   2.560  53.272  1.00  0.00    -0.341 N 
HETATM   11  H11 UNL     1      25.643   3.214  54.070  1.00  0.00     0.167 HD
BRANCH  10  12
HETATM   12  C8  UNL     1      24.970   2.536  52.191  1.00  0.00     0.131 A 
HETATM   13  C7  UNL     1      23.757   1.860  52.318  1.00  0.00     0.082 A 
HETATM   14  C6  UNL     1      22.821   1.803  51.320  1.00  0.00     0.064 A 
HETATM   15  N4  UNL     1      23.117   2.439  50.176  1.00  0.00    -0.242 NA
HETATM   16  C16 UNL     1      24.264   3.106  49.993  1.00  0.00     0.235 A 
HETATM   17  N3  UNL     1      25.138   3.124  51.004  1.00  0.00    -0.224 NA
BRANCH  14  18
HETATM   18  C5  UNL     1      21.570   1.080  51.501  1.00  0.00     0.063 C 
HETATM   19  C4  UNL     1      20.491   1.663  51.937  1.00  0.00     0.047 C 
BRANCH  19  20
HETATM   20  C3  UNL     1      20.290   3.084  52.323  1.00  0.00     0.090 C 
BRANCH  20  21
HETATM   21  C2  UNL     1      19.252   3.671  51.388  1.00  0.00     0.173 C 
BRANCH  21  22
HETATM   22  O1  UNL     1      18.023   3.605  52.042  1.00  0.00    -0.396 OA
HETATM   23  C1  UNL     1      17.040   4.213  51.232  1.00  0.00     0.201 C 
ENDBRANCH  21  22
ENDBRANCH  20  21
ENDBRANCH  19  20
BRANCH  19  24
HETATM   24  O2  UNL     1      19.292   0.984  52.112  1.00  0.00    -0.365 OA
HETATM   25  H8  UNL     1      19.301  -0.017  52.124  1.00  0.00     0.217 HD
ENDBRANCH  19  24
ENDBRANCH  14  18
ENDBRANCH  10  12
ENDBRANCH   1  10
TORSDOF 7
ENDMDL
MODEL 7
REMARK VINA RESULT:      -7.1      2.460      3.896
REMARK  7 active torsions:
REMARK  status: ('A' for Active; 'I' for Inactive)
REMARK    1  A    between atoms: O1_2  and  C2_3 
REMARK    2  A    between atoms: C2_3  and  C3_4 
REMARK    3  A    between atoms: C3_4  and  C4_5 
REMARK    4  A    between atoms: C4_5  and  O2_6 
REMARK    5  A    between atoms: C5_7  and  C6_8 
REMARK    6  A    between atoms: C8_10  and  N1_11 
REMARK    7  A    between atoms: N1_11  and  C9_12 
ROOT
HETATM    1  C9  UNL     1      26.184   0.187  52.715  1.00  0.00     0.035 A 
HETATM    2  C10 UNL     1      26.688  -1.073  52.476  1.00  0.00     0.032 A 
HETATM    3  C11 UNL     1      27.927  -1.521  52.850  1.00  0.00     0.046 A 
HETATM    4  C12 UNL     1      28.753  -0.646  53.525  1.00  0.00     0.137 A 
HETATM    5  F1  UNL     1      29.977  -1.039  53.912  1.00  0.00    -0.204 F 
HETATM    6  C13 UNL     1      28.319   0.618  53.795  1.00  0.00     0.085 A 
HETATM    7  C14 UNL     1      29.156   1.555  54.495  1.00  0.00     0.102 C 
HETATM    8  N2  UNL     1      29.825   2.319  55.082  1.00  0.00    -0.191 NA
HETATM    9  C15 UNL     1      27.065   0.998  53.390  1.00  0.00     0.055 A 
ENDROOT
BRANCH   1  10
HETATM   10  N1  UNL     1      24.923   0.658  52.326  1.00  0.00    -0.341 N 
HETATM   11  H11 UNL     1      24.906   1.320  51.499  1.00  0.00     0.167 HD
BRANCH  10  12
HETATM   12  C8  UNL     1      23.662   0.359  52.903  1.00  0.00     0.131 A 
HETATM   13  C7  UNL     1      22.572   1.200  52.677  1.00  0.00     0.082 A 
HETATM   14  C6  UNL     1      21.325   0.970  53.194  1.00  0.00     0.064 A 
HETATM   15  N4  UNL     1      21.179  -0.128  53.951  1.00  0.00    -0.242 NA
HETATM   16  C16 UNL     1      22.185  -0.975  54.205  1.00  0.00     0.235 A 
HETATM   17  N3  UNL     1      23.379  -0.695  53.672  1.00  0.00    -0.224 NA
BRANCH  14  18
HETATM   18  C5  UNL     1      20.222   1.882  52.931  1.00  0.00     0.063 C 
HETATM   19  C4  UNL     1      19.424   1.728  51.912  1.00  0.00     0.047 C 
BRANCH  19  20
HETATM   20  C3  UNL     1      19.447   0.678  50.862  1.00  0.00     0.090 C 
BRANCH  20  21
HETATM   21  C2  UNL     1      20.005   1.303  49.600  1.00  0.00     0.173 C 
BRANCH  21  22
HETATM   22  O1  UNL     1      21.347   0.937  49.516  1.00  0.00    -0.396 OA
HETATM   23  C1  UNL     1      21.899   1.485  48.338  1.00  0.00     0.201 C 
ENDBRANCH  21  22
ENDBRANCH  20  21
ENDBRANCH  19  20
BRANCH  19  24
HETATM   24  O2  UNL     1      18.367   2.591  51.653  1.00  0.00    -0.365 OA
HETATM   25  H8  UNL     1      18.425   3.536  51.976  1.00  0.00     0.217 HD
ENDBRANCH  19  24
ENDBRANCH  14  18
ENDBRANCH  10  12
ENDBRANCH   1  10
TORSDOF 7
ENDMDL
MODEL 8
REMARK VINA RESULT:      -7.1      3.969      6.013
REMARK  7 active torsions:
REMARK  status: ('A' for Active; 'I' for Inactive)
REMARK    1  A    between atoms: O1_2  and  C2_3 
REMARK    2  A    between atoms: C2_3  and  C3_4 
REMARK    3  A    between atoms: C3_4  and  C4_5 
REMARK    4  A    between atoms: C4_5  and  O2_6 
REMARK    5  A    between atoms: C5_7  and  C6_8 
REMARK    6  A    between atoms: C8_10  and  N1_11 
REMARK    7  A    between atoms: N1_11  and  C9_12 
ROOT
HETATM    1  C9  UNL     1      25.349   4.814  50.150  1.00  0.00     0.035 A 
HETATM    2  C10 UNL     1      26.323   3.958  49.681  1.00  0.00     0.032 A 
HETATM    3  C11 UNL     1      27.378   4.312  48.883  1.00  0.00     0.046 A 
HETATM    4  C12 UNL     1      27.488   5.634  48.507  1.00  0.00     0.137 A 
HETATM    5  F1  UNL     1      28.505   6.030  47.725  1.00  0.00    -0.204 F 
HETATM    6  C13 UNL     1      26.559   6.537  48.935  1.00  0.00     0.085 A 
HETATM    7  C14 UNL     1      26.644   7.923  48.560  1.00  0.00     0.102 C 
HETATM    8  N2  UNL     1      26.718   9.058  48.274  1.00  0.00    -0.191 NA
HETATM    9  C15 UNL     1      25.529   6.111  49.733  1.00  0.00     0.055 A 
ENDROOT
BRANCH   1  10
HETATM   10  N1  UNL     1      24.260   4.459  50.958  1.00  0.00    -0.341 N 
HETATM   11  H11 UNL     1      23.785   5.253  51.475  1.00  0.00     0.167 HD
BRANCH  10  12
HETATM   12  C8  UNL     1      23.714   3.168  51.173  1.00  0.00     0.131 A 
HETATM   13  C7  UNL     1      24.180   2.377  52.223  1.00  0.00     0.082 A 
HETATM   14  C6  UNL     1      23.693   1.126  52.494  1.00  0.00     0.064 A 
HETATM   15  N4  UNL     1      22.721   0.668  51.691  1.00  0.00    -0.242 NA
HETATM   16  C16 UNL     1      22.231   1.379  50.667  1.00  0.00     0.235 A 
HETATM   17  N3  UNL     1      22.748   2.593  50.452  1.00  0.00    -0.224 NA
BRANCH  14  18
HETATM   18  C5  UNL     1      24.217   0.339  53.601  1.00  0.00     0.063 C 
HETATM   19  C4  UNL     1      25.332  -0.330  53.508  1.00  0.00     0.047 C 
BRANCH  19  20
HETATM   20  C3  UNL     1      26.257  -0.442  52.350  1.00  0.00     0.090 C 
BRANCH  20  21
HETATM   21  C2  UNL     1      27.649  -0.681  52.899  1.00  0.00     0.173 C 
BRANCH  21  22
HETATM   22  O1  UNL     1      28.071   0.509  53.488  1.00  0.00    -0.396 OA
HETATM   23  C1  UNL     1      29.381   0.336  53.983  1.00  0.00     0.201 C 
ENDBRANCH  21  22
ENDBRANCH  20  21
ENDBRANCH  19  20
BRANCH  19  24
HETATM   24  O2  UNL     1      25.842  -1.083  54.557  1.00  0.00    -0.365 OA
HETATM   25  H8  UNL     1      25.351  -1.906  54.844  1.00  0.00     0.217 HD
ENDBRANCH  19  24
ENDBRANCH  14  18
ENDBRANCH  10  12
ENDBRANCH   1  10
TORSDOF 7
ENDMDL
MODEL 9
REMARK VINA RESULT:      -7.0      4.610      6.265
REMARK  7 active torsions:
REMARK  status: ('A' for Active; 'I' for Inactive)
REMARK    1  A    between atoms: O1_2  and  C2_3 
REMARK    2  A    between atoms: C2_3  and  C3_4 
REMARK    3  A    between atoms: C3_4  and  C4_5 
REMARK    4  A    between atoms: C4_5  and  O2_6 
REMARK    5  A    between atoms: C5_7  and  C6_8 
REMARK    6  A    between atoms: C8_10  and  N1_11 
REMARK    7  A    between atoms: N1_11  and  C9_12 
ROOT
HETATM    1  C9  UNL     1      26.556   4.684  48.975  1.00  0.00     0.035 A 
HETATM    2  C10 UNL     1      25.890   5.891  48.975  1.00  0.00     0.032 A 
HETATM    3  C11 UNL     1      26.437   7.104  48.651  1.00  0.00     0.046 A 
HETATM    4  C12 UNL     1      27.768   7.136  48.292  1.00  0.00     0.137 A 
HETATM    5  F1  UNL     1      28.350   8.301  47.965  1.00  0.00    -0.204 F 
HETATM    6  C13 UNL     1      28.489   5.978  48.269  1.00  0.00     0.085 A 
HETATM    7  C14 UNL     1      29.879   5.977  47.901  1.00  0.00     0.102 C 
HETATM    8  N2  UNL     1      31.008   5.966  47.583  1.00  0.00    -0.191 NA
HETATM    9  C15 UNL     1      27.874   4.800  48.607  1.00  0.00     0.055 A 
ENDROOT
BRANCH   1  10
HETATM   10  N1  UNL     1      26.007   3.441  49.316  1.00  0.00    -0.341 N 
HETATM   11  H11 UNL     1      26.200   2.645  48.643  1.00  0.00     0.167 HD
BRANCH  10  12
HETATM   12  C8  UNL     1      25.222   3.112  50.451  1.00  0.00     0.131 A 
HETATM   13  C7  UNL     1      25.839   2.742  51.645  1.00  0.00     0.082 A 
HETATM   14  C6  UNL     1      25.146   2.421  52.782  1.00  0.00     0.064 A 
HETATM   15  N4  UNL     1      23.807   2.476  52.708  1.00  0.00    -0.242 NA
HETATM   16  C16 UNL     1      23.155   2.824  51.592  1.00  0.00     0.235 A 
HETATM   17  N3  UNL     1      23.888   3.126  50.515  1.00  0.00    -0.224 NA
BRANCH  14  18
HETATM   18  C5  UNL     1      25.839   2.036  54.003  1.00  0.00     0.063 C 
HETATM   19  C4  UNL     1      26.233   0.813  54.218  1.00  0.00     0.047 C 
BRANCH  19  20
HETATM   20  C3  UNL     1      26.083  -0.382  53.348  1.00  0.00     0.090 C 
BRANCH  20  21
HETATM   21  C2  UNL     1      27.448  -0.709  52.778  1.00  0.00     0.173 C 
BRANCH  21  22
HETATM   22  O1  UNL     1      28.165  -1.368  53.776  1.00  0.00    -0.396 OA
HETATM   23  C1  UNL     1      29.128  -2.204  53.171  1.00  0.00     0.201 C 
ENDBRANCH  21  22
ENDBRANCH  20  21
ENDBRANCH  19  20
BRANCH  19  24
HETATM   24  O2  UNL     1      26.896   0.434  55.378  1.00  0.00    -0.365 OA
HETATM   25  H8  UNL     1      26.367   0.305  56.217  1.00  0.00     0.217 HD
ENDBRANCH  19  24
ENDBRANCH  14  18
ENDBRANCH  10  12
ENDBRANCH   1  10
TORSDOF 7
ENDMDL
