MODEL 1
REMARK VINA RESULT:      -7.0      0.000      0.000
REMARK  10 active torsions:
REMARK  status: ('A' for Active; 'I' for Inactive)
REMARK    1  A    between atoms: C2_2  and  C3_3 
REMARK    2  A    between atoms: C3_3  and  N1_4 
REMARK    3  A    between atoms: N1_4  and  C4_5 
REMARK    4  A    between atoms: N1_4  and  C12_14 
REMARK    5  A    between atoms: C4_5  and  C5_6 
REMARK    6  A    between atoms: C5_6  and  N2_7 
REMARK    7  A    between atoms: N2_7  and  C6_8 
REMARK    8  A    between atoms: C12_14  and  C13_15 
REMARK    9  A    between atoms: C17_19  and  C18_20 
REMARK   10  A    between atoms: C19_22  and  O1_23 
ROOT
HETATM    1  N1  UNL     1      26.655   0.360  53.600  1.00  0.00     0.094 N 
ENDROOT
BRANCH   1   2
HETATM    2  C3  UNL     1      27.794   0.131  54.436  1.00  0.00     0.272 C 
BRANCH   2   3
HETATM    3  C2  UNL     1      29.122   0.297  53.776  1.00  0.00     0.026 C 
HETATM    4  C1  UNL     1      29.711  -1.107  53.562  1.00  0.00     0.007 C 
ENDBRANCH   2   3
ENDBRANCH   1   2
BRANCH   1   5
HETATM    5  C4  UNL     1      25.744  -0.748  53.747  1.00  0.00     0.292 C 
BRANCH   5   6
HETATM    6  C5  UNL     1      25.037  -0.807  55.072  1.00  0.00     0.150 C 
BRANCH   6   7
HETATM    7  N2  UNL     1      23.684  -1.275  54.916  1.00  0.00    -0.388 N 
HETATM    8  H12 UNL     1      23.492  -2.169  55.457  1.00  0.00     0.159 HD
BRANCH   7   9
HETATM    9  C6  UNL     1      22.604  -0.745  54.176  1.00  0.00     0.027 A 
HETATM   10  C7  UNL     1      22.458  -0.817  52.811  1.00  0.00     0.029 A 
HETATM   11  C8  UNL     1      21.408  -0.320  52.072  1.00  0.00     0.002 A 
HETATM   12  C9  UNL     1      20.405   0.312  52.779  1.00  0.00     0.000 A 
HETATM   13  C10 UNL     1      20.495   0.414  54.150  1.00  0.00     0.002 A 
HETATM   14  C11 UNL     1      21.574  -0.105  54.829  1.00  0.00     0.029 A 
ENDBRANCH   7   9
ENDBRANCH   6   7
ENDBRANCH   5   6
ENDBRANCH   1   5
BRANCH   1  15
HETATM   15  C12 UNL     1      26.090   1.656  53.701  1.00  0.00     0.313 C 
BRANCH  15  16
HETATM   16  C13 UNL     1      25.526   2.143  52.411  1.00  0.00     0.004 A 
HETATM   17  C14 UNL     1      24.199   2.013  52.050  1.00  0.00     0.012 A 
HETATM   18  C15 UNL     1      23.669   2.458  50.858  1.00  0.00     0.001 A 
HETATM   19  C16 UNL     1      24.554   3.071  49.984  1.00  0.00     0.011 A 
HETATM   20  C17 UNL     1      25.892   3.241  50.264  1.00  0.00    -0.015 A 
HETATM   21  C19 UNL     1      26.364   2.773  51.480  1.00  0.00     0.080 A 
BRANCH  20  22
HETATM   22  C18 UNL     1      26.830   3.909  49.304  1.00  0.00     0.126 C 
HETATM   23 BR1  UNL     1      26.300   5.739  49.017  1.00  0.00    -0.091 Br
ENDBRANCH  20  22
BRANCH  21  24
HETATM   24  O1  UNL     1      27.706   2.901  51.853  1.00  0.00    -0.360 OA
HETATM   25  H25 UNL     1      28.392   2.805  51.116  1.00  0.00     0.217 HD
ENDBRANCH  21  24
ENDBRANCH  15  16
ENDBRANCH   1  15
TORSDOF 10
ENDMDL
MODEL 2
REMARK VINA RESULT:      -6.9      2.831      5.954
REMARK  10 active torsions:
REMARK  status: ('A' for Active; 'I' for Inactive)
REMARK    1  A    between atoms: C2_2  and  C3_3 
REMARK    2  A    between atoms: C3_3  and  N1_4 
REMARK    3  A    between atoms: N1_4  and  C4_5 
REMARK    4  A    between atoms: N1_4  and  C12_14 
REMARK    5  A    between atoms: C4_5  and  C5_6 
REMARK    6  A    between atoms: C5_6  and  N2_7 
REMARK    7  A    between atoms: N2_7  and  C6_8 
REMARK    8  A    between atoms: C12_14  and  C13_15 
REMARK    9  A    between atoms: C17_19  and  C18_20 
REMARK   10  A    between atoms: C19_22  and  O1_23 
ROOT
HETATM    1  N1  UNL     1      25.436   3.108  50.251  1.00  0.00     0.094 N 
ENDROOT
BRANCH   1   2
HETATM    2  C3  UNL     1      25.907   4.335  49.683  1.00  0.00     0.272 C 
BRANCH   2   3
HETATM    3  C2  UNL     1      27.224   4.259  48.984  1.00  0.00     0.026 C 
HETATM    4  C1  UNL     1      27.568   5.674  48.493  1.00  0.00     0.007 C 
ENDBRANCH   2   3
ENDBRANCH   1   2
BRANCH   1   5
HETATM    5  C4  UNL     1      26.574   2.335  50.686  1.00  0.00     0.292 C 
BRANCH   5   6
HETATM    6  C5  UNL     1      26.875   2.435  52.155  1.00  0.00     0.150 C 
BRANCH   6   7
HETATM    7  N2  UNL     1      26.582   1.196  52.828  1.00  0.00    -0.388 N 
HETATM    8  H12 UNL     1      25.653   1.217  53.343  1.00  0.00     0.159 HD
BRANCH   7   9
HETATM    9  C6  UNL     1      27.316  -0.008  52.908  1.00  0.00     0.027 A 
HETATM   10  C7  UNL     1      28.599  -0.131  53.387  1.00  0.00     0.029 A 
HETATM   11  C8  UNL     1      29.328  -1.296  53.487  1.00  0.00     0.002 A 
HETATM   12  C9  UNL     1      28.702  -2.450  53.060  1.00  0.00     0.000 A 
HETATM   13  C10 UNL     1      27.416  -2.389  52.570  1.00  0.00     0.002 A 
HETATM   14  C11 UNL     1      26.743  -1.190  52.497  1.00  0.00     0.029 A 
ENDBRANCH   7   9
ENDBRANCH   6   7
ENDBRANCH   5   6
ENDBRANCH   1   5
BRANCH   1  15
HETATM   15  C12 UNL     1      24.377   3.248  51.183  1.00  0.00     0.313 C 
BRANCH  15  16
HETATM   16  C13 UNL     1      23.298   2.239  50.987  1.00  0.00     0.004 A 
HETATM   17  C14 UNL     1      22.614   2.060  49.800  1.00  0.00     0.012 A 
HETATM   18  C15 UNL     1      21.613   1.132  49.611  1.00  0.00     0.001 A 
HETATM   19  C16 UNL     1      21.295   0.341  50.704  1.00  0.00     0.011 A 
HETATM   20  C17 UNL     1      21.927   0.453  51.924  1.00  0.00    -0.015 A 
HETATM   21  C19 UNL     1      22.925   1.405  52.051  1.00  0.00     0.080 A 
BRANCH  20  22
HETATM   22  C18 UNL     1      21.566  -0.414  53.092  1.00  0.00     0.126 C 
HETATM   23 BR1  UNL     1      19.653  -0.477  53.311  1.00  0.00    -0.091 Br
ENDBRANCH  20  22
BRANCH  21  24
HETATM   24  O1  UNL     1      23.623   1.593  53.249  1.00  0.00    -0.360 OA
HETATM   25  H25 UNL     1      23.117   1.399  54.102  1.00  0.00     0.217 HD
ENDBRANCH  21  24
ENDBRANCH  15  16
ENDBRANCH   1  15
TORSDOF 10
ENDMDL
MODEL 3
REMARK VINA RESULT:      -6.9      3.535      7.148
REMARK  10 active torsions:
REMARK  status: ('A' for Active; 'I' for Inactive)
REMARK    1  A    between atoms: C2_2  and  C3_3 
REMARK    2  A    between atoms: C3_3  and  N1_4 
REMARK    3  A    between atoms: N1_4  and  C4_5 
REMARK    4  A    between atoms: N1_4  and  C12_14 
REMARK    5  A    between atoms: C4_5  and  C5_6 
REMARK    6  A    between atoms: C5_6  and  N2_7 
REMARK    7  A    between atoms: N2_7  and  C6_8 
REMARK    8  A    between atoms: C12_14  and  C13_15 
REMARK    9  A    between atoms: C17_19  and  C18_20 
REMARK   10  A    between atoms: C19_22  and  O1_23 
ROOT
HETATM    1  N1  UNL     1      23.316   1.671  51.499  1.00  0.00     0.094 N 
ENDROOT
BRANCH   1   2
HETATM    2  C3  UNL     1      22.687   2.276  50.364  1.00  0.00     0.272 C 
BRANCH   2   3
HETATM    3  C2  UNL     1      21.945   1.345  49.464  1.00  0.00     0.026 C 
HETATM    4  C1  UNL     1      22.183   1.810  48.019  1.00  0.00     0.007 C 
ENDBRANCH   2   3
ENDBRANCH   1   2
BRANCH   1   5
HETATM    5  C4  UNL     1      24.722   1.989  51.470  1.00  0.00     0.292 C 
BRANCH   5   6
HETATM    6  C5  UNL     1      25.448   1.741  52.763  1.00  0.00     0.150 C 
BRANCH   6   7
HETATM    7  N2  UNL     1      26.027   0.423  52.787  1.00  0.00    -0.388 N 
HETATM    8  H12 UNL     1      25.325  -0.340  52.555  1.00  0.00     0.159 HD
BRANCH   7   9
HETATM    9  C6  UNL     1      27.346  -0.001  53.062  1.00  0.00     0.027 A 
HETATM   10  C7  UNL     1      28.385   0.815  53.442  1.00  0.00     0.029 A 
HETATM   11  C8  UNL     1      29.673   0.421  53.729  1.00  0.00     0.002 A 
HETATM   12  C9  UNL     1      29.941  -0.929  53.622  1.00  0.00     0.000 A 
HETATM   13  C10 UNL     1      28.939  -1.796  53.247  1.00  0.00     0.002 A 
HETATM   14  C11 UNL     1      27.670  -1.337  52.973  1.00  0.00     0.029 A 
ENDBRANCH   7   9
ENDBRANCH   6   7
ENDBRANCH   5   6
ENDBRANCH   1   5
BRANCH   1  15
HETATM   15  C12 UNL     1      22.649   1.876  52.732  1.00  0.00     0.313 C 
BRANCH  15  16
HETATM   16  C13 UNL     1      21.973   0.648  53.236  1.00  0.00     0.004 A 
HETATM   17  C14 UNL     1      22.617  -0.359  53.930  1.00  0.00     0.012 A 
HETATM   18  C15 UNL     1      22.001  -1.500  54.397  1.00  0.00     0.001 A 
HETATM   19  C16 UNL     1      20.645  -1.615  54.135  1.00  0.00     0.011 A 
HETATM   20  C17 UNL     1      19.926  -0.660  53.450  1.00  0.00    -0.015 A 
HETATM   21  C19 UNL     1      20.603   0.465  53.006  1.00  0.00     0.080 A 
BRANCH  20  22
HETATM   22  C18 UNL     1      18.459  -0.806  53.179  1.00  0.00     0.126 C 
HETATM   23 BR1  UNL     1      17.869  -2.580  53.644  1.00  0.00    -0.091 Br
ENDBRANCH  20  22
BRANCH  21  24
HETATM   24  O1  UNL     1      19.959   1.489  52.303  1.00  0.00    -0.360 OA
HETATM   25  H25 UNL     1      19.877   1.368  51.302  1.00  0.00     0.217 HD
ENDBRANCH  21  24
ENDBRANCH  15  16
ENDBRANCH   1  15
TORSDOF 10
ENDMDL
MODEL 4
REMARK VINA RESULT:      -6.9      2.712      6.091
REMARK  10 active torsions:
REMARK  status: ('A' for Active; 'I' for Inactive)
REMARK    1  A    between atoms: C2_2  and  C3_3 
REMARK    2  A    between atoms: C3_3  and  N1_4 
REMARK    3  A    between atoms: N1_4  and  C4_5 
REMARK    4  A    between atoms: N1_4  and  C12_14 
REMARK    5  A    between atoms: C4_5  and  C5_6 
REMARK    6  A    between atoms: C5_6  and  N2_7 
REMARK    7  A    between atoms: N2_7  and  C6_8 
REMARK    8  A    between atoms: C12_14  and  C13_15 
REMARK    9  A    between atoms: C17_19  and  C18_20 
REMARK   10  A    between atoms: C19_22  and  O1_23 
ROOT
HETATM    1  N1  UNL     1      26.347   0.826  53.761  1.00  0.00     0.094 N 
ENDROOT
BRANCH   1   2
HETATM    2  C3  UNL     1      27.562   0.252  54.253  1.00  0.00     0.272 C 
BRANCH   2   3
HETATM    3  C2  UNL     1      28.163  -0.815  53.401  1.00  0.00     0.026 C 
HETATM    4  C1  UNL     1      29.659  -0.894  53.745  1.00  0.00     0.007 C 
ENDBRANCH   2   3
ENDBRANCH   1   2
BRANCH   1   5
HETATM    5  C4  UNL     1      26.650   2.105  53.165  1.00  0.00     0.292 C 
BRANCH   5   6
HETATM    6  C5  UNL     1      26.609   2.122  51.663  1.00  0.00     0.150 C 
BRANCH   6   7
HETATM    7  N2  UNL     1      25.761   3.182  51.181  1.00  0.00    -0.388 N 
HETATM    8  H12 UNL     1      24.794   3.167  51.619  1.00  0.00     0.159 HD
BRANCH   7   9
HETATM    9  C6  UNL     1      26.009   4.207  50.242  1.00  0.00     0.027 A 
HETATM   10  C7  UNL     1      25.184   5.278  49.991  1.00  0.00     0.029 A 
HETATM   11  C8  UNL     1      25.413   6.296  49.091  1.00  0.00     0.002 A 
HETATM   12  C9  UNL     1      26.589   6.227  48.373  1.00  0.00     0.000 A 
HETATM   13  C10 UNL     1      27.457   5.178  48.581  1.00  0.00     0.002 A 
HETATM   14  C11 UNL     1      27.167   4.191  49.497  1.00  0.00     0.029 A 
ENDBRANCH   7   9
ENDBRANCH   6   7
ENDBRANCH   5   6
ENDBRANCH   1   5
BRANCH   1  15
HETATM   15  C12 UNL     1      25.540  -0.050  52.993  1.00  0.00     0.313 C 
BRANCH  15  16
HETATM   16  C13 UNL     1      24.178  -0.235  53.569  1.00  0.00     0.004 A 
HETATM   17  C14 UNL     1      23.899  -1.060  54.642  1.00  0.00     0.012 A 
HETATM   18  C15 UNL     1      22.643  -1.240  55.179  1.00  0.00     0.001 A 
HETATM   19  C16 UNL     1      21.613  -0.532  54.581  1.00  0.00     0.011 A 
HETATM   20  C17 UNL     1      21.802   0.312  53.508  1.00  0.00    -0.015 A 
HETATM   21  C19 UNL     1      23.089   0.450  53.013  1.00  0.00     0.080 A 
BRANCH  20  22
HETATM   22  C18 UNL     1      20.672   1.068  52.878  1.00  0.00     0.126 C 
HETATM   23 BR1  UNL     1      19.266  -0.143  52.359  1.00  0.00    -0.091 Br
ENDBRANCH  20  22
BRANCH  21  24
HETATM   24  O1  UNL     1      23.380   1.284  51.928  1.00  0.00    -0.360 OA
HETATM   25  H25 UNL     1      24.358   1.483  51.760  1.00  0.00     0.217 HD
ENDBRANCH  21  24
ENDBRANCH  15  16
ENDBRANCH   1  15
TORSDOF 10
ENDMDL
MODEL 5
REMARK VINA RESULT:      -6.9      3.241      7.630
REMARK  10 active torsions:
REMARK  status: ('A' for Active; 'I' for Inactive)
REMARK    1  A    between atoms: C2_2  and  C3_3 
REMARK    2  A    between atoms: C3_3  and  N1_4 
REMARK    3  A    between atoms: N1_4  and  C4_5 
REMARK    4  A    between atoms: N1_4  and  C12_14 
REMARK    5  A    between atoms: C4_5  and  C5_6 
REMARK    6  A    between atoms: C5_6  and  N2_7 
REMARK    7  A    between atoms: N2_7  and  C6_8 
REMARK    8  A    between atoms: C12_14  and  C13_15 
REMARK    9  A    between atoms: C17_19  and  C18_20 
REMARK   10  A    between atoms: C19_22  and  O1_23 
ROOT
HETATM    1  N1  UNL     1      24.234   2.661  50.543  1.00  0.00     0.094 N 
ENDROOT
BRANCH   1   2
HETATM    2  C3  UNL     1      22.808   2.659  50.420  1.00  0.00     0.272 C 
BRANCH   2   3
HETATM    3  C2  UNL     1      22.171   1.313  50.320  1.00  0.00     0.026 C 
HETATM    4  C1  UNL     1      21.640   1.158  48.886  1.00  0.00     0.007 C 
ENDBRANCH   2   3
ENDBRANCH   1   2
BRANCH   1   5
HETATM    5  C4  UNL     1      24.789   3.421  49.450  1.00  0.00     0.292 C 
BRANCH   5   6
HETATM    6  C5  UNL     1      25.554   4.647  49.864  1.00  0.00     0.150 C 
BRANCH   6   7
HETATM    7  N2  UNL     1      26.896   4.620  49.341  1.00  0.00    -0.388 N 
HETATM    8  H12 UNL     1      27.404   3.712  49.557  1.00  0.00     0.159 HD
BRANCH   7   9
HETATM    9  C6  UNL     1      27.621   5.585  48.609  1.00  0.00     0.027 A 
HETATM   10  C7  UNL     1      28.956   5.510  48.290  1.00  0.00     0.029 A 
HETATM   11  C8  UNL     1      29.679   6.432  47.565  1.00  0.00     0.002 A 
HETATM   12  C9  UNL     1      28.987   7.540  47.118  1.00  0.00     0.000 A 
HETATM   13  C10 UNL     1      27.646   7.670  47.406  1.00  0.00     0.002 A 
HETATM   14  C11 UNL     1      26.983   6.711  48.137  1.00  0.00     0.029 A 
ENDBRANCH   7   9
ENDBRANCH   6   7
ENDBRANCH   5   6
ENDBRANCH   1   5
BRANCH   1  15
HETATM   15  C12 UNL     1      24.722   2.971  51.837  1.00  0.00     0.313 C 
BRANCH  15  16
HETATM   16  C13 UNL     1      25.381   1.811  52.500  1.00  0.00     0.004 A 
HETATM   17  C14 UNL     1      24.696   0.739  53.040  1.00  0.00     0.012 A 
HETATM   18  C15 UNL     1      25.297  -0.337  53.657  1.00  0.00     0.001 A 
HETATM   19  C16 UNL     1      26.682  -0.311  53.725  1.00  0.00     0.011 A 
HETATM   20  C17 UNL     1      27.441   0.718  53.213  1.00  0.00    -0.015 A 
HETATM   21  C19 UNL     1      26.778   1.772  52.604  1.00  0.00     0.080 A 
BRANCH  20  22
HETATM   22  C18 UNL     1      28.938   0.724  53.298  1.00  0.00     0.126 C 
HETATM   23 BR1  UNL     1      29.598  -1.065  53.569  1.00  0.00    -0.091 Br
ENDBRANCH  20  22
BRANCH  21  24
HETATM   24  O1  UNL     1      27.463   2.861  52.055  1.00  0.00    -0.360 OA
HETATM   25  H25 UNL     1      27.785   2.759  51.102  1.00  0.00     0.217 HD
ENDBRANCH  21  24
ENDBRANCH  15  16
ENDBRANCH   1  15
TORSDOF 10
ENDMDL
MODEL 6
REMARK VINA RESULT:      -6.8      1.985      2.994
REMARK  10 active torsions:
REMARK  status: ('A' for Active; 'I' for Inactive)
REMARK    1  A    between atoms: C2_2  and  C3_3 
REMARK    2  A    between atoms: C3_3  and  N1_4 
REMARK    3  A    between atoms: N1_4  and  C4_5 
REMARK    4  A    between atoms: N1_4  and  C12_14 
REMARK    5  A    between atoms: C4_5  and  C5_6 
REMARK    6  A    between atoms: C5_6  and  N2_7 
REMARK    7  A    between atoms: N2_7  and  C6_8 
REMARK    8  A    between atoms: C12_14  and  C13_15 
REMARK    9  A    between atoms: C17_19  and  C18_20 
REMARK   10  A    between atoms: C19_22  and  O1_23 
ROOT
HETATM    1  N1  UNL     1      23.636  -0.058  53.070  1.00  0.00     0.094 N 
ENDROOT
BRANCH   1   2
HETATM    2  C3  UNL     1      24.957  -0.367  53.526  1.00  0.00     0.272 C 
BRANCH   2   3
HETATM    3  C2  UNL     1      26.010  -0.416  52.469  1.00  0.00     0.026 C 
HETATM    4  C1  UNL     1      27.029   0.691  52.781  1.00  0.00     0.007 C 
ENDBRANCH   2   3
ENDBRANCH   1   2
BRANCH   1   5
HETATM    5  C4  UNL     1      22.703  -0.937  53.731  1.00  0.00     0.292 C 
BRANCH   5   6
HETATM    6  C5  UNL     1      21.610  -0.237  54.489  1.00  0.00     0.150 C 
BRANCH   6   7
HETATM    7  N2  UNL     1      20.345  -0.901  54.303  1.00  0.00    -0.388 N 
HETATM    8  H12 UNL     1      20.153  -1.637  55.044  1.00  0.00     0.159 HD
BRANCH   7   9
HETATM    9  C6  UNL     1      19.349  -0.730  53.316  1.00  0.00     0.027 A 
HETATM   10  C7  UNL     1      18.116  -1.337  53.311  1.00  0.00     0.029 A 
HETATM   11  C8  UNL     1      17.126  -1.174  52.367  1.00  0.00     0.002 A 
HETATM   12  C9  UNL     1      17.407  -0.313  51.326  1.00  0.00     0.000 A 
HETATM   13  C10 UNL     1      18.626   0.326  51.278  1.00  0.00     0.002 A 
HETATM   14  C11 UNL     1      19.574   0.118  52.254  1.00  0.00     0.029 A 
ENDBRANCH   7   9
ENDBRANCH   6   7
ENDBRANCH   5   6
ENDBRANCH   1   5
BRANCH   1  15
HETATM   15  C12 UNL     1      23.310   1.321  53.072  1.00  0.00     0.313 C 
BRANCH  15  16
HETATM   16  C13 UNL     1      23.316   1.919  51.707  1.00  0.00     0.004 A 
HETATM   17  C14 UNL     1      22.529   1.470  50.664  1.00  0.00     0.012 A 
HETATM   18  C15 UNL     1      22.531   2.014  49.398  1.00  0.00     0.001 A 
HETATM   19  C16 UNL     1      23.391   3.080  49.189  1.00  0.00     0.011 A 
HETATM   20  C17 UNL     1      24.210   3.591  50.173  1.00  0.00    -0.015 A 
HETATM   21  C19 UNL     1      24.162   3.000  51.425  1.00  0.00     0.080 A 
BRANCH  20  22
HETATM   22  C18 UNL     1      25.132   4.746  49.924  1.00  0.00     0.126 C 
HETATM   23 BR1  UNL     1      26.833   4.115  49.277  1.00  0.00    -0.091 Br
ENDBRANCH  20  22
BRANCH  21  24
HETATM   24  O1  UNL     1      24.955   3.449  52.487  1.00  0.00    -0.360 OA
HETATM   25  H25 UNL     1      24.850   2.962  53.368  1.00  0.00     0.217 HD
ENDBRANCH  21  24
ENDBRANCH  15  16
ENDBRANCH   1  15
TORSDOF 10
ENDMDL
MODEL 7
REMARK VINA RESULT:      -6.8      2.722      4.821
REMARK  10 active torsions:
REMARK  status: ('A' for Active; 'I' for Inactive)
REMARK    1  A    between atoms: C2_2  and  C3_3 
REMARK    2  A    between atoms: C3_3  and  N1_4 
REMARK    3  A    between atoms: N1_4  and  C4_5 
REMARK    4  A    between atoms: N1_4  and  C12_14 
REMARK    5  A    between atoms: C4_5  and  C5_6 
REMARK    6  A    between atoms: C5_6  and  N2_7 
REMARK    7  A    between atoms: N2_7  and  C6_8 
REMARK    8  A    between atoms: C12_14  and  C13_15 
REMARK    9  A    between atoms: C17_19  and  C18_20 
REMARK   10  A    between atoms: C19_22  and  O1_23 
ROOT
HETATM    1  N1  UNL     1      23.717   2.885  51.454  1.00  0.00     0.094 N 
ENDROOT
BRANCH   1   2
HETATM    2  C3  UNL     1      23.338   4.039  52.210  1.00  0.00     0.272 C 
BRANCH   2   3
HETATM    3  C2  UNL     1      22.789   5.178  51.417  1.00  0.00     0.026 C 
HETATM    4  C1  UNL     1      23.877   6.261  51.350  1.00  0.00     0.007 C 
ENDBRANCH   2   3
ENDBRANCH   1   2
BRANCH   1   5
HETATM    5  C4  UNL     1      22.892   2.815  50.274  1.00  0.00     0.292 C 
BRANCH   5   6
HETATM    6  C5  UNL     1      22.246   1.479  50.037  1.00  0.00     0.150 C 
BRANCH   6   7
HETATM    7  N2  UNL     1      21.236   1.209  51.029  1.00  0.00    -0.388 N 
HETATM    8  H12 UNL     1      20.288   1.611  50.770  1.00  0.00     0.159 HD
BRANCH   7   9
HETATM    9  C6  UNL     1      21.310   0.514  52.256  1.00  0.00     0.027 A 
HETATM   10  C7  UNL     1      21.879  -0.724  52.440  1.00  0.00     0.029 A 
HETATM   11  C8  UNL     1      21.975  -1.412  53.629  1.00  0.00     0.002 A 
HETATM   12  C9  UNL     1      21.444  -0.793  54.742  1.00  0.00     0.000 A 
HETATM   13  C10 UNL     1      20.861   0.449  54.619  1.00  0.00     0.002 A 
HETATM   14  C11 UNL     1      20.797   1.084  53.399  1.00  0.00     0.029 A 
ENDBRANCH   7   9
ENDBRANCH   6   7
ENDBRANCH   5   6
ENDBRANCH   1   5
BRANCH   1  15
HETATM   15  C12 UNL     1      25.112   2.732  51.256  1.00  0.00     0.313 C 
BRANCH  15  16
HETATM   16  C13 UNL     1      25.704   1.665  52.112  1.00  0.00     0.004 A 
HETATM   17  C14 UNL     1      24.997   0.579  52.591  1.00  0.00     0.012 A 
HETATM   18  C15 UNL     1      25.535  -0.411  53.385  1.00  0.00     0.001 A 
HETATM   19  C16 UNL     1      26.877  -0.278  53.707  1.00  0.00     0.011 A 
HETATM   20  C17 UNL     1      27.655   0.772  53.271  1.00  0.00    -0.015 A 
HETATM   21  C19 UNL     1      27.056   1.736  52.476  1.00  0.00     0.080 A 
BRANCH  20  22
HETATM   22  C18 UNL     1      29.105   0.894  53.631  1.00  0.00     0.126 C 
HETATM   23 BR1  UNL     1      29.938  -0.843  53.641  1.00  0.00    -0.091 Br
ENDBRANCH  20  22
BRANCH  21  24
HETATM   24  O1  UNL     1      27.764   2.838  51.985  1.00  0.00    -0.360 OA
HETATM   25  H25 UNL     1      28.733   2.915  52.266  1.00  0.00     0.217 HD
ENDBRANCH  21  24
ENDBRANCH  15  16
ENDBRANCH   1  15
TORSDOF 10
ENDMDL
MODEL 8
REMARK VINA RESULT:      -6.7      3.121      6.509
REMARK  10 active torsions:
REMARK  status: ('A' for Active; 'I' for Inactive)
REMARK    1  A    between atoms: C2_2  and  C3_3 
REMARK    2  A    between atoms: C3_3  and  N1_4 
REMARK    3  A    between atoms: N1_4  and  C4_5 
REMARK    4  A    between atoms: N1_4  and  C12_14 
REMARK    5  A    between atoms: C4_5  and  C5_6 
REMARK    6  A    between atoms: C5_6  and  N2_7 
REMARK    7  A    between atoms: N2_7  and  C6_8 
REMARK    8  A    between atoms: C12_14  and  C13_15 
REMARK    9  A    between atoms: C17_19  and  C18_20 
REMARK   10  A    between atoms: C19_22  and  O1_23 
ROOT
HETATM    1  N1  UNL     1      23.974   4.178  49.859  1.00  0.00     0.094 N 
ENDROOT
BRANCH   1   2
HETATM    2  C3  UNL     1      23.574   5.141  48.879  1.00  0.00     0.272 C 
BRANCH   2   3
HETATM    3  C2  UNL     1      22.193   4.977  48.338  1.00  0.00     0.026 C 
HETATM    4  C1  UNL     1      22.235   3.847  47.297  1.00  0.00     0.007 C 
ENDBRANCH   2   3
ENDBRANCH   1   2
BRANCH   1   5
HETATM    5  C4  UNL     1      25.370   4.379  50.160  1.00  0.00     0.292 C 
BRANCH   5   6
HETATM    6  C5  UNL     1      26.180   3.116  50.255  1.00  0.00     0.150 C 
BRANCH   6   7
HETATM    7  N2  UNL     1      26.605   2.875  51.610  1.00  0.00    -0.388 N 
HETATM    8  H12 UNL     1      26.509   3.731  52.231  1.00  0.00     0.159 HD
BRANCH   7   9
HETATM    9  C6  UNL     1      27.115   1.709  52.223  1.00  0.00     0.027 A 
HETATM   10  C7  UNL     1      28.141   1.670  53.137  1.00  0.00     0.029 A 
HETATM   11  C8  UNL     1      28.644   0.548  53.757  1.00  0.00     0.002 A 
HETATM   12  C9  UNL     1      28.054  -0.654  53.422  1.00  0.00     0.000 A 
HETATM   13  C10 UNL     1      27.021  -0.678  52.513  1.00  0.00     0.002 A 
HETATM   14  C11 UNL     1      26.565   0.482  51.928  1.00  0.00     0.029 A 
ENDBRANCH   7   9
ENDBRANCH   6   7
ENDBRANCH   5   6
ENDBRANCH   1   5
BRANCH   1  15
HETATM   15  C12 UNL     1      23.102   4.056  50.969  1.00  0.00     0.313 C 
BRANCH  15  16
HETATM   16  C13 UNL     1      22.650   2.655  51.199  1.00  0.00     0.004 A 
HETATM   17  C14 UNL     1      21.775   1.979  50.371  1.00  0.00     0.012 A 
HETATM   18  C15 UNL     1      21.350   0.685  50.577  1.00  0.00     0.001 A 
HETATM   19  C16 UNL     1      21.852   0.046  51.701  1.00  0.00     0.011 A 
HETATM   20  C17 UNL     1      22.728   0.645  52.579  1.00  0.00    -0.015 A 
HETATM   21  C19 UNL     1      23.118   1.949  52.316  1.00  0.00     0.080 A 
BRANCH  20  22
HETATM   22  C18 UNL     1      23.258  -0.066  53.787  1.00  0.00     0.126 C 
HETATM   23 BR1  UNL     1      21.891  -1.184  54.557  1.00  0.00    -0.091 Br
ENDBRANCH  20  22
BRANCH  21  24
HETATM   24  O1  UNL     1      24.004   2.640  53.150  1.00  0.00    -0.360 OA
HETATM   25  H25 UNL     1      24.137   2.264  54.079  1.00  0.00     0.217 HD
ENDBRANCH  21  24
ENDBRANCH  15  16
ENDBRANCH   1  15
TORSDOF 10
ENDMDL
MODEL 9
REMARK VINA RESULT:      -6.7      1.690      4.857
REMARK  10 active torsions:
REMARK  status: ('A' for Active; 'I' for Inactive)
REMARK    1  A    between atoms: C2_2  and  C3_3 
REMARK    2  A    between atoms: C3_3  and  N1_4 
REMARK    3  A    between atoms: N1_4  and  C4_5 
REMARK    4  A    between atoms: N1_4  and  C12_14 
REMARK    5  A    between atoms: C4_5  and  C5_6 
REMARK    6  A    between atoms: C5_6  and  N2_7 
REMARK    7  A    between atoms: N2_7  and  C6_8 
REMARK    8  A    between atoms: C12_14  and  C13_15 
REMARK    9  A    between atoms: C17_19  and  C18_20 
REMARK   10  A    between atoms: C19_22  and  O1_23 
ROOT
HETATM    1  N1  UNL     1      24.192   1.948  52.116  1.00  0.00     0.094 N 
ENDROOT
BRANCH   1   2
HETATM    2  C3  UNL     1      23.659   0.625  52.234  1.00  0.00     0.272 C 
BRANCH   2   3
HETATM    3  C2  UNL     1      23.033   0.297  53.549  1.00  0.00     0.026 C 
HETATM    4  C1  UNL     1      22.261  -1.022  53.376  1.00  0.00     0.007 C 
ENDBRANCH   2   3
ENDBRANCH   1   2
BRANCH   1   5
HETATM    5  C4  UNL     1      24.596   2.400  53.425  1.00  0.00     0.292 C 
BRANCH   5   6
HETATM    6  C5  UNL     1      26.083   2.468  53.635  1.00  0.00     0.150 C 
BRANCH   6   7
HETATM    7  N2  UNL     1      26.557   1.315  54.354  1.00  0.00    -0.388 N 
HETATM    8  H12 UNL     1      26.166   1.254  55.340  1.00  0.00     0.159 HD
BRANCH   7   9
HETATM    9  C6  UNL     1      27.436   0.281  53.964  1.00  0.00     0.027 A 
HETATM   10  C7  UNL     1      28.781   0.227  54.243  1.00  0.00     0.029 A 
HETATM   11  C8  UNL     1      29.653  -0.778  53.884  1.00  0.00     0.002 A 
HETATM   12  C9  UNL     1      29.116  -1.832  53.174  1.00  0.00     0.000 A 
HETATM   13  C10 UNL     1      27.774  -1.834  52.865  1.00  0.00     0.002 A 
HETATM   14  C11 UNL     1      26.956  -0.797  53.253  1.00  0.00     0.029 A 
ENDBRANCH   7   9
ENDBRANCH   6   7
ENDBRANCH   5   6
ENDBRANCH   1   5
BRANCH   1  15
HETATM   15  C12 UNL     1      25.135   2.123  51.072  1.00  0.00     0.313 C 
BRANCH  15  16
HETATM   16  C13 UNL     1      24.829   3.298  50.209  1.00  0.00     0.004 A 
HETATM   17  C14 UNL     1      23.585   3.554  49.665  1.00  0.00     0.012 A 
HETATM   18  C15 UNL     1      23.294   4.636  48.863  1.00  0.00     0.001 A 
HETATM   19  C16 UNL     1      24.342   5.506  48.602  1.00  0.00     0.011 A 
HETATM   20  C17 UNL     1      25.612   5.326  49.103  1.00  0.00    -0.015 A 
HETATM   21  C19 UNL     1      25.842   4.218  49.903  1.00  0.00     0.080 A 
BRANCH  20  22
HETATM   22  C18 UNL     1      26.730   6.281  48.808  1.00  0.00     0.126 C 
HETATM   23 BR1  UNL     1      26.454   7.940  49.746  1.00  0.00    -0.091 Br
ENDBRANCH  20  22
BRANCH  21  24
HETATM   24  O1  UNL     1      27.098   3.951  50.458  1.00  0.00    -0.360 OA
HETATM   25  H25 UNL     1      27.603   3.162  50.076  1.00  0.00     0.217 HD
ENDBRANCH  21  24
ENDBRANCH  15  16
ENDBRANCH   1  15
TORSDOF 10
ENDMDL
