MODEL 1
REMARK VINA RESULT:      -9.4      0.000      0.000
REMARK  5 active torsions:
REMARK  status: ('A' for Active; 'I' for Inactive)
REMARK    1  A    between atoms: C3_3  and  C4_4 
REMARK    2  A    between atoms: C4_4  and  C5_5 
REMARK    3  A    between atoms: C5_5  and  O1_6 
REMARK    4  A    between atoms: O1_6  and  C6_7 
REMARK    5  A    between atoms: C12_14  and  C13_15 
ROOT
HETATM    1  C6  UNL     1      29.315   7.365  47.029  1.00  0.00     0.330 A 
HETATM    2  C7  UNL     1      28.279   8.277  46.788  1.00  0.00     0.335 A 
HETATM    3  C8  UNL     1      26.991   7.827  47.414  1.00  0.00     0.163 A 
HETATM    4  N1  UNL     1      28.080   7.463  47.320  1.00  0.00     0.049 N 
HETATM    5  C9  UNL     1      28.585   6.370  47.827  1.00  0.00     0.192 A 
HETATM    6  C10 UNL     1      28.171   5.353  48.550  1.00  0.00     0.050 C 
HETATM    7  C11 UNL     1      26.751   5.191  48.934  1.00  0.00    -0.031 C 
HETATM    8  C12 UNL     1      26.636   4.060  49.454  1.00  0.00     0.050 C 
HETATM    9  C20 UNL     1      25.689   6.170  48.737  1.00  0.00     0.013 C 
HETATM   10  C21 UNL     1      25.813   7.301  48.053  1.00  0.00     0.037 C 
ENDROOT
BRANCH   1  11
HETATM   11  O1  UNL     1      30.553   6.785  47.016  1.00  0.00    -0.346 OA
BRANCH  11  12
HETATM   12  C5  UNL     1      31.785   7.463  47.286  1.00  0.00     0.173 C 
BRANCH  12  13
HETATM   13  C4  UNL     1      32.152   7.297  48.737  1.00  0.00     0.053 C 
BRANCH  13  14
HETATM   14  C3  UNL     1      33.131   6.142  48.890  1.00  0.00     0.111 C 
HETATM   15  C2  UNL     1      34.260   6.262  47.943  1.00  0.00     0.240 C 
HETATM   16  C1  UNL     1      35.571   6.635  48.640  1.00  0.00     0.045 C 
HETATM   17  N4  UNL     1      34.506   5.158  47.091  1.00  0.00     0.092 N 
HETATM   18  C23 UNL     1      34.079   3.888  47.591  1.00  0.00     0.291 C 
HETATM   19  C24 UNL     1      34.064   5.399  45.733  1.00  0.00     0.310 C 
HETATM   20  C22 UNL     1      32.586   4.014  47.847  1.00  0.00     0.144 C 
HETATM   21  N3  UNL     1      32.409   4.930  48.937  1.00  0.00    -0.413 N 
HETATM   22  H18 UNL     1      32.378   4.466  49.870  1.00  0.00     0.153 HD
ENDBRANCH  13  14
ENDBRANCH  12  13
ENDBRANCH  11  12
ENDBRANCH   1  11
BRANCH   8  23
HETATM   23  C13 UNL     1      25.601   3.289  50.016  1.00  0.00     0.099 A 
HETATM   24  N2  UNL     1      24.477   2.910  50.061  1.00  0.00    -0.240 NA
HETATM   25  C14 UNL     1      23.982   2.059  50.940  1.00  0.00     0.075 A 
HETATM   26  C15 UNL     1      22.640   1.654  50.938  1.00  0.00     0.035 A 
HETATM   27  C19 UNL     1      24.793   1.504  51.947  1.00  0.00     0.037 A 
HETATM   28  C16 UNL     1      22.257   0.769  51.905  1.00  0.00     0.026 A 
HETATM   29  C17 UNL     1      23.057   0.218  52.902  1.00  0.00     0.035 A 
HETATM   30 CL1  UNL     1      22.610  -0.910  54.153  1.00  0.00    -0.084 Cl
HETATM   31  C18 UNL     1      24.376   0.615  52.906  1.00  0.00     0.045 A 
HETATM   32  S1  UNL     1      26.383   2.345  51.497  1.00  0.00    -0.068 SA
ENDBRANCH   8  23
TORSDOF 5
ENDMDL
MODEL 2
REMARK VINA RESULT:      -9.2      0.978      1.045
REMARK  5 active torsions:
REMARK  status: ('A' for Active; 'I' for Inactive)
REMARK    1  A    between atoms: C3_3  and  C4_4 
REMARK    2  A    between atoms: C4_4  and  C5_5 
REMARK    3  A    between atoms: C5_5  and  O1_6 
REMARK    4  A    between atoms: O1_6  and  C6_7 
REMARK    5  A    between atoms: C12_14  and  C13_15 
ROOT
HETATM    1  C6  UNL     1      28.793   7.129  47.369  1.00  0.00     0.330 A 
HETATM    2  C7  UNL     1      27.747   8.028  47.123  1.00  0.00     0.335 A 
HETATM    3  C8  UNL     1      26.457   7.549  47.721  1.00  0.00     0.163 A 
HETATM    4  N1  UNL     1      27.553   7.203  47.640  1.00  0.00     0.049 N 
HETATM    5  C9  UNL     1      28.066   6.111  48.141  1.00  0.00     0.192 A 
HETATM    6  C10 UNL     1      27.656   5.078  48.842  1.00  0.00     0.050 C 
HETATM    7  C11 UNL     1      26.232   4.888  49.199  1.00  0.00    -0.031 C 
HETATM    8  C12 UNL     1      26.127   3.748  49.702  1.00  0.00     0.050 C 
HETATM    9  C20 UNL     1      25.159   5.854  48.998  1.00  0.00     0.013 C 
HETATM   10  C21 UNL     1      25.277   6.996  48.332  1.00  0.00     0.037 C 
ENDROOT
BRANCH   1  11
HETATM   11  O1  UNL     1      30.041   6.568  47.369  1.00  0.00    -0.346 OA
BRANCH  11  12
HETATM   12  C5  UNL     1      31.269   7.289  47.223  1.00  0.00     0.173 C 
BRANCH  12  13
HETATM   13  C4  UNL     1      32.299   6.412  46.560  1.00  0.00     0.053 C 
BRANCH  13  14
HETATM   14  C3  UNL     1      32.740   5.319  47.522  1.00  0.00     0.111 C 
HETATM   15  C2  UNL     1      34.196   5.078  47.435  1.00  0.00     0.240 C 
HETATM   16  C1  UNL     1      34.949   5.588  48.667  1.00  0.00     0.045 C 
HETATM   17  N4  UNL     1      34.614   3.750  47.175  1.00  0.00     0.092 N 
HETATM   18  C23 UNL     1      33.709   2.727  47.595  1.00  0.00     0.291 C 
HETATM   19  C24 UNL     1      35.064   3.570  45.810  1.00  0.00     0.310 C 
HETATM   20  C22 UNL     1      32.397   3.000  46.877  1.00  0.00     0.144 C 
HETATM   21  N3  UNL     1      31.861   4.221  47.404  1.00  0.00    -0.413 N 
HETATM   22  H18 UNL     1      31.217   4.078  48.211  1.00  0.00     0.153 HD
ENDBRANCH  13  14
ENDBRANCH  12  13
ENDBRANCH  11  12
ENDBRANCH   1  11
BRANCH   8  23
HETATM   23  C13 UNL     1      25.095   2.953  50.235  1.00  0.00     0.099 A 
HETATM   24  N2  UNL     1      23.980   2.544  50.246  1.00  0.00    -0.240 NA
HETATM   25  C14 UNL     1      23.479   1.687  51.115  1.00  0.00     0.075 A 
HETATM   26  C15 UNL     1      22.150   1.245  51.072  1.00  0.00     0.035 A 
HETATM   27  C19 UNL     1      24.271   1.161  52.152  1.00  0.00     0.037 A 
HETATM   28  C16 UNL     1      21.759   0.357  52.033  1.00  0.00     0.026 A 
HETATM   29  C17 UNL     1      22.540  -0.165  53.060  1.00  0.00     0.035 A 
HETATM   30 CL1  UNL     1      22.081  -1.296  54.304  1.00  0.00    -0.084 Cl
HETATM   31  C18 UNL     1      23.847   0.268  53.104  1.00  0.00     0.045 A 
HETATM   32  S1  UNL     1      25.852   2.042  51.749  1.00  0.00    -0.068 SA
ENDBRANCH   8  23
TORSDOF 5
ENDMDL
MODEL 3
REMARK VINA RESULT:      -8.7      4.359      9.116
REMARK  5 active torsions:
REMARK  status: ('A' for Active; 'I' for Inactive)
REMARK    1  A    between atoms: C3_3  and  C4_4 
REMARK    2  A    between atoms: C4_4  and  C5_5 
REMARK    3  A    between atoms: C5_5  and  O1_6 
REMARK    4  A    between atoms: O1_6  and  C6_7 
REMARK    5  A    between atoms: C12_14  and  C13_15 
ROOT
HETATM    1  C6  UNL     1      24.135   3.468  50.300  1.00  0.00     0.330 A 
HETATM    2  C7  UNL     1      23.245   4.497  49.965  1.00  0.00     0.335 A 
HETATM    3  C8  UNL     1      23.935   5.599  49.215  1.00  0.00     0.163 A 
HETATM    4  N1  UNL     1      24.196   4.583  49.693  1.00  0.00     0.049 N 
HETATM    5  C9  UNL     1      25.369   4.007  49.711  1.00  0.00     0.192 A 
HETATM    6  C10 UNL     1      26.583   4.262  49.277  1.00  0.00     0.050 C 
HETATM    7  C11 UNL     1      26.929   5.543  48.622  1.00  0.00    -0.031 C 
HETATM    8  C12 UNL     1      28.171   5.564  48.484  1.00  0.00     0.050 C 
HETATM    9  C20 UNL     1      25.991   6.583  48.217  1.00  0.00     0.013 C 
HETATM   10  C21 UNL     1      24.695   6.595  48.506  1.00  0.00     0.037 C 
ENDROOT
BRANCH   1  11
HETATM   11  O1  UNL     1      24.619   2.295  50.812  1.00  0.00    -0.346 OA
BRANCH  11  12
HETATM   12  C5  UNL     1      24.113   1.631  51.974  1.00  0.00     0.173 C 
BRANCH  12  13
HETATM   13  C4  UNL     1      25.124   1.712  53.088  1.00  0.00     0.053 C 
BRANCH  13  14
HETATM   14  C3  UNL     1      26.500   1.329  52.562  1.00  0.00     0.111 C 
HETATM   15  C2  UNL     1      26.974   0.062  53.159  1.00  0.00     0.240 C 
HETATM   16  C1  UNL     1      26.967  -1.096  52.159  1.00  0.00     0.045 C 
HETATM   17  N4  UNL     1      28.234   0.087  53.805  1.00  0.00     0.092 N 
HETATM   18  C23 UNL     1      29.147   1.081  53.333  1.00  0.00     0.291 C 
HETATM   19  C24 UNL     1      28.117   0.080  55.248  1.00  0.00     0.310 C 
HETATM   20  C22 UNL     1      28.451   2.419  53.520  1.00  0.00     0.144 C 
HETATM   21  N3  UNL     1      27.342   2.461  52.612  1.00  0.00    -0.413 N 
HETATM   22  H18 UNL     1      27.577   2.882  51.687  1.00  0.00     0.153 HD
ENDBRANCH  13  14
ENDBRANCH  12  13
ENDBRANCH  11  12
ENDBRANCH   1  11
BRANCH   8  23
HETATM   23  C13 UNL     1      29.131   6.450  47.961  1.00  0.00     0.099 A 
HETATM   24  N2  UNL     1      29.447   7.428  47.368  1.00  0.00    -0.240 NA
HETATM   25  C14 UNL     1      30.683   7.828  47.136  1.00  0.00     0.075 A 
HETATM   26  C15 UNL     1      30.987   8.996  46.425  1.00  0.00     0.035 A 
HETATM   27  C19 UNL     1      31.783   7.085  47.601  1.00  0.00     0.037 A 
HETATM   28  C16 UNL     1      32.309   9.294  46.255  1.00  0.00     0.026 A 
HETATM   29  C17 UNL     1      33.399   8.561  46.714  1.00  0.00     0.035 A 
HETATM   30 CL1  UNL     1      35.097   8.903  46.518  1.00  0.00    -0.084 Cl
HETATM   31  C18 UNL     1      33.103   7.412  47.413  1.00  0.00     0.045 A 
HETATM   32  S1  UNL     1      30.845   5.715  48.428  1.00  0.00    -0.068 SA
ENDBRANCH   8  23
TORSDOF 5
ENDMDL
MODEL 4
REMARK VINA RESULT:      -8.6      0.811      1.777
REMARK  5 active torsions:
REMARK  status: ('A' for Active; 'I' for Inactive)
REMARK    1  A    between atoms: C3_3  and  C4_4 
REMARK    2  A    between atoms: C4_4  and  C5_5 
REMARK    3  A    between atoms: C5_5  and  O1_6 
REMARK    4  A    between atoms: O1_6  and  C6_7 
REMARK    5  A    between atoms: C12_14  and  C13_15 
ROOT
HETATM    1  C6  UNL     1      29.152   7.595  46.873  1.00  0.00     0.330 A 
HETATM    2  C7  UNL     1      28.070   8.445  46.604  1.00  0.00     0.335 A 
HETATM    3  C8  UNL     1      26.807   7.947  47.243  1.00  0.00     0.163 A 
HETATM    4  N1  UNL     1      27.913   7.638  47.160  1.00  0.00     0.049 N 
HETATM    5  C9  UNL     1      28.473   6.588  47.700  1.00  0.00     0.192 A 
HETATM    6  C10 UNL     1      28.110   5.573  48.453  1.00  0.00     0.050 C 
HETATM    7  C11 UNL     1      26.700   5.348  48.840  1.00  0.00    -0.031 C 
HETATM    8  C12 UNL     1      26.643   4.229  49.394  1.00  0.00     0.050 C 
HETATM    9  C20 UNL     1      25.589   6.265  48.613  1.00  0.00     0.013 C 
HETATM   10  C21 UNL     1      25.656   7.380  47.896  1.00  0.00     0.037 C 
ENDROOT
BRANCH   1  11
HETATM   11  O1  UNL     1      30.419   7.080  46.879  1.00  0.00    -0.346 OA
BRANCH  11  12
HETATM   12  C5  UNL     1      31.569   7.714  46.310  1.00  0.00     0.173 C 
BRANCH  12  13
HETATM   13  C4  UNL     1      32.214   6.796  45.305  1.00  0.00     0.053 C 
BRANCH  13  14
HETATM   14  C3  UNL     1      33.409   6.099  45.938  1.00  0.00     0.111 C 
HETATM   15  C2  UNL     1      32.984   5.108  46.949  1.00  0.00     0.240 C 
HETATM   16  C1  UNL     1      33.195   3.666  46.481  1.00  0.00     0.045 C 
HETATM   17  N4  UNL     1      33.531   5.239  48.249  1.00  0.00     0.092 N 
HETATM   18  C23 UNL     1      34.808   5.878  48.317  1.00  0.00     0.291 C 
HETATM   19  C24 UNL     1      32.582   5.788  49.195  1.00  0.00     0.310 C 
HETATM   20  C22 UNL     1      34.627   7.255  47.697  1.00  0.00     0.144 C 
HETATM   21  N3  UNL     1      34.369   7.069  46.299  1.00  0.00    -0.413 N 
HETATM   22  H18 UNL     1      35.230   7.083  45.712  1.00  0.00     0.153 HD
ENDBRANCH  13  14
ENDBRANCH  12  13
ENDBRANCH  11  12
ENDBRANCH   1  11
BRANCH   8  23
HETATM   23  C13 UNL     1      25.648   3.423  49.978  1.00  0.00     0.099 A 
HETATM   24  N2  UNL     1      24.537   3.010  50.052  1.00  0.00    -0.240 NA
HETATM   25  C14 UNL     1      24.093   2.137  50.936  1.00  0.00     0.075 A 
HETATM   26  C15 UNL     1      22.765   1.692  50.969  1.00  0.00     0.035 A 
HETATM   27  C19 UNL     1      24.949   1.598  51.914  1.00  0.00     0.037 A 
HETATM   28  C16 UNL     1      22.437   0.787  51.938  1.00  0.00     0.026 A 
HETATM   29  C17 UNL     1      23.281   0.252  52.906  1.00  0.00     0.035 A 
HETATM   30 CL1  UNL     1      22.904  -0.900  54.158  1.00  0.00    -0.084 Cl
HETATM   31  C18 UNL     1      24.587   0.688  52.876  1.00  0.00     0.045 A 
HETATM   32  S1  UNL     1      26.500   2.490  51.427  1.00  0.00    -0.068 SA
ENDBRANCH   8  23
TORSDOF 5
ENDMDL
MODEL 5
REMARK VINA RESULT:      -8.4      1.402      2.052
REMARK  5 active torsions:
REMARK  status: ('A' for Active; 'I' for Inactive)
REMARK    1  A    between atoms: C3_3  and  C4_4 
REMARK    2  A    between atoms: C4_4  and  C5_5 
REMARK    3  A    between atoms: C5_5  and  O1_6 
REMARK    4  A    between atoms: O1_6  and  C6_7 
REMARK    5  A    between atoms: C12_14  and  C13_15 
ROOT
HETATM    1  C6  UNL     1      27.851   7.652  48.099  1.00  0.00     0.330 A 
HETATM    2  C7  UNL     1      27.130   8.615  48.819  1.00  0.00     0.335 A 
HETATM    3  C8  UNL     1      26.081   7.981  49.686  1.00  0.00     0.163 A 
HETATM    4  N1  UNL     1      26.897   7.657  48.940  1.00  0.00     0.049 N 
HETATM    5  C9  UNL     1      27.189   6.434  48.586  1.00  0.00     0.192 A 
HETATM    6  C10 UNL     1      26.772   5.218  48.858  1.00  0.00     0.050 C 
HETATM    7  C11 UNL     1      25.607   4.967  49.736  1.00  0.00    -0.031 C 
HETATM    8  C12 UNL     1      25.346   3.746  49.664  1.00  0.00     0.050 C 
HETATM    9  C20 UNL     1      24.899   5.962  50.532  1.00  0.00     0.013 C 
HETATM   10  C21 UNL     1      25.109   7.272  50.476  1.00  0.00     0.037 C 
ENDROOT
BRANCH   1  11
HETATM   11  O1  UNL     1      28.762   7.093  47.246  1.00  0.00    -0.346 OA
BRANCH  11  12
HETATM   12  C5  UNL     1      29.346   7.750  46.116  1.00  0.00     0.173 C 
BRANCH  12  13
HETATM   13  C4  UNL     1      30.812   7.988  46.366  1.00  0.00     0.053 C 
BRANCH  13  14
HETATM   14  C3  UNL     1      31.293   7.089  47.495  1.00  0.00     0.111 C 
HETATM   15  C2  UNL     1      32.289   7.776  48.346  1.00  0.00     0.240 C 
HETATM   16  C1  UNL     1      31.730   8.140  49.724  1.00  0.00     0.045 C 
HETATM   17  N4  UNL     1      33.536   7.130  48.527  1.00  0.00     0.092 N 
HETATM   18  C23 UNL     1      33.516   5.706  48.398  1.00  0.00     0.291 C 
HETATM   19  C24 UNL     1      34.594   7.744  47.752  1.00  0.00     0.310 C 
HETATM   20  C22 UNL     1      32.987   5.415  47.003  1.00  0.00     0.144 C 
HETATM   21  N3  UNL     1      31.611   5.819  46.968  1.00  0.00    -0.413 N 
HETATM   22  H18 UNL     1      30.947   5.055  47.218  1.00  0.00     0.153 HD
ENDBRANCH  13  14
ENDBRANCH  12  13
ENDBRANCH  11  12
ENDBRANCH   1  11
BRANCH   8  23
HETATM   23  C13 UNL     1      24.399   2.865  50.217  1.00  0.00     0.099 A 
HETATM   24  N2  UNL     1      23.331   2.346  50.240  1.00  0.00    -0.240 NA
HETATM   25  C14 UNL     1      22.918   1.463  51.129  1.00  0.00     0.075 A 
HETATM   26  C15 UNL     1      21.640   0.890  51.099  1.00  0.00     0.035 A 
HETATM   27  C19 UNL     1      23.759   1.043  52.176  1.00  0.00     0.037 A 
HETATM   28  C16 UNL     1      21.340  -0.011  52.080  1.00  0.00     0.026 A 
HETATM   29  C17 UNL     1      22.169  -0.428  53.118  1.00  0.00     0.035 A 
HETATM   30 CL1  UNL     1      21.826  -1.571  54.388  1.00  0.00    -0.084 Cl
HETATM   31  C18 UNL     1      23.426   0.134  53.149  1.00  0.00     0.045 A 
HETATM   32  S1  UNL     1      25.244   2.068  51.750  1.00  0.00    -0.068 SA
ENDBRANCH   8  23
TORSDOF 5
ENDMDL
MODEL 6
REMARK VINA RESULT:      -8.3      1.676      2.458
REMARK  5 active torsions:
REMARK  status: ('A' for Active; 'I' for Inactive)
REMARK    1  A    between atoms: C3_3  and  C4_4 
REMARK    2  A    between atoms: C4_4  and  C5_5 
REMARK    3  A    between atoms: C5_5  and  O1_6 
REMARK    4  A    between atoms: O1_6  and  C6_7 
REMARK    5  A    between atoms: C12_14  and  C13_15 
ROOT
HETATM    1  C6  UNL     1      29.331   6.509  48.117  1.00  0.00     0.330 A 
HETATM    2  C7  UNL     1      28.570   7.590  47.653  1.00  0.00     0.335 A 
HETATM    3  C8  UNL     1      27.100   7.347  47.835  1.00  0.00     0.163 A 
HETATM    4  N1  UNL     1      28.097   6.807  48.038  1.00  0.00     0.049 N 
HETATM    5  C9  UNL     1      28.250   5.629  48.584  1.00  0.00     0.192 A 
HETATM    6  C10 UNL     1      27.485   4.678  49.071  1.00  0.00     0.050 C 
HETATM    7  C11 UNL     1      26.008   4.748  49.006  1.00  0.00    -0.031 C 
HETATM    8  C12 UNL     1      25.569   3.639  49.378  1.00  0.00     0.050 C 
HETATM    9  C20 UNL     1      25.220   5.899  48.582  1.00  0.00     0.013 C 
HETATM   10  C21 UNL     1      25.718   7.012  48.055  1.00  0.00     0.037 C 
ENDROOT
BRANCH   1  11
HETATM   11  O1  UNL     1      30.411   5.727  48.424  1.00  0.00    -0.346 OA
BRANCH  11  12
HETATM   12  C5  UNL     1      31.413   5.303  47.494  1.00  0.00     0.173 C 
BRANCH  12  13
HETATM   13  C4  UNL     1      31.055   3.948  46.941  1.00  0.00     0.053 C 
BRANCH  13  14
HETATM   14  C3  UNL     1      32.322   3.208  46.537  1.00  0.00     0.111 C 
HETATM   15  C2  UNL     1      33.233   3.027  47.687  1.00  0.00     0.240 C 
HETATM   16  C1  UNL     1      33.294   1.574  48.164  1.00  0.00     0.045 C 
HETATM   17  N4  UNL     1      34.558   3.504  47.540  1.00  0.00     0.092 N 
HETATM   18  C23 UNL     1      35.047   3.556  46.198  1.00  0.00     0.291 C 
HETATM   19  C24 UNL     1      34.785   4.738  48.264  1.00  0.00     0.310 C 
HETATM   20  C22 UNL     1      34.092   4.458  45.433  1.00  0.00     0.144 C 
HETATM   21  N3  UNL     1      32.830   3.781  45.351  1.00  0.00    -0.413 N 
HETATM   22  H18 UNL     1      32.727   3.195  44.495  1.00  0.00     0.153 HD
ENDBRANCH  13  14
ENDBRANCH  12  13
ENDBRANCH  11  12
ENDBRANCH   1  11
BRANCH   8  23
HETATM   23  C13 UNL     1      24.307   3.040  49.549  1.00  0.00     0.099 A 
HETATM   24  N2  UNL     1      23.214   2.762  49.175  1.00  0.00    -0.240 NA
HETATM   25  C14 UNL     1      22.311   2.085  49.858  1.00  0.00     0.075 A 
HETATM   26  C15 UNL     1      21.036   1.793  49.356  1.00  0.00     0.035 A 
HETATM   27  C19 UNL     1      22.589   1.611  51.154  1.00  0.00     0.037 A 
HETATM   28  C16 UNL     1      20.197   1.085  50.168  1.00  0.00     0.026 A 
HETATM   29  C17 UNL     1      20.468   0.615  51.450  1.00  0.00     0.035 A 
HETATM   30 CL1  UNL     1      19.428  -0.289  52.518  1.00  0.00    -0.084 Cl
HETATM   31  C18 UNL     1      21.721   0.901  51.945  1.00  0.00     0.045 A 
HETATM   32  S1  UNL     1      24.323   2.251  51.302  1.00  0.00    -0.068 SA
ENDBRANCH   8  23
TORSDOF 5
ENDMDL
MODEL 7
REMARK VINA RESULT:      -8.2      7.162     13.513
REMARK  5 active torsions:
REMARK  status: ('A' for Active; 'I' for Inactive)
REMARK    1  A    between atoms: C3_3  and  C4_4 
REMARK    2  A    between atoms: C4_4  and  C5_5 
REMARK    3  A    between atoms: C5_5  and  O1_6 
REMARK    4  A    between atoms: O1_6  and  C6_7 
REMARK    5  A    between atoms: C12_14  and  C13_15 
ROOT
HETATM    1  C6  UNL     1      18.359   2.946  50.950  1.00  0.00     0.330 A 
HETATM    2  C7  UNL     1      18.562   2.292  49.728  1.00  0.00     0.335 A 
HETATM    3  C8  UNL     1      19.953   1.738  49.624  1.00  0.00     0.163 A 
HETATM    4  N1  UNL     1      19.312   2.328  50.377  1.00  0.00     0.049 N 
HETATM    5  C9  UNL     1      19.682   2.746  51.559  1.00  0.00     0.192 A 
HETATM    6  C10 UNL     1      20.758   2.703  52.311  1.00  0.00     0.050 C 
HETATM    7  C11 UNL     1      22.030   2.120  51.827  1.00  0.00    -0.031 C 
HETATM    8  C12 UNL     1      22.904   2.380  52.682  1.00  0.00     0.050 C 
HETATM    9  C20 UNL     1      22.221   1.385  50.583  1.00  0.00     0.013 C 
HETATM   10  C21 UNL     1      21.307   1.251  49.629  1.00  0.00     0.037 C 
ENDROOT
BRANCH   1  11
HETATM   11  O1  UNL     1      17.749   3.647  51.954  1.00  0.00    -0.346 OA
BRANCH  11  12
HETATM   12  C5  UNL     1      16.357   3.977  52.001  1.00  0.00     0.173 C 
BRANCH  12  13
HETATM   13  C4  UNL     1      15.536   2.717  52.082  1.00  0.00     0.053 C 
BRANCH  13  14
HETATM   14  C3  UNL     1      14.056   3.061  51.990  1.00  0.00     0.111 C 
HETATM   15  C2  UNL     1      13.413   3.043  53.321  1.00  0.00     0.240 C 
HETATM   16  C1  UNL     1      13.060   4.446  53.820  1.00  0.00     0.045 C 
HETATM   17  N4  UNL     1      12.275   2.215  53.474  1.00  0.00     0.092 N 
HETATM   18  C23 UNL     1      11.531   1.965  52.280  1.00  0.00     0.291 C 
HETATM   19  C24 UNL     1      12.568   1.004  54.212  1.00  0.00     0.310 C 
HETATM   20  C22 UNL     1      12.502   1.321  51.302  1.00  0.00     0.144 C 
HETATM   21  N3  UNL     1      13.475   2.313  50.944  1.00  0.00    -0.413 N 
HETATM   22  H18 UNL     1      13.217   2.861  50.095  1.00  0.00     0.153 HD
ENDBRANCH  13  14
ENDBRANCH  12  13
ENDBRANCH  11  12
ENDBRANCH   1  11
BRANCH   8  23
HETATM   23  C13 UNL     1      24.280   2.137  52.849  1.00  0.00     0.099 A 
HETATM   24  N2  UNL     1      25.411   2.494  52.924  1.00  0.00    -0.240 NA
HETATM   25  C14 UNL     1      26.458   1.713  53.109  1.00  0.00     0.075 A 
HETATM   26  C15 UNL     1      27.769   2.200  53.185  1.00  0.00     0.035 A 
HETATM   27  C19 UNL     1      26.308   0.320  53.240  1.00  0.00     0.037 A 
HETATM   28  C16 UNL     1      28.762   1.283  53.378  1.00  0.00     0.026 A 
HETATM   29  C17 UNL     1      28.618  -0.096  53.508  1.00  0.00     0.035 A 
HETATM   30 CL1  UNL     1      29.855  -1.299  53.752  1.00  0.00    -0.084 Cl
HETATM   31  C18 UNL     1      27.329  -0.577  53.433  1.00  0.00     0.045 A 
HETATM   32  S1  UNL     1      24.463   0.236  53.067  1.00  0.00    -0.068 SA
ENDBRANCH   8  23
TORSDOF 5
ENDMDL
MODEL 8
REMARK VINA RESULT:      -8.1      1.926      2.778
REMARK  5 active torsions:
REMARK  status: ('A' for Active; 'I' for Inactive)
REMARK    1  A    between atoms: C3_3  and  C4_4 
REMARK    2  A    between atoms: C4_4  and  C5_5 
REMARK    3  A    between atoms: C5_5  and  O1_6 
REMARK    4  A    between atoms: O1_6  and  C6_7 
REMARK    5  A    between atoms: C12_14  and  C13_15 
ROOT
HETATM    1  C6  UNL     1      28.354   5.879  48.189  1.00  0.00     0.330 A 
HETATM    2  C7  UNL     1      27.515   7.002  48.186  1.00  0.00     0.335 A 
HETATM    3  C8  UNL     1      26.224   6.726  48.901  1.00  0.00     0.163 A 
HETATM    4  N1  UNL     1      27.199   6.174  48.634  1.00  0.00     0.049 N 
HETATM    5  C9  UNL     1      27.507   4.941  48.939  1.00  0.00     0.192 A 
HETATM    6  C10 UNL     1      26.956   3.931  49.575  1.00  0.00     0.050 C 
HETATM    7  C11 UNL     1      25.575   3.996  50.102  1.00  0.00    -0.031 C 
HETATM    8  C12 UNL     1      25.273   2.846  50.488  1.00  0.00     0.050 C 
HETATM    9  C20 UNL     1      24.729   5.182  50.154  1.00  0.00     0.013 C 
HETATM   10  C21 UNL     1      25.025   6.354  49.605  1.00  0.00     0.037 C 
ENDROOT
BRANCH   1  11
HETATM   11  O1  UNL     1      29.437   5.076  47.957  1.00  0.00    -0.346 OA
BRANCH  11  12
HETATM   12  C5  UNL     1      30.803   5.460  48.143  1.00  0.00     0.173 C 
BRANCH  12  13
HETATM   13  C4  UNL     1      31.275   6.257  46.956  1.00  0.00     0.053 C 
BRANCH  13  14
HETATM   14  C3  UNL     1      32.702   5.862  46.606  1.00  0.00     0.111 C 
HETATM   15  C2  UNL     1      32.747   4.556  45.913  1.00  0.00     0.240 C 
HETATM   16  C1  UNL     1      33.094   4.693  44.428  1.00  0.00     0.045 C 
HETATM   17  N4  UNL     1      33.578   3.557  46.475  1.00  0.00     0.092 N 
HETATM   18  C23 UNL     1      34.686   4.037  47.240  1.00  0.00     0.291 C 
HETATM   19  C24 UNL     1      32.822   2.536  47.171  1.00  0.00     0.310 C 
HETATM   20  C22 UNL     1      34.097   4.894  48.348  1.00  0.00     0.144 C 
HETATM   21  N3  UNL     1      33.524   6.059  47.737  1.00  0.00    -0.413 N 
HETATM   22  H18 UNL     1      34.186   6.862  47.671  1.00  0.00     0.153 HD
ENDBRANCH  13  14
ENDBRANCH  12  13
ENDBRANCH  11  12
ENDBRANCH   1  11
BRANCH   8  23
HETATM   23  C13 UNL     1      24.155   2.220  51.069  1.00  0.00     0.099 A 
HETATM   24  N2  UNL     1      23.594   1.698  51.977  1.00  0.00    -0.240 NA
HETATM   25  C14 UNL     1      22.364   1.221  51.956  1.00  0.00     0.075 A 
HETATM   26  C15 UNL     1      21.762   0.613  53.065  1.00  0.00     0.035 A 
HETATM   27  C19 UNL     1      21.577   1.298  50.792  1.00  0.00     0.037 A 
HETATM   28  C16 UNL     1      20.483   0.161  52.908  1.00  0.00     0.026 A 
HETATM   29  C17 UNL     1      19.702   0.236  51.758  1.00  0.00     0.035 A 
HETATM   30 CL1  UNL     1      18.072  -0.328  51.515  1.00  0.00    -0.084 Cl
HETATM   31  C18 UNL     1      20.293   0.833  50.666  1.00  0.00     0.045 A 
HETATM   32  S1  UNL     1      22.810   2.148  49.697  1.00  0.00    -0.068 SA
ENDBRANCH   8  23
TORSDOF 5
ENDMDL
MODEL 9
REMARK VINA RESULT:      -8.0      2.410      3.482
REMARK  5 active torsions:
REMARK  status: ('A' for Active; 'I' for Inactive)
REMARK    1  A    between atoms: C3_3  and  C4_4 
REMARK    2  A    between atoms: C4_4  and  C5_5 
REMARK    3  A    between atoms: C5_5  and  O1_6 
REMARK    4  A    between atoms: O1_6  and  C6_7 
REMARK    5  A    between atoms: C12_14  and  C13_15 
ROOT
HETATM    1  C6  UNL     1      28.128   7.636  48.123  1.00  0.00     0.330 A 
HETATM    2  C7  UNL     1      27.445   8.604  48.872  1.00  0.00     0.335 A 
HETATM    3  C8  UNL     1      26.361   7.990  49.708  1.00  0.00     0.163 A 
HETATM    4  N1  UNL     1      27.167   7.655  48.956  1.00  0.00     0.049 N 
HETATM    5  C9  UNL     1      27.405   6.433  48.560  1.00  0.00     0.192 A 
HETATM    6  C10 UNL     1      26.930   5.229  48.785  1.00  0.00     0.050 C 
HETATM    7  C11 UNL     1      25.747   5.001  49.645  1.00  0.00    -0.031 C 
HETATM    8  C12 UNL     1      25.431   3.797  49.526  1.00  0.00     0.050 C 
HETATM    9  C20 UNL     1      25.080   5.999  50.472  1.00  0.00     0.013 C 
HETATM   10  C21 UNL     1      25.351   7.298  50.466  1.00  0.00     0.037 C 
ENDROOT
BRANCH   1  11
HETATM   11  O1  UNL     1      29.019   7.067  47.256  1.00  0.00    -0.346 OA
BRANCH  11  12
HETATM   12  C5  UNL     1      30.165   7.721  46.703  1.00  0.00     0.173 C 
BRANCH  12  13
HETATM   13  C4  UNL     1      31.235   7.851  47.755  1.00  0.00     0.053 C 
BRANCH  13  14
HETATM   14  C3  UNL     1      31.794   9.266  47.747  1.00  0.00     0.111 C 
HETATM   15  C2  UNL     1      30.712  10.274  47.788  1.00  0.00     0.240 C 
HETATM   16  C1  UNL     1      30.631  10.992  49.138  1.00  0.00     0.045 C 
HETATM   17  N4  UNL     1      30.703  11.250  46.762  1.00  0.00     0.092 N 
HETATM   18  C23 UNL     1      31.976  11.540  46.178  1.00  0.00     0.291 C 
HETATM   19  C24 UNL     1      29.678  11.001  45.770  1.00  0.00     0.310 C 
HETATM   20  C22 UNL     1      32.498  10.223  45.625  1.00  0.00     0.144 C 
HETATM   21  N3  UNL     1      32.778   9.367  46.741  1.00  0.00    -0.413 N 
HETATM   22  H18 UNL     1      33.760   9.440  47.085  1.00  0.00     0.153 HD
ENDBRANCH  13  14
ENDBRANCH  12  13
ENDBRANCH  11  12
ENDBRANCH   1  11
BRANCH   8  23
HETATM   23  C13 UNL     1      24.439   2.941  50.040  1.00  0.00     0.099 A 
HETATM   24  N2  UNL     1      23.376   2.414  49.993  1.00  0.00    -0.240 NA
HETATM   25  C14 UNL     1      22.884   1.583  50.892  1.00  0.00     0.075 A 
HETATM   26  C15 UNL     1      21.617   0.995  50.775  1.00  0.00     0.035 A 
HETATM   27  C19 UNL     1      23.622   1.237  52.039  1.00  0.00     0.037 A 
HETATM   28  C16 UNL     1      21.229   0.153  51.778  1.00  0.00     0.026 A 
HETATM   29  C17 UNL     1      21.956  -0.191  52.914  1.00  0.00     0.035 A 
HETATM   30 CL1  UNL     1      21.498  -1.256  54.214  1.00  0.00    -0.084 Cl
HETATM   31  C18 UNL     1      23.201   0.386  53.030  1.00  0.00     0.045 A 
HETATM   32  S1  UNL     1      25.136   2.250  51.694  1.00  0.00    -0.068 SA
ENDBRANCH   8  23
TORSDOF 5
ENDMDL
