MODEL 1
REMARK VINA RESULT:      -8.4      0.000      0.000
REMARK  4 active torsions:
REMARK  status: ('A' for Active; 'I' for Inactive)
REMARK    1  A    between atoms: C2_2  and  N1_3 
REMARK    2  A    between atoms: C2_2  and  C13_16 
REMARK    3  A    between atoms: N1_3  and  C3_4 
REMARK    4  A    between atoms: C8_10  and  C9_11 
ROOT
HETATM    1  C3  UNL     1      23.433   2.220  50.538  1.00  0.00     0.129 A 
HETATM    2  N2  UNL     1      23.106   2.571  49.369  1.00  0.00    -0.269 NA
HETATM    3  C4  UNL     1      22.022   2.125  48.565  1.00  0.00     0.178 A 
HETATM    4  C5  UNL     1      21.152   1.109  49.164  1.00  0.00    -0.004 A 
HETATM    5  C6  UNL     1      21.456   0.718  50.373  1.00  0.00     0.013 A 
HETATM    6  C7  UNL     1      22.573   1.197  51.173  1.00  0.00     0.010 A 
HETATM    7  C8  UNL     1      22.864   0.802  52.395  1.00  0.00     0.028 C 
ENDROOT
BRANCH   1   8
HETATM    8  N1  UNL     1      24.578   2.791  51.195  1.00  0.00    -0.366 N 
HETATM    9  H5  UNL     1      24.330   3.483  51.937  1.00  0.00     0.161 HD
BRANCH   8  10
HETATM   10  C2  UNL     1      25.892   2.359  50.775  1.00  0.00     0.112 C 
HETATM   11  C1  UNL     1      26.661   3.487  50.138  1.00  0.00     0.037 C 
BRANCH  10  12
HETATM   12  C13 UNL     1      26.642   1.662  51.812  1.00  0.00    -0.036 A 
HETATM   13  C14 UNL     1      26.504   0.293  51.998  1.00  0.00     0.012 A 
HETATM   14  C15 UNL     1      27.178  -0.434  52.953  1.00  0.00     0.043 A 
HETATM   15  C16 UNL     1      28.052   0.231  53.789  1.00  0.00     0.116 A 
HETATM   16  F1  UNL     1      28.773  -0.377  54.769  1.00  0.00    -0.206 F 
HETATM   17  C17 UNL     1      28.248   1.598  53.670  1.00  0.00     0.043 A 
HETATM   18  C18 UNL     1      27.544   2.261  52.695  1.00  0.00     0.012 A 
ENDBRANCH  10  12
ENDBRANCH   8  10
ENDBRANCH   1   8
BRANCH   7  19
HETATM   19  C9  UNL     1      22.313  -0.141  53.357  1.00  0.00    -0.018 A 
HETATM   20  C10 UNL     1      21.226  -0.728  53.815  1.00  0.00     0.021 A 
HETATM   21 BR1  UNL     1      19.419  -0.519  53.234  1.00  0.00    -0.050 Br
HETATM   22  C11 UNL     1      21.989  -1.473  54.807  1.00  0.00     0.021 A 
HETATM   23  C12 UNL     1      23.073  -0.888  54.351  1.00  0.00     0.014 A 
ENDBRANCH   7  19
TORSDOF 4
ENDMDL
MODEL 2
REMARK VINA RESULT:      -8.1      1.721      2.059
REMARK  4 active torsions:
REMARK  status: ('A' for Active; 'I' for Inactive)
REMARK    1  A    between atoms: C2_2  and  N1_3 
REMARK    2  A    between atoms: C2_2  and  C13_16 
REMARK    3  A    between atoms: N1_3  and  C3_4 
REMARK    4  A    between atoms: C8_10  and  C9_11 
ROOT
HETATM    1  C3  UNL     1      23.817   3.502  52.207  1.00  0.00     0.129 A 
HETATM    2  N2  UNL     1      23.477   4.622  51.732  1.00  0.00    -0.269 NA
HETATM    3  C4  UNL     1      22.178   5.123  51.447  1.00  0.00     0.178 A 
HETATM    4  C5  UNL     1      21.062   4.219  51.739  1.00  0.00    -0.004 A 
HETATM    5  C6  UNL     1      21.371   3.049  52.233  1.00  0.00     0.013 A 
HETATM    6  C7  UNL     1      22.714   2.566  52.516  1.00  0.00     0.010 A 
HETATM    7  C8  UNL     1      23.013   1.388  53.023  1.00  0.00     0.028 C 
ENDROOT
BRANCH   1   8
HETATM    8  N1  UNL     1      25.201   3.175  52.427  1.00  0.00    -0.366 N 
HETATM    9  H5  UNL     1      25.611   3.643  53.265  1.00  0.00     0.161 HD
BRANCH   8  10
HETATM   10  C2  UNL     1      25.842   2.267  51.503  1.00  0.00     0.112 C 
HETATM   11  C1  UNL     1      26.486   3.013  50.363  1.00  0.00     0.037 C 
BRANCH  10  12
HETATM   12  C13 UNL     1      26.734   1.307  52.143  1.00  0.00    -0.036 A 
HETATM   13  C14 UNL     1      27.828   1.731  52.884  1.00  0.00     0.012 A 
HETATM   14  C15 UNL     1      28.712   0.887  53.516  1.00  0.00     0.043 A 
HETATM   15  C16 UNL     1      28.509  -0.474  53.413  1.00  0.00     0.116 A 
HETATM   16  F1  UNL     1      29.313  -1.406  53.991  1.00  0.00    -0.206 F 
HETATM   17  C17 UNL     1      27.440  -0.980  52.691  1.00  0.00     0.043 A 
HETATM   18  C18 UNL     1      26.596  -0.081  52.086  1.00  0.00     0.012 A 
ENDBRANCH  10  12
ENDBRANCH   8  10
ENDBRANCH   1   8
BRANCH   7  19
HETATM   19  C9  UNL     1      22.277   0.210  53.457  1.00  0.00    -0.018 A 
HETATM   20  C10 UNL     1      21.138  -0.450  53.404  1.00  0.00     0.021 A 
HETATM   21 BR1  UNL     1      19.535   0.006  52.471  1.00  0.00    -0.050 Br
HETATM   22  C11 UNL     1      21.651  -1.502  54.270  1.00  0.00     0.021 A 
HETATM   23  C12 UNL     1      22.788  -0.845  54.322  1.00  0.00     0.014 A 
ENDBRANCH   7  19
TORSDOF 4
ENDMDL
MODEL 3
REMARK VINA RESULT:      -8.0      2.771      4.839
REMARK  4 active torsions:
REMARK  status: ('A' for Active; 'I' for Inactive)
REMARK    1  A    between atoms: C2_2  and  N1_3 
REMARK    2  A    between atoms: C2_2  and  C13_16 
REMARK    3  A    between atoms: N1_3  and  C3_4 
REMARK    4  A    between atoms: C8_10  and  C9_11 
ROOT
HETATM    1  C3  UNL     1      25.717   1.751  52.477  1.00  0.00     0.129 A 
HETATM    2  N2  UNL     1      26.959   1.536  52.391  1.00  0.00    -0.269 NA
HETATM    3  C4  UNL     1      27.696   0.367  52.723  1.00  0.00     0.178 A 
HETATM    4  C5  UNL     1      26.915  -0.759  53.244  1.00  0.00    -0.004 A 
HETATM    5  C6  UNL     1      25.625  -0.578  53.348  1.00  0.00     0.013 A 
HETATM    6  C7  UNL     1      24.899   0.633  52.997  1.00  0.00     0.010 A 
HETATM    7  C8  UNL     1      23.597   0.801  53.097  1.00  0.00     0.028 C 
ENDROOT
BRANCH   1   8
HETATM    8  N1  UNL     1      25.150   3.015  52.088  1.00  0.00    -0.366 N 
HETATM    9  H5  UNL     1      25.088   3.702  52.873  1.00  0.00     0.161 HD
BRANCH   8  10
HETATM   10  C2  UNL     1      24.749   3.188  50.711  1.00  0.00     0.112 C 
HETATM   11  C1  UNL     1      23.277   3.488  50.604  1.00  0.00     0.037 C 
BRANCH  10  12
HETATM   12  C13 UNL     1      25.584   4.123  49.967  1.00  0.00    -0.036 A 
HETATM   13  C14 UNL     1      25.192   5.442  49.781  1.00  0.00     0.012 A 
HETATM   14  C15 UNL     1      25.925   6.381  49.093  1.00  0.00     0.043 A 
HETATM   15  C16 UNL     1      27.132   5.999  48.544  1.00  0.00     0.116 A 
HETATM   16  F1  UNL     1      27.944   6.836  47.844  1.00  0.00    -0.206 F 
HETATM   17  C17 UNL     1      27.598   4.702  48.684  1.00  0.00     0.043 A 
HETATM   18  C18 UNL     1      26.815   3.815  49.384  1.00  0.00     0.012 A 
ENDBRANCH  10  12
ENDBRANCH   8  10
ENDBRANCH   1   8
BRANCH   7  19
HETATM   19  C9  UNL     1      22.462   0.002  53.538  1.00  0.00    -0.018 A 
HETATM   20  C10 UNL     1      21.206  -0.327  53.319  1.00  0.00     0.021 A 
HETATM   21 BR1  UNL     1      20.031   0.282  51.942  1.00  0.00    -0.050 Br
HETATM   22  C11 UNL     1      21.192  -1.226  54.465  1.00  0.00     0.021 A 
HETATM   23  C12 UNL     1      22.446  -0.898  54.683  1.00  0.00     0.014 A 
ENDBRANCH   7  19
TORSDOF 4
ENDMDL
MODEL 4
REMARK VINA RESULT:      -7.9      3.212      5.281
REMARK  4 active torsions:
REMARK  status: ('A' for Active; 'I' for Inactive)
REMARK    1  A    between atoms: C2_2  and  N1_3 
REMARK    2  A    between atoms: C2_2  and  C13_16 
REMARK    3  A    between atoms: N1_3  and  C3_4 
REMARK    4  A    between atoms: C8_10  and  C9_11 
ROOT
HETATM    1  C3  UNL     1      22.905   1.714  52.638  1.00  0.00     0.129 A 
HETATM    2  N2  UNL     1      21.717   1.375  52.899  1.00  0.00    -0.269 NA
HETATM    3  C4  UNL     1      21.231   0.180  53.498  1.00  0.00     0.178 A 
HETATM    4  C5  UNL     1      22.245  -0.812  53.868  1.00  0.00    -0.004 A 
HETATM    5  C6  UNL     1      23.488  -0.499  53.614  1.00  0.00     0.013 A 
HETATM    6  C7  UNL     1      23.954   0.736  53.002  1.00  0.00     0.010 A 
HETATM    7  C8  UNL     1      25.211   1.043  52.760  1.00  0.00     0.028 C 
ENDROOT
BRANCH   1   8
HETATM    8  N1  UNL     1      23.201   2.980  52.022  1.00  0.00    -0.366 N 
HETATM    9  H5  UNL     1      23.399   3.741  52.710  1.00  0.00     0.161 HD
BRANCH   8  10
HETATM   10  C2  UNL     1      23.197   3.054  50.580  1.00  0.00     0.112 C 
HETATM   11  C1  UNL     1      21.905   3.635  50.066  1.00  0.00     0.037 C 
BRANCH  10  12
HETATM   12  C13 UNL     1      24.380   3.694  50.018  1.00  0.00    -0.036 A 
HETATM   13  C14 UNL     1      24.306   4.954  49.439  1.00  0.00     0.012 A 
HETATM   14  C15 UNL     1      25.377   5.621  48.891  1.00  0.00     0.043 A 
HETATM   15  C16 UNL     1      26.613   5.007  48.909  1.00  0.00     0.116 A 
HETATM   16  F1  UNL     1      27.744   5.565  48.400  1.00  0.00    -0.206 F 
HETATM   17  C17 UNL     1      26.774   3.750  49.469  1.00  0.00     0.043 A 
HETATM   18  C18 UNL     1      25.662   3.141  50.000  1.00  0.00     0.012 A 
ENDBRANCH  10  12
ENDBRANCH   8  10
ENDBRANCH   1   8
BRANCH   7  19
HETATM   19  C9  UNL     1      26.507   0.407  52.947  1.00  0.00    -0.018 A 
HETATM   20  C10 UNL     1      27.777   0.579  53.250  1.00  0.00     0.021 A 
HETATM   21 BR1  UNL     1      28.692   2.195  53.696  1.00  0.00    -0.050 Br
HETATM   22  C11 UNL     1      28.057  -0.842  53.092  1.00  0.00     0.021 A 
HETATM   23  C12 UNL     1      26.790  -1.014  52.790  1.00  0.00     0.014 A 
ENDBRANCH   7  19
TORSDOF 4
ENDMDL
MODEL 5
REMARK VINA RESULT:      -7.9      3.090      5.547
REMARK  4 active torsions:
REMARK  status: ('A' for Active; 'I' for Inactive)
REMARK    1  A    between atoms: C2_2  and  N1_3 
REMARK    2  A    between atoms: C2_2  and  C13_16 
REMARK    3  A    between atoms: N1_3  and  C3_4 
REMARK    4  A    between atoms: C8_10  and  C9_11 
ROOT
HETATM    1  C3  UNL     1      24.105   2.899  50.405  1.00  0.00     0.129 A 
HETATM    2  N2  UNL     1      24.077   3.907  49.645  1.00  0.00    -0.269 NA
HETATM    3  C4  UNL     1      25.154   4.694  49.152  1.00  0.00     0.178 A 
HETATM    4  C5  UNL     1      26.495   4.290  49.582  1.00  0.00    -0.004 A 
HETATM    5  C6  UNL     1      26.568   3.250  50.371  1.00  0.00     0.013 A 
HETATM    6  C7  UNL     1      25.445   2.463  50.856  1.00  0.00     0.010 A 
HETATM    7  C8  UNL     1      25.531   1.410  51.643  1.00  0.00     0.028 C 
ENDROOT
BRANCH   1   8
HETATM    8  N1  UNL     1      22.894   2.228  50.799  1.00  0.00    -0.366 N 
HETATM    9  H5  UNL     1      22.504   1.605  50.058  1.00  0.00     0.161 HD
BRANCH   8  10
HETATM   10  C2  UNL     1      22.376   2.479  52.124  1.00  0.00     0.112 C 
HETATM   11  C1  UNL     1      21.373   3.603  52.115  1.00  0.00     0.037 C 
BRANCH  10  12
HETATM   12  C13 UNL     1      21.896   1.283  52.806  1.00  0.00    -0.036 A 
HETATM   13  C14 UNL     1      22.784   0.369  53.357  1.00  0.00     0.012 A 
HETATM   14  C15 UNL     1      22.408  -0.780  54.014  1.00  0.00     0.043 A 
HETATM   15  C16 UNL     1      21.061  -1.054  54.141  1.00  0.00     0.116 A 
HETATM   16  F1  UNL     1      20.568  -2.154  54.768  1.00  0.00    -0.206 F 
HETATM   17  C17 UNL     1      20.109  -0.192  53.620  1.00  0.00     0.043 A 
HETATM   18  C18 UNL     1      20.554   0.937  52.976  1.00  0.00     0.012 A 
ENDBRANCH  10  12
ENDBRANCH   8  10
ENDBRANCH   1   8
BRANCH   7  19
HETATM   19  C9  UNL     1      26.599   0.667  52.296  1.00  0.00    -0.018 A 
HETATM   20  C10 UNL     1      27.708   0.739  53.005  1.00  0.00     0.021 A 
HETATM   21 BR1  UNL     1      28.621   2.291  53.642  1.00  0.00    -0.050 Br
HETATM   22  C11 UNL     1      27.840  -0.711  53.034  1.00  0.00     0.021 A 
HETATM   23  C12 UNL     1      26.734  -0.783  52.328  1.00  0.00     0.014 A 
ENDBRANCH   7  19
TORSDOF 4
ENDMDL
MODEL 6
REMARK VINA RESULT:      -7.6      3.764      7.059
REMARK  4 active torsions:
REMARK  status: ('A' for Active; 'I' for Inactive)
REMARK    1  A    between atoms: C2_2  and  N1_3 
REMARK    2  A    between atoms: C2_2  and  C13_16 
REMARK    3  A    between atoms: N1_3  and  C3_4 
REMARK    4  A    between atoms: C8_10  and  C9_11 
ROOT
HETATM    1  C3  UNL     1      24.346   0.304  53.312  1.00  0.00     0.129 A 
HETATM    2  N2  UNL     1      25.218  -0.405  53.887  1.00  0.00    -0.269 NA
HETATM    3  C4  UNL     1      26.588  -0.593  53.557  1.00  0.00     0.178 A 
HETATM    4  C5  UNL     1      27.071   0.134  52.380  1.00  0.00    -0.004 A 
HETATM    5  C6  UNL     1      26.199   0.881  51.755  1.00  0.00     0.013 A 
HETATM    6  C7  UNL     1      24.801   1.053  52.120  1.00  0.00     0.010 A 
HETATM    7  C8  UNL     1      23.934   1.817  51.489  1.00  0.00     0.028 C 
ENDROOT
BRANCH   1   8
HETATM    8  N1  UNL     1      22.994   0.366  53.801  1.00  0.00    -0.366 N 
HETATM    9  H5  UNL     1      22.765   1.267  54.277  1.00  0.00     0.161 HD
BRANCH   8  10
HETATM   10  C2  UNL     1      22.138  -0.777  53.584  1.00  0.00     0.112 C 
HETATM   11  C1  UNL     1      21.911  -1.540  54.863  1.00  0.00     0.037 C 
BRANCH  10  12
HETATM   12  C13 UNL     1      20.905  -0.464  52.872  1.00  0.00    -0.036 A 
HETATM   13  C14 UNL     1      20.931   0.205  51.656  1.00  0.00     0.012 A 
HETATM   14  C15 UNL     1      19.812   0.535  50.926  1.00  0.00     0.043 A 
HETATM   15  C16 UNL     1      18.574   0.184  51.426  1.00  0.00     0.116 A 
HETATM   16  F1  UNL     1      17.399   0.454  50.798  1.00  0.00    -0.206 F 
HETATM   17  C17 UNL     1      18.460  -0.487  52.634  1.00  0.00     0.043 A 
HETATM   18  C18 UNL     1      19.618  -0.785  53.310  1.00  0.00     0.012 A 
ENDBRANCH  10  12
ENDBRANCH   8  10
ENDBRANCH   1   8
BRANCH   7  19
HETATM   19  C9  UNL     1      23.950   2.689  50.323  1.00  0.00    -0.018 A 
HETATM   20  C10 UNL     1      24.684   3.443  49.531  1.00  0.00     0.021 A 
HETATM   21 BR1  UNL     1      26.559   3.796  49.616  1.00  0.00    -0.050 Br
HETATM   22  C11 UNL     1      23.529   3.797  48.718  1.00  0.00     0.021 A 
HETATM   23  C12 UNL     1      22.796   3.045  49.508  1.00  0.00     0.014 A 
ENDBRANCH   7  19
TORSDOF 4
ENDMDL
MODEL 7
REMARK VINA RESULT:      -7.6      2.744      4.837
REMARK  4 active torsions:
REMARK  status: ('A' for Active; 'I' for Inactive)
REMARK    1  A    between atoms: C2_2  and  N1_3 
REMARK    2  A    between atoms: C2_2  and  C13_16 
REMARK    3  A    between atoms: N1_3  and  C3_4 
REMARK    4  A    between atoms: C8_10  and  C9_11 
ROOT
HETATM    1  C3  UNL     1      22.590   2.121  51.849  1.00  0.00     0.129 A 
HETATM    2  N2  UNL     1      21.440   2.339  52.323  1.00  0.00    -0.269 NA
HETATM    3  C4  UNL     1      20.654   3.523  52.271  1.00  0.00     0.178 A 
HETATM    4  C5  UNL     1      21.253   4.663  51.571  1.00  0.00    -0.004 A 
HETATM    5  C6  UNL     1      22.444   4.478  51.066  1.00  0.00     0.013 A 
HETATM    6  C7  UNL     1      23.224   3.251  51.135  1.00  0.00     0.010 A 
HETATM    7  C8  UNL     1      24.419   3.074  50.612  1.00  0.00     0.028 C 
ENDROOT
BRANCH   1   8
HETATM    8  N1  UNL     1      23.232   0.843  52.007  1.00  0.00    -0.366 N 
HETATM    9  H5  UNL     1      23.225   0.264  51.138  1.00  0.00     0.161 HD
BRANCH   8  10
HETATM   10  C2  UNL     1      23.794   0.516  53.297  1.00  0.00     0.112 C 
HETATM   11  C1  UNL     1      23.208  -0.760  53.842  1.00  0.00     0.037 C 
BRANCH  10  12
HETATM   12  C13 UNL     1      25.252   0.542  53.329  1.00  0.00    -0.036 A 
HETATM   13  C14 UNL     1      25.993  -0.603  53.069  1.00  0.00     0.012 A 
HETATM   14  C15 UNL     1      27.368  -0.656  53.079  1.00  0.00     0.043 A 
HETATM   15  C16 UNL     1      28.069   0.497  53.367  1.00  0.00     0.116 A 
HETATM   16  F1  UNL     1      29.426   0.569  53.407  1.00  0.00    -0.206 F 
HETATM   17  C17 UNL     1      27.404   1.683  53.637  1.00  0.00     0.043 A 
HETATM   18  C18 UNL     1      26.031   1.666  53.610  1.00  0.00     0.012 A 
ENDBRANCH  10  12
ENDBRANCH   8  10
ENDBRANCH   1   8
BRANCH   7  19
HETATM   19  C9  UNL     1      25.371   3.879  49.860  1.00  0.00    -0.018 A 
HETATM   20  C10 UNL     1      25.550   4.953  49.119  1.00  0.00     0.021 A 
HETATM   21 BR1  UNL     1      24.269   6.261  48.580  1.00  0.00    -0.050 Br
HETATM   22  C11 UNL     1      26.969   4.664  48.959  1.00  0.00     0.021 A 
HETATM   23  C12 UNL     1      26.790   3.593  49.699  1.00  0.00     0.014 A 
ENDBRANCH   7  19
TORSDOF 4
ENDMDL
MODEL 8
REMARK VINA RESULT:      -7.3      3.162      5.474
REMARK  4 active torsions:
REMARK  status: ('A' for Active; 'I' for Inactive)
REMARK    1  A    between atoms: C2_2  and  N1_3 
REMARK    2  A    between atoms: C2_2  and  C13_16 
REMARK    3  A    between atoms: N1_3  and  C3_4 
REMARK    4  A    between atoms: C8_10  and  C9_11 
ROOT
HETATM    1  C3  UNL     1      26.560   2.314  51.485  1.00  0.00     0.129 A 
HETATM    2  N2  UNL     1      27.612   2.371  52.182  1.00  0.00    -0.269 NA
HETATM    3  C4  UNL     1      27.841   1.908  53.506  1.00  0.00     0.178 A 
HETATM    4  C5  UNL     1      26.700   1.273  54.172  1.00  0.00    -0.004 A 
HETATM    5  C6  UNL     1      25.591   1.194  53.484  1.00  0.00     0.013 A 
HETATM    6  C7  UNL     1      25.389   1.677  52.127  1.00  0.00     0.010 A 
HETATM    7  C8  UNL     1      24.270   1.583  51.440  1.00  0.00     0.028 C 
ENDROOT
BRANCH   1   8
HETATM    8  N1  UNL     1      26.522   2.845  50.148  1.00  0.00    -0.366 N 
HETATM    9  H5  UNL     1      26.703   2.128  49.411  1.00  0.00     0.161 HD
BRANCH   8  10
HETATM   10  C2  UNL     1      26.244   4.253  49.980  1.00  0.00     0.112 C 
HETATM   11  C1  UNL     1      27.030   4.832  48.833  1.00  0.00     0.037 C 
BRANCH  10  12
HETATM   12  C13 UNL     1      24.823   4.571  49.926  1.00  0.00    -0.036 A 
HETATM   13  C14 UNL     1      24.215   5.310  50.933  1.00  0.00     0.012 A 
HETATM   14  C15 UNL     1      22.882   5.650  50.951  1.00  0.00     0.043 A 
HETATM   15  C16 UNL     1      22.084   5.234  49.905  1.00  0.00     0.116 A 
HETATM   16  F1  UNL     1      20.755   5.507  49.811  1.00  0.00    -0.206 F 
HETATM   17  C17 UNL     1      22.612   4.493  48.859  1.00  0.00     0.043 A 
HETATM   18  C18 UNL     1      23.951   4.189  48.904  1.00  0.00     0.012 A 
ENDBRANCH  10  12
ENDBRANCH   8  10
ENDBRANCH   1   8
BRANCH   7  19
HETATM   19  C9  UNL     1      22.933   1.055  51.670  1.00  0.00    -0.018 A 
HETATM   20  C10 UNL     1      22.177   0.278  52.419  1.00  0.00     0.021 A 
HETATM   21 BR1  UNL     1      22.673  -0.768  53.938  1.00  0.00    -0.050 Br
HETATM   22  C11 UNL     1      20.995   0.581  51.624  1.00  0.00     0.021 A 
HETATM   23  C12 UNL     1      21.748   1.357  50.878  1.00  0.00     0.014 A 
ENDBRANCH   7  19
TORSDOF 4
ENDMDL
MODEL 9
REMARK VINA RESULT:      -7.3      2.325      3.451
REMARK  4 active torsions:
REMARK  status: ('A' for Active; 'I' for Inactive)
REMARK    1  A    between atoms: C2_2  and  N1_3 
REMARK    2  A    between atoms: C2_2  and  C13_16 
REMARK    3  A    between atoms: N1_3  and  C3_4 
REMARK    4  A    between atoms: C8_10  and  C9_11 
ROOT
HETATM    1  C3  UNL     1      25.634   2.988  50.401  1.00  0.00     0.129 A 
HETATM    2  N2  UNL     1      26.368   3.958  50.060  1.00  0.00    -0.269 NA
HETATM    3  C4  UNL     1      26.024   5.142  49.352  1.00  0.00     0.178 A 
HETATM    4  C5  UNL     1      24.619   5.267  48.951  1.00  0.00    -0.004 A 
HETATM    5  C6  UNL     1      23.827   4.283  49.285  1.00  0.00     0.013 A 
HETATM    6  C7  UNL     1      24.210   3.083  50.013  1.00  0.00     0.010 A 
HETATM    7  C8  UNL     1      23.399   2.103  50.353  1.00  0.00     0.028 C 
ENDROOT
BRANCH   1   8
HETATM    8  N1  UNL     1      26.172   1.865  51.121  1.00  0.00    -0.366 N 
HETATM    9  H5  UNL     1      26.151   0.973  50.577  1.00  0.00     0.161 HD
BRANCH   8  10
HETATM   10  C2  UNL     1      26.663   2.086  52.462  1.00  0.00     0.112 C 
HETATM   11  C1  UNL     1      25.529   2.268  53.437  1.00  0.00     0.037 C 
BRANCH  10  12
HETATM   12  C13 UNL     1      27.647   1.103  52.899  1.00  0.00    -0.036 A 
HETATM   13  C14 UNL     1      27.415  -0.258  52.749  1.00  0.00     0.012 A 
HETATM   14  C15 UNL     1      28.295  -1.243  53.136  1.00  0.00     0.043 A 
HETATM   15  C16 UNL     1      29.491  -0.867  53.713  1.00  0.00     0.116 A 
HETATM   16  F1  UNL     1      30.438  -1.746  54.135  1.00  0.00    -0.206 F 
HETATM   17  C17 UNL     1      29.800   0.472  53.898  1.00  0.00     0.043 A 
HETATM   18  C18 UNL     1      28.877   1.403  53.489  1.00  0.00     0.012 A 
ENDBRANCH  10  12
ENDBRANCH   8  10
ENDBRANCH   1   8
BRANCH   7  19
HETATM   19  C9  UNL     1      21.986   1.796  50.185  1.00  0.00    -0.018 A 
HETATM   20  C10 UNL     1      20.813   1.686  50.773  1.00  0.00     0.021 A 
HETATM   21 BR1  UNL     1      20.364   1.963  52.608  1.00  0.00    -0.050 Br
HETATM   22  C11 UNL     1      20.167   1.311  49.522  1.00  0.00     0.021 A 
HETATM   23  C12 UNL     1      21.337   1.422  48.935  1.00  0.00     0.014 A 
ENDBRANCH   7  19
TORSDOF 4
ENDMDL
