MODEL 1
REMARK VINA RESULT:      -8.2      0.000      0.000
REMARK  4 active torsions:
REMARK  status: ('A' for Active; 'I' for Inactive)
REMARK    1  A    between atoms: C2_2  and  C3_3 
REMARK    2  A    between atoms: C3_3  and  C4_4 
REMARK    3  A    between atoms: C7_8  and  N2_9 
REMARK    4  A    between atoms: C14_17  and  N4_18 
REMARK       I    between atoms: N4_18  and  C15_19 
ROOT
HETATM    1  N4  UNL     1      27.402   0.904  52.723  1.00  0.00    -0.315 N 
HETATM    2  C15 UNL     1      28.507   1.191  53.538  1.00  0.00     0.326 C 
HETATM    3  O1  UNL     1      28.580   2.308  54.107  1.00  0.00    -0.256 OA
HETATM    4  C16 UNL     1      29.515   0.158  53.675  1.00  0.00     0.162 C 
HETATM    5  N5  UNL     1      30.315  -0.669  53.801  1.00  0.00    -0.186 NA
HETATM    6  H17 UNL     1      27.330  -0.039  52.237  1.00  0.00     0.170 HD
ENDROOT
BRANCH   1   7
HETATM    7  C14 UNL     1      26.224   1.598  52.324  1.00  0.00     0.033 A 
HETATM    8  C13 UNL     1      26.193   2.237  51.027  1.00  0.00     0.031 A 
HETATM    9  C12 UNL     1      25.155   2.899  50.566  1.00  0.00     0.030 A 
HETATM   10  C11 UNL     1      23.971   3.003  51.386  1.00  0.00     0.046 A 
HETATM   11  N3  UNL     1      22.756   3.503  51.181  1.00  0.00    -0.264 NA
HETATM   12  C18 UNL     1      23.910   2.373  52.756  1.00  0.00     0.095 A 
HETATM   13  C10 UNL     1      22.601   4.035  49.871  1.00  0.00     0.123 C 
HETATM   14  C8  UNL     1      21.898   3.270  49.005  1.00  0.00    -0.015 C 
HETATM   15  C7  UNL     1      21.127   2.062  48.660  1.00  0.00     0.343 C 
HETATM   16  C9  UNL     1      22.067   4.127  47.771  1.00  0.00     0.049 C 
HETATM   17  N1  UNL     1      20.627   1.283  49.685  1.00  0.00    -0.387 N 
HETATM   18  C6  UNL     1      21.321   0.462  50.553  1.00  0.00     0.144 C 
HETATM   19  H7  UNL     1      19.752   1.671  50.090  1.00  0.00     0.155 HD
HETATM   20  C5  UNL     1      22.208   1.099  51.551  1.00  0.00     0.001 C 
HETATM   21  C4  UNL     1      22.701   1.458  52.756  1.00  0.00    -0.040 C 
HETATM   22  C17 UNL     1      25.147   1.678  53.106  1.00  0.00     0.018 A 
BRANCH  15  23
HETATM   23  N2  UNL     1      20.037   2.456  47.734  1.00  0.00     0.105 N 
HETATM   24  H9  UNL     1      20.338   2.167  46.794  1.00  0.00     0.315 HD
HETATM   25  H10 UNL     1      19.149   2.002  47.980  1.00  0.00     0.315 HD
ENDBRANCH  15  23
BRANCH  21  26
HETATM   26  C3  UNL     1      21.657   0.702  53.344  1.00  0.00     0.058 C 
BRANCH  26  27
HETATM   27  C2  UNL     1      21.895  -0.265  54.218  1.00  0.00    -0.154 C 
HETATM   28  C1  UNL     1      22.437  -1.196  54.990  1.00  0.00     0.096 C 
ENDBRANCH  26  27
ENDBRANCH  21  26
ENDBRANCH   1   7
TORSDOF 4
ENDMDL
MODEL 2
REMARK VINA RESULT:      -8.0      2.538      4.987
REMARK  4 active torsions:
REMARK  status: ('A' for Active; 'I' for Inactive)
REMARK    1  A    between atoms: C2_2  and  C3_3 
REMARK    2  A    between atoms: C3_3  and  C4_4 
REMARK    3  A    between atoms: C7_8  and  N2_9 
REMARK    4  A    between atoms: C14_17  and  N4_18 
REMARK       I    between atoms: N4_18  and  C15_19 
ROOT
HETATM    1  N4  UNL     1      27.126   1.150  52.240  1.00  0.00    -0.315 N 
HETATM    2  C15 UNL     1      27.865   1.402  53.405  1.00  0.00     0.326 C 
HETATM    3  O1  UNL     1      27.728   2.502  53.996  1.00  0.00    -0.256 OA
HETATM    4  C16 UNL     1      28.756   0.355  53.865  1.00  0.00     0.162 C 
HETATM    5  N5  UNL     1      29.458  -0.483  54.246  1.00  0.00    -0.186 NA
HETATM    6  H17 UNL     1      27.235   0.221  51.732  1.00  0.00     0.170 HD
ENDROOT
BRANCH   1   7
HETATM    7  C14 UNL     1      26.171   1.867  51.464  1.00  0.00     0.033 A 
HETATM    8  C13 UNL     1      24.795   1.903  51.906  1.00  0.00     0.031 A 
HETATM    9  C12 UNL     1      23.841   2.538  51.262  1.00  0.00     0.030 A 
HETATM   10  C11 UNL     1      24.166   3.244  50.046  1.00  0.00     0.046 A 
HETATM   11  N3  UNL     1      23.475   4.041  49.236  1.00  0.00    -0.264 NA
HETATM   12  C18 UNL     1      25.575   3.261  49.504  1.00  0.00     0.095 A 
HETATM   13  C10 UNL     1      22.137   4.237  49.678  1.00  0.00     0.123 C 
HETATM   14  C8  UNL     1      21.881   5.428  50.266  1.00  0.00    -0.015 C 
HETATM   15  C7  UNL     1      22.285   6.764  50.737  1.00  0.00     0.343 C 
HETATM   16  C9  UNL     1      20.442   5.173  50.656  1.00  0.00     0.049 C 
HETATM   17  N1  UNL     1      23.461   7.306  50.255  1.00  0.00    -0.387 N 
HETATM   18  C6  UNL     1      24.758   6.929  50.546  1.00  0.00     0.144 C 
HETATM   19  H7  UNL     1      23.350   7.722  49.310  1.00  0.00     0.155 HD
HETATM   20  C5  UNL     1      25.228   5.619  50.045  1.00  0.00     0.001 C 
HETATM   21  C4  UNL     1      25.963   4.719  49.356  1.00  0.00    -0.040 C 
HETATM   22  C17 UNL     1      26.504   2.508  50.343  1.00  0.00     0.018 A 
BRANCH  15  23
HETATM   23  N2  UNL     1      21.156   7.699  50.507  1.00  0.00     0.105 N 
HETATM   24  H9  UNL     1      21.468   8.618  50.845  1.00  0.00     0.315 HD
HETATM   25  H10 UNL     1      20.905   7.751  49.512  1.00  0.00     0.315 HD
ENDBRANCH  15  23
BRANCH  21  26
HETATM   26  C3  UNL     1      26.708   5.808  48.841  1.00  0.00     0.058 C 
BRANCH  26  27
HETATM   27  C2  UNL     1      27.987   5.694  48.514  1.00  0.00    -0.154 C 
HETATM   28  C1  UNL     1      29.187   5.270  48.145  1.00  0.00     0.096 C 
ENDBRANCH  26  27
ENDBRANCH  21  26
ENDBRANCH   1   7
TORSDOF 4
ENDMDL
MODEL 3
REMARK VINA RESULT:      -7.2      3.880      7.022
REMARK  4 active torsions:
REMARK  status: ('A' for Active; 'I' for Inactive)
REMARK    1  A    between atoms: C2_2  and  C3_3 
REMARK    2  A    between atoms: C3_3  and  C4_4 
REMARK    3  A    between atoms: C7_8  and  N2_9 
REMARK    4  A    between atoms: C14_17  and  N4_18 
REMARK       I    between atoms: N4_18  and  C15_19 
ROOT
HETATM    1  N4  UNL     1      17.696   1.089  51.943  1.00  0.00    -0.315 N 
HETATM    2  C15 UNL     1      16.424   0.705  51.492  1.00  0.00     0.326 C 
HETATM    3  O1  UNL     1      16.254   0.443  50.276  1.00  0.00    -0.256 OA
HETATM    4  C16 UNL     1      15.365   0.633  52.480  1.00  0.00     0.162 C 
HETATM    5  N5  UNL     1      14.519   0.557  53.266  1.00  0.00    -0.186 NA
HETATM    6  H17 UNL     1      17.850   1.313  52.971  1.00  0.00     0.170 HD
ENDROOT
BRANCH   1   7
HETATM    7  C14 UNL     1      18.973   1.283  51.343  1.00  0.00     0.033 A 
HETATM    8  C13 UNL     1      19.183   2.439  50.500  1.00  0.00     0.031 A 
HETATM    9  C12 UNL     1      20.324   2.707  49.904  1.00  0.00     0.030 A 
HETATM   10  C11 UNL     1      21.439   1.810  50.091  1.00  0.00     0.046 A 
HETATM   11  N3  UNL     1      22.716   1.846  49.719  1.00  0.00    -0.264 NA
HETATM   12  C18 UNL     1      21.315   0.575  50.950  1.00  0.00     0.095 A 
HETATM   13  C10 UNL     1      23.037   3.026  48.994  1.00  0.00     0.123 C 
HETATM   14  C8  UNL     1      23.720   3.971  49.681  1.00  0.00    -0.015 C 
HETATM   15  C7  UNL     1      24.376   4.480  50.898  1.00  0.00     0.343 C 
HETATM   16  C9  UNL     1      23.751   5.038  48.610  1.00  0.00     0.049 C 
HETATM   17  N1  UNL     1      24.699   3.583  51.897  1.00  0.00    -0.387 N 
HETATM   18  C6  UNL     1      23.847   2.923  52.763  1.00  0.00     0.144 C 
HETATM   19  H7  UNL     1      25.575   3.062  51.698  1.00  0.00     0.155 HD
HETATM   20  C5  UNL     1      22.959   1.883  52.200  1.00  0.00     0.001 C 
HETATM   21  C4  UNL     1      22.410   0.665  51.995  1.00  0.00    -0.040 C 
HETATM   22  C17 UNL     1      19.983   0.434  51.534  1.00  0.00     0.018 A 
BRANCH  15  23
HETATM   23  N2  UNL     1      25.577   5.250  50.491  1.00  0.00     0.105 N 
HETATM   24  H9  UNL     1      26.042   4.696  49.760  1.00  0.00     0.315 HD
HETATM   25  H10 UNL     1      25.325   6.179  50.129  1.00  0.00     0.315 HD
ENDBRANCH  15  23
BRANCH  21  26
HETATM   26  C3  UNL     1      23.310   0.160  52.965  1.00  0.00     0.058 C 
BRANCH  26  27
HETATM   27  C2  UNL     1      22.908  -0.616  53.961  1.00  0.00    -0.154 C 
HETATM   28  C1  UNL     1      22.228  -1.231  54.918  1.00  0.00     0.096 C 
ENDBRANCH  26  27
ENDBRANCH  21  26
ENDBRANCH   1   7
TORSDOF 4
ENDMDL
MODEL 4
REMARK VINA RESULT:      -7.0      3.538      6.431
REMARK  4 active torsions:
REMARK  status: ('A' for Active; 'I' for Inactive)
REMARK    1  A    between atoms: C2_2  and  C3_3 
REMARK    2  A    between atoms: C3_3  and  C4_4 
REMARK    3  A    between atoms: C7_8  and  N2_9 
REMARK    4  A    between atoms: C14_17  and  N4_18 
REMARK       I    between atoms: N4_18  and  C15_19 
ROOT
HETATM    1  N4  UNL     1      18.865   0.159  51.317  1.00  0.00    -0.315 N 
HETATM    2  C15 UNL     1      18.560  -0.539  52.495  1.00  0.00     0.326 C 
HETATM    3  O1  UNL     1      19.361  -0.495  53.462  1.00  0.00    -0.256 OA
HETATM    4  C16 UNL     1      17.315  -1.281  52.523  1.00  0.00     0.162 C 
HETATM    5  N5  UNL     1      16.314  -1.861  52.557  1.00  0.00    -0.186 NA
HETATM    6  H17 UNL     1      18.194   0.129  50.493  1.00  0.00     0.170 HD
ENDROOT
BRANCH   1   7
HETATM    7  C14 UNL     1      19.936   0.984  50.871  1.00  0.00     0.033 A 
HETATM    8  C13 UNL     1      19.633   2.275  50.294  1.00  0.00     0.031 A 
HETATM    9  C12 UNL     1      20.550   3.109  49.855  1.00  0.00     0.030 A 
HETATM   10  C11 UNL     1      21.941   2.732  49.946  1.00  0.00     0.046 A 
HETATM   11  N3  UNL     1      23.081   3.368  49.690  1.00  0.00    -0.264 NA
HETATM   12  C18 UNL     1      22.355   1.403  50.529  1.00  0.00     0.095 A 
HETATM   13  C10 UNL     1      22.870   4.701  49.242  1.00  0.00     0.123 C 
HETATM   14  C8  UNL     1      23.105   5.671  50.155  1.00  0.00    -0.015 C 
HETATM   15  C7  UNL     1      23.504   6.131  51.498  1.00  0.00     0.343 C 
HETATM   16  C9  UNL     1      22.673   6.859  49.325  1.00  0.00     0.049 C 
HETATM   17  N1  UNL     1      24.184   5.256  52.320  1.00  0.00    -0.387 N 
HETATM   18  C6  UNL     1      23.697   4.135  52.966  1.00  0.00     0.144 C 
HETATM   19  H7  UNL     1      25.195   5.196  52.090  1.00  0.00     0.155 HD
HETATM   20  C5  UNL     1      23.317   2.969  52.140  1.00  0.00     0.001 C 
HETATM   21  C4  UNL     1      23.325   1.709  51.653  1.00  0.00    -0.040 C 
HETATM   22  C17 UNL     1      21.211   0.606  50.967  1.00  0.00     0.018 A 
BRANCH  15  23
HETATM   23  N2  UNL     1      24.267   7.395  51.347  1.00  0.00     0.105 N 
HETATM   24  H9  UNL     1      23.963   8.009  52.113  1.00  0.00     0.315 HD
HETATM   25  H10 UNL     1      25.280   7.233  51.400  1.00  0.00     0.315 HD
ENDBRANCH  15  23
BRANCH  21  26
HETATM   26  C3  UNL     1      24.366   1.422  52.570  1.00  0.00     0.058 C 
BRANCH  26  27
HETATM   27  C2  UNL     1      25.449   0.746  52.217  1.00  0.00    -0.154 C 
HETATM   28  C1  UNL     1      26.442  -0.125  52.107  1.00  0.00     0.096 C 
ENDBRANCH  26  27
ENDBRANCH  21  26
ENDBRANCH   1   7
TORSDOF 4
ENDMDL
MODEL 5
REMARK VINA RESULT:      -7.0      3.679      4.797
REMARK  4 active torsions:
REMARK  status: ('A' for Active; 'I' for Inactive)
REMARK    1  A    between atoms: C2_2  and  C3_3 
REMARK    2  A    between atoms: C3_3  and  C4_4 
REMARK    3  A    between atoms: C7_8  and  N2_9 
REMARK    4  A    between atoms: C14_17  and  N4_18 
REMARK       I    between atoms: N4_18  and  C15_19 
ROOT
HETATM    1  N4  UNL     1      24.811   7.054  51.094  1.00  0.00    -0.315 N 
HETATM    2  C15 UNL     1      25.765   7.180  50.074  1.00  0.00     0.326 C 
HETATM    3  O1  UNL     1      25.794   6.331  49.148  1.00  0.00    -0.256 OA
HETATM    4  C16 UNL     1      26.676   8.305  50.153  1.00  0.00     0.162 C 
HETATM    5  N5  UNL     1      27.395   9.211  50.201  1.00  0.00    -0.186 NA
HETATM    6  H17 UNL     1      24.779   7.768  51.882  1.00  0.00     0.170 HD
ENDROOT
BRANCH   1   7
HETATM    7  C14 UNL     1      23.763   6.140  51.401  1.00  0.00     0.033 A 
HETATM    8  C13 UNL     1      22.422   6.434  50.949  1.00  0.00     0.031 A 
HETATM    9  C12 UNL     1      21.389   5.654  51.180  1.00  0.00     0.030 A 
HETATM   10  C11 UNL     1      21.586   4.433  51.924  1.00  0.00     0.046 A 
HETATM   11  N3  UNL     1      20.793   3.410  52.232  1.00  0.00    -0.264 NA
HETATM   12  C18 UNL     1      22.949   4.042  52.440  1.00  0.00     0.095 A 
HETATM   13  C10 UNL     1      19.481   3.561  51.705  1.00  0.00     0.123 C 
HETATM   14  C8  UNL     1      19.197   2.815  50.613  1.00  0.00    -0.015 C 
HETATM   15  C7  UNL     1      19.555   1.830  49.576  1.00  0.00     0.343 C 
HETATM   16  C9  UNL     1      17.808   3.346  50.342  1.00  0.00     0.049 C 
HETATM   17  N1  UNL     1      20.660   1.028  49.782  1.00  0.00    -0.387 N 
HETATM   18  C6  UNL     1      21.995   1.385  49.750  1.00  0.00     0.144 C 
HETATM   19  H7  UNL     1      20.459   0.226  50.410  1.00  0.00     0.155 HD
HETATM   20  C5  UNL     1      22.504   2.259  50.830  1.00  0.00     0.001 C 
HETATM   21  C4  UNL     1      23.240   2.660  51.889  1.00  0.00    -0.040 C 
HETATM   22  C17 UNL     1      23.978   5.020  52.093  1.00  0.00     0.018 A 
BRANCH  15  23
HETATM   23  N2  UNL     1      18.360   0.998  49.295  1.00  0.00     0.105 N 
HETATM   24  H9  UNL     1      17.553   1.515  49.668  1.00  0.00     0.315 HD
HETATM   25  H10 UNL     1      18.242   0.832  48.288  1.00  0.00     0.315 HD
ENDBRANCH  15  23
BRANCH  21  26
HETATM   26  C3  UNL     1      23.882   1.398  51.849  1.00  0.00     0.058 C 
BRANCH  26  27
HETATM   27  C2  UNL     1      23.782   0.526  52.841  1.00  0.00    -0.154 C 
HETATM   28  C1  UNL     1      23.575  -0.542  53.598  1.00  0.00     0.096 C 
ENDBRANCH  26  27
ENDBRANCH  21  26
ENDBRANCH   1   7
TORSDOF 4
ENDMDL
MODEL 6
REMARK VINA RESULT:      -6.8      1.859      2.270
REMARK  4 active torsions:
REMARK  status: ('A' for Active; 'I' for Inactive)
REMARK    1  A    between atoms: C2_2  and  C3_3 
REMARK    2  A    between atoms: C3_3  and  C4_4 
REMARK    3  A    between atoms: C7_8  and  N2_9 
REMARK    4  A    between atoms: C14_17  and  N4_18 
REMARK       I    between atoms: N4_18  and  C15_19 
ROOT
HETATM    1  N4  UNL     1      25.772   1.938  53.456  1.00  0.00    -0.315 N 
HETATM    2  C15 UNL     1      26.551   0.775  53.379  1.00  0.00     0.326 C 
HETATM    3  O1  UNL     1      26.258  -0.110  52.538  1.00  0.00    -0.256 OA
HETATM    4  C16 UNL     1      27.671   0.666  54.294  1.00  0.00     0.162 C 
HETATM    5  N5  UNL     1      28.576   0.581  55.011  1.00  0.00    -0.186 NA
HETATM    6  H17 UNL     1      26.012   2.694  54.165  1.00  0.00     0.170 HD
ENDROOT
BRANCH   1   7
HETATM    7  C14 UNL     1      24.626   2.442  52.777  1.00  0.00     0.033 A 
HETATM    8  C13 UNL     1      24.789   3.533  51.841  1.00  0.00     0.031 A 
HETATM    9  C12 UNL     1      23.795   4.065  51.165  1.00  0.00     0.030 A 
HETATM   10  C11 UNL     1      22.462   3.546  51.353  1.00  0.00     0.046 A 
HETATM   11  N3  UNL     1      21.292   3.790  50.768  1.00  0.00    -0.264 NA
HETATM   12  C18 UNL     1      22.192   2.412  52.311  1.00  0.00     0.095 A 
HETATM   13  C10 UNL     1      21.394   4.763  49.736  1.00  0.00     0.123 C 
HETATM   14  C8  UNL     1      21.370   4.283  48.471  1.00  0.00    -0.015 C 
HETATM   15  C7  UNL     1      21.284   3.182  47.495  1.00  0.00     0.343 C 
HETATM   16  C9  UNL     1      21.601   5.586  47.740  1.00  0.00     0.049 C 
HETATM   17  N1  UNL     1      20.808   1.958  47.921  1.00  0.00    -0.387 N 
HETATM   18  C6  UNL     1      21.430   1.037  48.742  1.00  0.00     0.144 C 
HETATM   19  H7  UNL     1      19.771   1.931  47.976  1.00  0.00     0.155 HD
HETATM   20  C5  UNL     1      21.615   1.393  50.166  1.00  0.00     0.001 C 
HETATM   21  C4  UNL     1      21.500   1.326  51.510  1.00  0.00    -0.040 C 
HETATM   22  C17 UNL     1      23.406   1.941  52.975  1.00  0.00     0.018 A 
BRANCH  15  23
HETATM   23  N2  UNL     1      20.504   3.659  46.326  1.00  0.00     0.105 N 
HETATM   24  H9  UNL     1      20.974   3.284  45.492  1.00  0.00     0.315 HD
HETATM   25  H10 UNL     1      19.530   3.335  46.363  1.00  0.00     0.315 HD
ENDBRANCH  15  23
BRANCH  21  26
HETATM   26  C3  UNL     1      20.693   0.177  51.327  1.00  0.00     0.058 C 
BRANCH  26  27
HETATM   27  C2  UNL     1      19.428   0.134  51.720  1.00  0.00    -0.154 C 
HETATM   28  C1  UNL     1      18.239  -0.215  52.188  1.00  0.00     0.096 C 
ENDBRANCH  26  27
ENDBRANCH  21  26
ENDBRANCH   1   7
TORSDOF 4
ENDMDL
MODEL 7
REMARK VINA RESULT:      -6.6      3.435      5.451
REMARK  4 active torsions:
REMARK  status: ('A' for Active; 'I' for Inactive)
REMARK    1  A    between atoms: C2_2  and  C3_3 
REMARK    2  A    between atoms: C3_3  and  C4_4 
REMARK    3  A    between atoms: C7_8  and  N2_9 
REMARK    4  A    between atoms: C14_17  and  N4_18 
REMARK       I    between atoms: N4_18  and  C15_19 
ROOT
HETATM    1  N4  UNL     1      22.876  -0.299  53.889  1.00  0.00    -0.315 N 
HETATM    2  C15 UNL     1      23.066  -1.205  54.942  1.00  0.00     0.326 C 
HETATM    3  O1  UNL     1      22.136  -1.990  55.255  1.00  0.00    -0.256 OA
HETATM    4  C16 UNL     1      24.350  -1.180  55.616  1.00  0.00     0.162 C 
HETATM    5  N5  UNL     1      25.378  -1.175  56.146  1.00  0.00    -0.186 NA
HETATM    6  H17 UNL     1      23.656   0.370  53.616  1.00  0.00     0.170 HD
ENDROOT
BRANCH   1   7
HETATM    7  C14 UNL     1      21.816   0.008  52.989  1.00  0.00     0.033 A 
HETATM    8  C13 UNL     1      20.455  -0.003  53.478  1.00  0.00     0.031 A 
HETATM    9  C12 UNL     1      19.410   0.268  52.728  1.00  0.00     0.030 A 
HETATM   10  C11 UNL     1      19.613   0.598  51.337  1.00  0.00     0.046 A 
HETATM   11  N3  UNL     1      18.802   1.004  50.364  1.00  0.00    -0.264 NA
HETATM   12  C18 UNL     1      20.996   0.632  50.734  1.00  0.00     0.095 A 
HETATM   13  C10 UNL     1      17.457   1.149  50.803  1.00  0.00     0.123 C 
HETATM   14  C8  UNL     1      17.040   2.418  51.013  1.00  0.00    -0.015 C 
HETATM   15  C7  UNL     1      17.254   3.876  51.028  1.00  0.00     0.343 C 
HETATM   16  C9  UNL     1      15.659   2.108  51.545  1.00  0.00     0.049 C 
HETATM   17  N1  UNL     1      18.332   4.392  50.336  1.00  0.00    -0.387 N 
HETATM   18  C6  UNL     1      19.674   4.300  50.651  1.00  0.00     0.144 C 
HETATM   19  H7  UNL     1      18.149   4.475  49.317  1.00  0.00     0.155 HD
HETATM   20  C5  UNL     1      20.321   2.973  50.548  1.00  0.00     0.001 C 
HETATM   21  C4  UNL     1      21.168   2.010  50.126  1.00  0.00    -0.040 C 
HETATM   22  C17 UNL     1      22.036   0.307  51.708  1.00  0.00     0.018 A 
BRANCH  15  23
HETATM   23  N2  UNL     1      15.999   4.534  50.590  1.00  0.00     0.105 N 
HETATM   24  H9  UNL     1      16.021   5.487  50.977  1.00  0.00     0.315 HD
HETATM   25  H10 UNL     1      15.925   4.567  49.566  1.00  0.00     0.315 HD
ENDBRANCH  15  23
BRANCH  21  26
HETATM   26  C3  UNL     1      21.740   2.973  49.260  1.00  0.00     0.058 C 
BRANCH  26  27
HETATM   27  C2  UNL     1      23.027   3.286  49.306  1.00  0.00    -0.154 C 
HETATM   28  C1  UNL     1      24.350   3.279  49.386  1.00  0.00     0.096 C 
ENDBRANCH  26  27
ENDBRANCH  21  26
ENDBRANCH   1   7
TORSDOF 4
ENDMDL
MODEL 8
REMARK VINA RESULT:      -6.6      7.353      9.821
REMARK  4 active torsions:
REMARK  status: ('A' for Active; 'I' for Inactive)
REMARK    1  A    between atoms: C2_2  and  C3_3 
REMARK    2  A    between atoms: C3_3  and  C4_4 
REMARK    3  A    between atoms: C7_8  and  N2_9 
REMARK    4  A    between atoms: C14_17  and  N4_18 
REMARK       I    between atoms: N4_18  and  C15_19 
ROOT
HETATM    1  N4  UNL     1      26.117   5.067  50.133  1.00  0.00    -0.315 N 
HETATM    2  C15 UNL     1      24.943   4.301  50.115  1.00  0.00     0.326 C 
HETATM    3  O1  UNL     1      24.042   4.572  49.282  1.00  0.00    -0.256 OA
HETATM    4  C16 UNL     1      24.841   3.220  51.076  1.00  0.00     0.162 C 
HETATM    5  N5  UNL     1      24.761   2.346  51.831  1.00  0.00    -0.186 NA
HETATM    6  H17 UNL     1      26.885   4.845  50.834  1.00  0.00     0.170 HD
ENDROOT
BRANCH   1   7
HETATM    7  C14 UNL     1      26.619   6.178  49.398  1.00  0.00     0.033 A 
HETATM    8  C13 UNL     1      26.209   7.512  49.775  1.00  0.00     0.031 A 
HETATM    9  C12 UNL     1      26.618   8.600  49.161  1.00  0.00     0.030 A 
HETATM   10  C11 UNL     1      27.527   8.476  48.047  1.00  0.00     0.046 A 
HETATM   11  N3  UNL     1      28.185   9.357  47.298  1.00  0.00    -0.264 NA
HETATM   12  C18 UNL     1      28.009   7.125  47.577  1.00  0.00     0.095 A 
HETATM   13  C10 UNL     1      27.937  10.700  47.696  1.00  0.00     0.123 C 
HETATM   14  C8  UNL     1      28.927  11.297  48.398  1.00  0.00    -0.015 C 
HETATM   15  C7  UNL     1      30.257  11.302  49.033  1.00  0.00     0.343 C 
HETATM   16  C9  UNL     1      28.228  12.606  48.689  1.00  0.00     0.049 C 
HETATM   17  N1  UNL     1      31.164  10.326  48.670  1.00  0.00    -0.387 N 
HETATM   18  C6  UNL     1      31.141   8.979  48.977  1.00  0.00     0.144 C 
HETATM   19  H7  UNL     1      31.641  10.539  47.772  1.00  0.00     0.155 HD
HETATM   20  C5  UNL     1      30.088   8.145  48.358  1.00  0.00     0.001 C 
HETATM   21  C4  UNL     1      29.524   7.172  47.609  1.00  0.00    -0.040 C 
HETATM   22  C17 UNL     1      27.458   6.029  48.371  1.00  0.00     0.018 A 
BRANCH  15  23
HETATM   23  N2  UNL     1      30.851  12.649  48.854  1.00  0.00     0.105 N 
HETATM   24  H9  UNL     1      31.413  12.606  47.994  1.00  0.00     0.315 HD
HETATM   25  H10 UNL     1      30.128  13.374  48.772  1.00  0.00     0.315 HD
ENDBRANCH  15  23
BRANCH  21  26
HETATM   26  C3  UNL     1      30.833   6.766  47.253  1.00  0.00     0.058 C 
BRANCH  26  27
HETATM   27  C2  UNL     1      31.263   5.527  47.444  1.00  0.00    -0.154 C 
HETATM   28  C1  UNL     1      31.558   4.239  47.345  1.00  0.00     0.096 C 
ENDBRANCH  26  27
ENDBRANCH  21  26
ENDBRANCH   1   7
TORSDOF 4
ENDMDL
MODEL 9
REMARK VINA RESULT:      -6.4      8.520     10.085
REMARK  4 active torsions:
REMARK  status: ('A' for Active; 'I' for Inactive)
REMARK    1  A    between atoms: C2_2  and  C3_3 
REMARK    2  A    between atoms: C3_3  and  C4_4 
REMARK    3  A    between atoms: C7_8  and  N2_9 
REMARK    4  A    between atoms: C14_17  and  N4_18 
REMARK       I    between atoms: N4_18  and  C15_19 
ROOT
HETATM    1  N4  UNL     1      33.326   5.520  47.110  1.00  0.00    -0.315 N 
HETATM    2  C15 UNL     1      33.551   5.010  45.823  1.00  0.00     0.326 C 
HETATM    3  O1  UNL     1      32.845   5.416  44.866  1.00  0.00    -0.256 OA
HETATM    4  C16 UNL     1      34.605   4.026  45.675  1.00  0.00     0.162 C 
HETATM    5  N5  UNL     1      35.457   3.252  45.548  1.00  0.00    -0.186 NA
HETATM    6  H17 UNL     1      33.918   5.183  47.926  1.00  0.00     0.170 HD
ENDROOT
BRANCH   1   7
HETATM    7  C14 UNL     1      32.430   6.465  47.688  1.00  0.00     0.033 A 
HETATM    8  C13 UNL     1      32.752   7.873  47.614  1.00  0.00     0.031 A 
HETATM    9  C12 UNL     1      31.991   8.820  48.115  1.00  0.00     0.030 A 
HETATM   10  C11 UNL     1      30.762   8.454  48.779  1.00  0.00     0.046 A 
HETATM   11  N3  UNL     1      29.754   9.154  49.290  1.00  0.00    -0.264 NA
HETATM   12  C18 UNL     1      30.343   7.010  48.909  1.00  0.00     0.095 A 
HETATM   13  C10 UNL     1      29.932  10.557  49.135  1.00  0.00     0.123 C 
HETATM   14  C8  UNL     1      29.197  11.139  48.160  1.00  0.00    -0.015 C 
HETATM   15  C7  UNL     1      28.211  11.093  47.066  1.00  0.00     0.343 C 
HETATM   16  C9  UNL     1      29.756  12.540  48.274  1.00  0.00     0.049 C 
HETATM   17  N1  UNL     1      27.386   9.990  46.967  1.00  0.00    -0.387 N 
HETATM   18  C6  UNL     1      27.718   8.706  46.577  1.00  0.00     0.144 C 
HETATM   19  H7  UNL     1      26.585  10.030  47.627  1.00  0.00     0.155 HD
HETATM   20  C5  UNL     1      28.576   7.908  47.479  1.00  0.00     0.001 C 
HETATM   21  C4  UNL     1      28.959   6.906  48.301  1.00  0.00    -0.040 C 
HETATM   22  C17 UNL     1      31.303   6.094  48.297  1.00  0.00     0.018 A 
BRANCH  15  23
HETATM   23  N2  UNL     1      27.403  12.337  47.118  1.00  0.00     0.105 N 
HETATM   24  H9  UNL     1      26.565  12.114  47.669  1.00  0.00     0.315 HD
HETATM   25  H10 UNL     1      27.923  13.108  47.554  1.00  0.00     0.315 HD
ENDBRANCH  15  23
BRANCH  21  26
HETATM   26  C3  UNL     1      27.685   6.324  48.090  1.00  0.00     0.058 C 
BRANCH  26  27
HETATM   27  C2  UNL     1      27.362   5.138  48.584  1.00  0.00    -0.154 C 
HETATM   28  C1  UNL     1      26.923   4.129  49.323  1.00  0.00     0.096 C 
ENDBRANCH  26  27
ENDBRANCH  21  26
ENDBRANCH   1   7
TORSDOF 4
ENDMDL
