MODEL 1
REMARK VINA RESULT:      -8.3      0.000      0.000
REMARK  5 active torsions:
REMARK  status: ('A' for Active; 'I' for Inactive)
REMARK    1  A    between atoms: O1_2  and  C2_3 
REMARK    2  A    between atoms: C6_9  and  N3_10 
REMARK    3  A    between atoms: N3_10  and  C7_11 
REMARK    4  A    between atoms: N4_23  and  C16_24 
REMARK    5  A    between atoms: C16_24  and  O3_25 
ROOT
HETATM    1  C2  UNL     1      23.881  -0.275  53.531  1.00  0.00     0.074 C 
HETATM    2  C3  UNL     1      24.137   0.615  52.531  1.00  0.00     0.164 C 
HETATM    3  C4  UNL     1      23.617   1.725  51.747  1.00  0.00     0.081 A 
HETATM    4  N1  UNL     1      22.484   2.373  51.485  1.00  0.00    -0.243 NA
HETATM    5  C5  UNL     1      22.378   3.396  50.651  1.00  0.00     0.235 A 
HETATM    6  N2  UNL     1      23.528   3.750  50.066  1.00  0.00    -0.221 NA
HETATM    7  C6  UNL     1      24.700   3.096  50.322  1.00  0.00     0.165 A 
HETATM    8  C13 UNL     1      24.840   2.010  51.201  1.00  0.00     0.140 A 
HETATM    9  O2  UNL     1      26.213   1.795  51.042  1.00  0.00    -0.344 OA
HETATM   10  C14 UNL     1      27.159   2.440  51.815  1.00  0.00     0.206 C 
HETATM   11  C15 UNL     1      27.167   2.070  53.252  1.00  0.00     0.301 C 
HETATM   12  N4  UNL     1      27.559   0.714  53.554  1.00  0.00     0.115 N 
HETATM   13  C17 UNL     1      27.456   0.324  54.899  1.00  0.00     0.301 C 
HETATM   14  C18 UNL     1      26.159  -0.037  55.520  1.00  0.00     0.198 C 
HETATM   15  O4  UNL     1      25.540  -1.119  55.017  1.00  0.00    -0.387 OA
HETATM   16  C19 UNL     1      25.048  -1.190  53.772  1.00  0.00     0.200 C 
ENDROOT
BRANCH   7  17
HETATM   17  N3  UNL     1      25.704   3.753  49.516  1.00  0.00    -0.339 N 
HETATM   18  H6  UNL     1      26.329   3.249  48.838  1.00  0.00     0.167 HD
BRANCH  17  19
HETATM   19  C7  UNL     1      26.015   5.126  49.505  1.00  0.00     0.035 A 
HETATM   20  C8  UNL     1      25.363   6.081  50.253  1.00  0.00     0.032 A 
HETATM   21  C9  UNL     1      25.774   7.387  50.119  1.00  0.00     0.046 A 
HETATM   22  C10 UNL     1      26.809   7.706  49.256  1.00  0.00     0.138 A 
HETATM   23  F1  UNL     1      27.210   8.995  49.127  1.00  0.00    -0.204 F 
HETATM   24  C11 UNL     1      27.470   6.761  48.502  1.00  0.00     0.074 A 
HETATM   25 CL1  UNL     1      28.785   7.206  47.406  1.00  0.00    -0.081 Cl
HETATM   26  C12 UNL     1      27.049   5.440  48.643  1.00  0.00     0.056 A 
ENDBRANCH  17  19
ENDBRANCH   7  17
BRANCH   1  27
HETATM   27  O1  UNL     1      23.059  -0.859  54.549  1.00  0.00    -0.387 OA
HETATM   28  C1  UNL     1      21.681  -0.481  54.603  1.00  0.00     0.202 C 
ENDBRANCH   1  27
BRANCH  12  29
HETATM   29  C16 UNL     1      28.974   0.574  53.185  1.00  0.00     0.437 C 
BRANCH  29  30
HETATM   30  O3  UNL     1      29.808   1.314  53.990  1.00  0.00    -0.373 OA
HETATM   31  H16 UNL     1      29.330   1.824  54.661  1.00  0.00     0.211 HD
ENDBRANCH  29  30
ENDBRANCH  12  29
TORSDOF 5
ENDMDL
MODEL 2
REMARK VINA RESULT:      -8.2      3.992      7.084
REMARK  5 active torsions:
REMARK  status: ('A' for Active; 'I' for Inactive)
REMARK    1  A    between atoms: O1_2  and  C2_3 
REMARK    2  A    between atoms: C6_9  and  N3_10 
REMARK    3  A    between atoms: N3_10  and  C7_11 
REMARK    4  A    between atoms: N4_23  and  C16_24 
REMARK    5  A    between atoms: C16_24  and  O3_25 
ROOT
HETATM    1  C2  UNL     1      21.976   2.520  48.307  1.00  0.00     0.074 C 
HETATM    2  C3  UNL     1      23.036   2.505  49.163  1.00  0.00     0.164 C 
HETATM    3  C4  UNL     1      24.351   3.054  49.457  1.00  0.00     0.081 A 
HETATM    4  N1  UNL     1      25.321   3.784  48.909  1.00  0.00    -0.243 NA
HETATM    5  C5  UNL     1      26.460   4.093  49.508  1.00  0.00     0.235 A 
HETATM    6  N2  UNL     1      26.580   3.604  50.748  1.00  0.00    -0.221 NA
HETATM    7  C6  UNL     1      25.596   2.853  51.326  1.00  0.00     0.165 A 
HETATM    8  C13 UNL     1      24.379   2.512  50.714  1.00  0.00     0.140 A 
HETATM    9  O2  UNL     1      23.824   1.772  51.763  1.00  0.00    -0.344 OA
HETATM   10  C14 UNL     1      23.067   2.353  52.762  1.00  0.00     0.206 C 
HETATM   11  C15 UNL     1      21.760   2.908  52.330  1.00  0.00     0.301 C 
HETATM   12  N4  UNL     1      20.783   1.946  51.879  1.00  0.00     0.115 N 
HETATM   13  C17 UNL     1      19.589   2.471  51.359  1.00  0.00     0.301 C 
HETATM   14  C18 UNL     1      19.501   3.028  49.988  1.00  0.00     0.198 C 
HETATM   15  O4  UNL     1      19.719   2.164  48.981  1.00  0.00    -0.387 OA
HETATM   16  C19 UNL     1      20.897   1.569  48.744  1.00  0.00     0.200 C 
ENDROOT
BRANCH   7  17
HETATM   17  N3  UNL     1      26.081   2.512  52.644  1.00  0.00    -0.339 N 
HETATM   18  H6  UNL     1      25.724   2.951  53.529  1.00  0.00     0.167 HD
BRANCH  17  19
HETATM   19  C7  UNL     1      27.085   1.575  52.960  1.00  0.00     0.035 A 
HETATM   20  C8  UNL     1      28.311   1.896  53.498  1.00  0.00     0.032 A 
HETATM   21  C9  UNL     1      29.193   0.866  53.734  1.00  0.00     0.046 A 
HETATM   22  C10 UNL     1      28.837  -0.439  53.433  1.00  0.00     0.138 A 
HETATM   23  F1  UNL     1      29.710  -1.449  53.667  1.00  0.00    -0.204 F 
HETATM   24  C11 UNL     1      27.614  -0.772  52.893  1.00  0.00     0.074 A 
HETATM   25 CL1  UNL     1      27.197  -2.449  52.515  1.00  0.00    -0.081 Cl
HETATM   26  C12 UNL     1      26.726   0.275  52.657  1.00  0.00     0.056 A 
ENDBRANCH  17  19
ENDBRANCH   7  17
BRANCH   1  27
HETATM   27  O1  UNL     1      21.273   2.971  47.143  1.00  0.00    -0.387 OA
HETATM   28  C1  UNL     1      21.889   3.970  46.328  1.00  0.00     0.202 C 
ENDBRANCH   1  27
BRANCH  12  29
HETATM   29  C16 UNL     1      20.409   1.124  53.038  1.00  0.00     0.437 C 
BRANCH  29  30
HETATM   30  O3  UNL     1      19.712  -0.008  52.683  1.00  0.00    -0.373 OA
HETATM   31  H16 UNL     1      18.825   0.186  52.344  1.00  0.00     0.211 HD
ENDBRANCH  29  30
ENDBRANCH  12  29
TORSDOF 5
ENDMDL
MODEL 3
REMARK VINA RESULT:      -8.1      2.402      4.797
REMARK  5 active torsions:
REMARK  status: ('A' for Active; 'I' for Inactive)
REMARK    1  A    between atoms: O1_2  and  C2_3 
REMARK    2  A    between atoms: C6_9  and  N3_10 
REMARK    3  A    between atoms: N3_10  and  C7_11 
REMARK    4  A    between atoms: N4_23  and  C16_24 
REMARK    5  A    between atoms: C16_24  and  O3_25 
ROOT
HETATM    1  C2  UNL     1      22.097   1.194  53.186  1.00  0.00     0.074 C 
HETATM    2  C3  UNL     1      23.078   1.783  52.445  1.00  0.00     0.164 C 
HETATM    3  C4  UNL     1      24.501   1.818  52.146  1.00  0.00     0.081 A 
HETATM    4  N1  UNL     1      25.671   1.368  52.595  1.00  0.00    -0.243 NA
HETATM    5  C5  UNL     1      26.842   1.631  52.038  1.00  0.00     0.235 A 
HETATM    6  N2  UNL     1      26.773   2.410  50.952  1.00  0.00    -0.221 NA
HETATM    7  C6  UNL     1      25.581   2.881  50.476  1.00  0.00     0.165 A 
HETATM    8  C13 UNL     1      24.326   2.616  51.047  1.00  0.00     0.140 A 
HETATM    9  O2  UNL     1      23.537   3.340  50.147  1.00  0.00    -0.344 OA
HETATM   10  C14 UNL     1      23.037   2.784  48.985  1.00  0.00     0.206 C 
HETATM   11  C15 UNL     1      22.020   1.719  49.174  1.00  0.00     0.301 C 
HETATM   12  N4  UNL     1      20.763   2.140  49.746  1.00  0.00     0.115 N 
HETATM   13  C17 UNL     1      19.842   1.121  50.037  1.00  0.00     0.301 C 
HETATM   14  C18 UNL     1      19.967   0.262  51.238  1.00  0.00     0.198 C 
HETATM   15  O4  UNL     1      19.861   0.882  52.426  1.00  0.00    -0.387 OA
HETATM   16  C19 UNL     1      20.746   1.780  52.885  1.00  0.00     0.200 C 
ENDROOT
BRANCH   7  17
HETATM   17  N3  UNL     1      25.906   3.672  49.311  1.00  0.00    -0.339 N 
HETATM   18  H6  UNL     1      25.899   3.296  48.330  1.00  0.00     0.167 HD
BRANCH  17  19
HETATM   19  C7  UNL     1      26.281   5.030  49.289  1.00  0.00     0.035 A 
HETATM   20  C8  UNL     1      25.590   6.042  49.916  1.00  0.00     0.032 A 
HETATM   21  C9  UNL     1      26.076   7.323  49.785  1.00  0.00     0.046 A 
HETATM   22  C10 UNL     1      27.223   7.560  49.044  1.00  0.00     0.138 A 
HETATM   23  F1  UNL     1      27.697   8.824  48.919  1.00  0.00    -0.204 F 
HETATM   24  C11 UNL     1      27.923   6.556  48.412  1.00  0.00     0.074 A 
HETATM   25 CL1  UNL     1      29.380   6.898  47.469  1.00  0.00    -0.081 Cl
HETATM   26  C12 UNL     1      27.425   5.262  48.548  1.00  0.00     0.056 A 
ENDBRANCH  17  19
ENDBRANCH   7  17
BRANCH   1  27
HETATM   27  O1  UNL     1      21.609   0.263  54.160  1.00  0.00    -0.387 OA
HETATM   28  C1  UNL     1      22.484  -0.781  54.593  1.00  0.00     0.202 C 
ENDBRANCH   1  27
BRANCH  12  29
HETATM   29  C16 UNL     1      20.113   3.027  48.772  1.00  0.00     0.437 C 
BRANCH  29  30
HETATM   30  O3  UNL     1      19.618   2.347  47.684  1.00  0.00    -0.373 OA
HETATM   31  H16 UNL     1      18.783   2.715  47.356  1.00  0.00     0.211 HD
ENDBRANCH  29  30
ENDBRANCH  12  29
TORSDOF 5
ENDMDL
MODEL 4
REMARK VINA RESULT:      -7.9      4.205      7.074
REMARK  5 active torsions:
REMARK  status: ('A' for Active; 'I' for Inactive)
REMARK    1  A    between atoms: O1_2  and  C2_3 
REMARK    2  A    between atoms: C6_9  and  N3_10 
REMARK    3  A    between atoms: N3_10  and  C7_11 
REMARK    4  A    between atoms: N4_23  and  C16_24 
REMARK    5  A    between atoms: C16_24  and  O3_25 
ROOT
HETATM    1  C2  UNL     1      20.359   3.521  51.834  1.00  0.00     0.074 C 
HETATM    2  C3  UNL     1      21.615   3.021  52.005  1.00  0.00     0.164 C 
HETATM    3  C4  UNL     1      22.408   1.906  52.499  1.00  0.00     0.081 A 
HETATM    4  N1  UNL     1      22.306   0.799  53.232  1.00  0.00    -0.243 NA
HETATM    5  C5  UNL     1      23.309  -0.021  53.501  1.00  0.00     0.235 A 
HETATM    6  N2  UNL     1      24.480   0.348  52.968  1.00  0.00    -0.221 NA
HETATM    7  C6  UNL     1      24.604   1.480  52.214  1.00  0.00     0.165 A 
HETATM    8  C13 UNL     1      23.557   2.366  51.913  1.00  0.00     0.140 A 
HETATM    9  O2  UNL     1      24.281   3.281  51.142  1.00  0.00    -0.344 OA
HETATM   10  C14 UNL     1      24.443   3.137  49.777  1.00  0.00     0.206 C 
HETATM   11  C15 UNL     1      23.207   3.282  48.969  1.00  0.00     0.301 C 
HETATM   12  N4  UNL     1      22.610   4.596  48.956  1.00  0.00     0.115 N 
HETATM   13  C17 UNL     1      21.379   4.712  48.292  1.00  0.00     0.301 C 
HETATM   14  C18 UNL     1      20.105   4.268  48.904  1.00  0.00     0.198 C 
HETATM   15  O4  UNL     1      19.721   4.921  50.015  1.00  0.00    -0.387 OA
HETATM   16  C19 UNL     1      20.384   4.874  51.180  1.00  0.00     0.200 C 
ENDROOT
BRANCH   7  17
HETATM   17  N3  UNL     1      25.994   1.544  51.822  1.00  0.00    -0.339 N 
HETATM   18  H6  UNL     1      26.331   2.001  50.938  1.00  0.00     0.167 HD
BRANCH  17  19
HETATM   19  C7  UNL     1      27.095   1.018  52.525  1.00  0.00     0.035 A 
HETATM   20  C8  UNL     1      28.007   1.772  53.229  1.00  0.00     0.032 A 
HETATM   21  C9  UNL     1      29.041   1.110  53.849  1.00  0.00     0.046 A 
HETATM   22  C10 UNL     1      29.140  -0.269  53.755  1.00  0.00     0.138 A 
HETATM   23  F1  UNL     1      30.162  -0.917  54.368  1.00  0.00    -0.204 F 
HETATM   24  C11 UNL     1      28.236  -1.035  53.054  1.00  0.00     0.074 A 
HETATM   25 CL1  UNL     1      28.398  -2.794  52.951  1.00  0.00    -0.081 Cl
HETATM   26  C12 UNL     1      27.191  -0.358  52.428  1.00  0.00     0.056 A 
ENDBRANCH  17  19
ENDBRANCH   7  17
BRANCH   1  27
HETATM   27  O1  UNL     1      18.931   3.466  51.940  1.00  0.00    -0.387 OA
HETATM   28  C1  UNL     1      18.282   2.222  51.668  1.00  0.00     0.202 C 
ENDBRANCH   1  27
BRANCH  12  29
HETATM   29  C16 UNL     1      23.545   5.496  48.266  1.00  0.00     0.437 C 
BRANCH  29  30
HETATM   30  O3  UNL     1      23.056   6.775  48.143  1.00  0.00    -0.373 OA
HETATM   31  H16 UNL     1      23.661   7.367  47.670  1.00  0.00     0.211 HD
ENDBRANCH  29  30
ENDBRANCH  12  29
TORSDOF 5
ENDMDL
MODEL 5
REMARK VINA RESULT:      -7.8      4.914      7.282
REMARK  5 active torsions:
REMARK  status: ('A' for Active; 'I' for Inactive)
REMARK    1  A    between atoms: O1_2  and  C2_3 
REMARK    2  A    between atoms: C6_9  and  N3_10 
REMARK    3  A    between atoms: N3_10  and  C7_11 
REMARK    4  A    between atoms: N4_23  and  C16_24 
REMARK    5  A    between atoms: C16_24  and  O3_25 
ROOT
HETATM    1  C2  UNL     1      26.049  -0.837  53.105  1.00  0.00     0.074 C 
HETATM    2  C3  UNL     1      24.723  -0.522  53.081  1.00  0.00     0.164 C 
HETATM    3  C4  UNL     1      23.448  -0.632  53.774  1.00  0.00     0.081 A 
HETATM    4  N1  UNL     1      22.861  -1.282  54.777  1.00  0.00    -0.243 NA
HETATM    5  C5  UNL     1      21.597  -1.127  55.136  1.00  0.00     0.235 A 
HETATM    6  N2  UNL     1      20.919  -0.241  54.396  1.00  0.00    -0.221 NA
HETATM    7  C6  UNL     1      21.504   0.434  53.363  1.00  0.00     0.165 A 
HETATM    8  C13 UNL     1      22.843   0.289  52.962  1.00  0.00     0.140 A 
HETATM    9  O2  UNL     1      22.838   1.205  51.905  1.00  0.00    -0.344 OA
HETATM   10  C14 UNL     1      23.120   2.546  52.084  1.00  0.00     0.206 C 
HETATM   11  C15 UNL     1      24.517   2.856  52.478  1.00  0.00     0.301 C 
HETATM   12  N4  UNL     1      25.531   2.573  51.490  1.00  0.00     0.115 N 
HETATM   13  C17 UNL     1      26.862   2.753  51.898  1.00  0.00     0.301 C 
HETATM   14  C18 UNL     1      27.572   1.761  52.739  1.00  0.00     0.198 C 
HETATM   15  O4  UNL     1      27.760   0.547  52.195  1.00  0.00    -0.387 OA
HETATM   16  C19 UNL     1      26.768  -0.305  51.898  1.00  0.00     0.200 C 
ENDROOT
BRANCH   7  17
HETATM   17  N3  UNL     1      20.474   1.285  52.812  1.00  0.00    -0.339 N 
HETATM   18  H6  UNL     1      20.354   2.296  53.067  1.00  0.00     0.167 HD
BRANCH  17  19
HETATM   19  C7  UNL     1      19.483   0.918  51.880  1.00  0.00     0.035 A 
HETATM   20  C8  UNL     1      19.376   1.437  50.609  1.00  0.00     0.032 A 
HETATM   21  C9  UNL     1      18.340   0.988  49.822  1.00  0.00     0.046 A 
HETATM   22  C10 UNL     1      17.450   0.047  50.313  1.00  0.00     0.138 A 
HETATM   23  F1  UNL     1      16.430  -0.392  49.534  1.00  0.00    -0.204 F 
HETATM   24  C11 UNL     1      17.546  -0.480  51.582  1.00  0.00     0.074 A 
HETATM   25 CL1  UNL     1      16.387  -1.676  52.178  1.00  0.00    -0.081 Cl
HETATM   26  C12 UNL     1      18.597  -0.021  52.374  1.00  0.00     0.056 A 
ENDBRANCH  17  19
ENDBRANCH   7  17
BRANCH   1  27
HETATM   27  O1  UNL     1      27.214  -1.434  53.685  1.00  0.00    -0.387 OA
HETATM   28  C1  UNL     1      27.824  -2.530  52.998  1.00  0.00     0.202 C 
ENDBRANCH   1  27
BRANCH  12  29
HETATM   29  C16 UNL     1      25.311   3.489  50.361  1.00  0.00     0.437 C 
BRANCH  29  30
HETATM   30  O3  UNL     1      26.065   4.635  50.455  1.00  0.00    -0.373 OA
HETATM   31  H16 UNL     1      25.600   5.358  50.904  1.00  0.00     0.211 HD
ENDBRANCH  29  30
ENDBRANCH  12  29
TORSDOF 5
ENDMDL
MODEL 6
REMARK VINA RESULT:      -7.7      2.967      4.954
REMARK  5 active torsions:
REMARK  status: ('A' for Active; 'I' for Inactive)
REMARK    1  A    between atoms: O1_2  and  C2_3 
REMARK    2  A    between atoms: C6_9  and  N3_10 
REMARK    3  A    between atoms: N3_10  and  C7_11 
REMARK    4  A    between atoms: N4_23  and  C16_24 
REMARK    5  A    between atoms: C16_24  and  O3_25 
ROOT
HETATM    1  C2  UNL     1      26.549   0.664  54.488  1.00  0.00     0.074 C 
HETATM    2  C3  UNL     1      25.961   1.479  53.568  1.00  0.00     0.164 C 
HETATM    3  C4  UNL     1      26.126   2.182  52.304  1.00  0.00     0.081 A 
HETATM    4  N1  UNL     1      27.061   2.539  51.426  1.00  0.00    -0.243 NA
HETATM    5  C5  UNL     1      26.831   3.233  50.323  1.00  0.00     0.235 A 
HETATM    6  N2  UNL     1      25.548   3.566  50.140  1.00  0.00    -0.221 NA
HETATM    7  C6  UNL     1      24.575   3.208  51.030  1.00  0.00     0.165 A 
HETATM    8  C13 UNL     1      24.792   2.473  52.206  1.00  0.00     0.140 A 
HETATM    9  O2  UNL     1      23.471   2.429  52.664  1.00  0.00    -0.344 OA
HETATM   10  C14 UNL     1      22.591   1.429  52.296  1.00  0.00     0.206 C 
HETATM   11  C15 UNL     1      22.917   0.074  52.805  1.00  0.00     0.301 C 
HETATM   12  N4  UNL     1      22.828  -0.104  54.235  1.00  0.00     0.115 N 
HETATM   13  C17 UNL     1      23.248  -1.347  54.733  1.00  0.00     0.301 C 
HETATM   14  C18 UNL     1      24.680  -1.690  54.898  1.00  0.00     0.198 C 
HETATM   15  O4  UNL     1      25.370  -0.949  55.783  1.00  0.00    -0.387 OA
HETATM   16  C19 UNL     1      25.623   0.359  55.631  1.00  0.00     0.200 C 
ENDROOT
BRANCH   7  17
HETATM   17  N3  UNL     1      23.340   3.740  50.500  1.00  0.00    -0.339 N 
HETATM   18  H6  UNL     1      22.668   4.322  51.061  1.00  0.00     0.167 HD
BRANCH  17  19
HETATM   19  C7  UNL     1      22.836   3.570  49.196  1.00  0.00     0.035 A 
HETATM   20  C8  UNL     1      22.479   2.359  48.648  1.00  0.00     0.032 A 
HETATM   21  C9  UNL     1      22.019   2.356  47.351  1.00  0.00     0.046 A 
HETATM   22  C10 UNL     1      21.926   3.543  46.643  1.00  0.00     0.138 A 
HETATM   23  F1  UNL     1      21.472   3.535  45.365  1.00  0.00    -0.204 F 
HETATM   24  C11 UNL     1      22.280   4.761  47.180  1.00  0.00     0.074 A 
HETATM   25 CL1  UNL     1      22.153   6.257  46.243  1.00  0.00    -0.081 Cl
HETATM   26  C12 UNL     1      22.745   4.757  48.493  1.00  0.00     0.056 A 
ENDBRANCH  17  19
ENDBRANCH   7  17
BRANCH   1  27
HETATM   27  O1  UNL     1      27.636  -0.113  55.004  1.00  0.00    -0.387 OA
HETATM   28  C1  UNL     1      28.748  -0.374  54.143  1.00  0.00     0.202 C 
ENDBRANCH   1  27
BRANCH  12  29
HETATM   29  C16 UNL     1      21.413   0.040  54.607  1.00  0.00     0.437 C 
BRANCH  29  30
HETATM   30  O3  UNL     1      20.830  -1.158  54.947  1.00  0.00    -0.373 OA
HETATM   31  H16 UNL     1      20.762  -1.286  55.906  1.00  0.00     0.211 HD
ENDBRANCH  29  30
ENDBRANCH  12  29
TORSDOF 5
ENDMDL
MODEL 7
REMARK VINA RESULT:      -7.6      1.826      2.127
REMARK  5 active torsions:
REMARK  status: ('A' for Active; 'I' for Inactive)
REMARK    1  A    between atoms: O1_2  and  C2_3 
REMARK    2  A    between atoms: C6_9  and  N3_10 
REMARK    3  A    between atoms: N3_10  and  C7_11 
REMARK    4  A    between atoms: N4_23  and  C16_24 
REMARK    5  A    between atoms: C16_24  and  O3_25 
ROOT
HETATM    1  C2  UNL     1      21.818   0.668  53.150  1.00  0.00     0.074 C 
HETATM    2  C3  UNL     1      22.469   1.656  52.474  1.00  0.00     0.164 C 
HETATM    3  C4  UNL     1      22.505   3.077  52.162  1.00  0.00     0.081 A 
HETATM    4  N1  UNL     1      21.770   4.183  52.256  1.00  0.00    -0.243 NA
HETATM    5  C5  UNL     1      22.145   5.375  51.821  1.00  0.00     0.235 A 
HETATM    6  N2  UNL     1      23.359   5.399  51.258  1.00  0.00    -0.221 NA
HETATM    7  C6  UNL     1      24.128   4.274  51.152  1.00  0.00     0.165 A 
HETATM    8  C13 UNL     1      23.754   2.999  51.605  1.00  0.00     0.140 A 
HETATM    9  O2  UNL     1      24.909   2.304  51.230  1.00  0.00    -0.344 OA
HETATM   10  C14 UNL     1      26.008   2.189  52.059  1.00  0.00     0.206 C 
HETATM   11  C15 UNL     1      25.799   1.380  53.285  1.00  0.00     0.301 C 
HETATM   12  N4  UNL     1      25.561  -0.029  53.080  1.00  0.00     0.115 N 
HETATM   13  C17 UNL     1      25.247  -0.778  54.224  1.00  0.00     0.301 C 
HETATM   14  C18 UNL     1      23.896  -0.759  54.836  1.00  0.00     0.198 C 
HETATM   15  O4  UNL     1      22.895  -1.241  54.079  1.00  0.00    -0.387 OA
HETATM   16  C19 UNL     1      22.471  -0.669  52.943  1.00  0.00     0.200 C 
ENDROOT
BRANCH   7  17
HETATM   17  N3  UNL     1      25.348   4.690  50.498  1.00  0.00    -0.339 N 
HETATM   18  H6  UNL     1      26.296   4.305  50.734  1.00  0.00     0.167 HD
BRANCH  17  19
HETATM   19  C7  UNL     1      25.475   5.651  49.476  1.00  0.00     0.035 A 
HETATM   20  C8  UNL     1      24.417   6.281  48.860  1.00  0.00     0.032 A 
HETATM   21  C9  UNL     1      24.706   7.186  47.864  1.00  0.00     0.046 A 
HETATM   22  C10 UNL     1      26.022   7.438  47.512  1.00  0.00     0.138 A 
HETATM   23  F1  UNL     1      26.300   8.331  46.530  1.00  0.00    -0.204 F 
HETATM   24  C11 UNL     1      27.088   6.815  48.121  1.00  0.00     0.074 A 
HETATM   25 CL1  UNL     1      28.756   7.158  47.641  1.00  0.00    -0.081 Cl
HETATM   26  C12 UNL     1      26.789   5.899  49.128  1.00  0.00     0.056 A 
ENDBRANCH  17  19
ENDBRANCH   7  17
BRANCH   1  27
HETATM   27  O1  UNL     1      20.784   0.166  54.005  1.00  0.00    -0.387 OA
HETATM   28  C1  UNL     1      19.587  -0.328  53.399  1.00  0.00     0.202 C 
ENDBRANCH   1  27
BRANCH  12  29
HETATM   29  C16 UNL     1      26.794  -0.606  52.527  1.00  0.00     0.437 C 
BRANCH  29  30
HETATM   30  O3  UNL     1      27.084  -1.843  53.057  1.00  0.00    -0.373 OA
HETATM   31  H16 UNL     1      27.416  -1.795  53.966  1.00  0.00     0.211 HD
ENDBRANCH  29  30
ENDBRANCH  12  29
TORSDOF 5
ENDMDL
MODEL 8
REMARK VINA RESULT:      -7.6      4.253      6.978
REMARK  5 active torsions:
REMARK  status: ('A' for Active; 'I' for Inactive)
REMARK    1  A    between atoms: O1_2  and  C2_3 
REMARK    2  A    between atoms: C6_9  and  N3_10 
REMARK    3  A    between atoms: N3_10  and  C7_11 
REMARK    4  A    between atoms: N4_23  and  C16_24 
REMARK    5  A    between atoms: C16_24  and  O3_25 
ROOT
HETATM    1  C2  UNL     1      19.338   1.645  51.942  1.00  0.00     0.074 C 
HETATM    2  C3  UNL     1      20.660   1.559  52.261  1.00  0.00     0.164 C 
HETATM    3  C4  UNL     1      21.699   0.744  52.871  1.00  0.00     0.081 A 
HETATM    4  N1  UNL     1      21.863  -0.341  53.624  1.00  0.00    -0.243 NA
HETATM    5  C5  UNL     1      23.034  -0.810  54.024  1.00  0.00     0.235 A 
HETATM    6  N2  UNL     1      24.085  -0.095  53.605  1.00  0.00    -0.221 NA
HETATM    7  C6  UNL     1      23.937   1.021  52.832  1.00  0.00     0.165 A 
HETATM    8  C13 UNL     1      22.707   1.539  52.394  1.00  0.00     0.140 A 
HETATM    9  O2  UNL     1      23.193   2.635  51.674  1.00  0.00    -0.344 OA
HETATM   10  C14 UNL     1      23.542   2.551  50.340  1.00  0.00     0.206 C 
HETATM   11  C15 UNL     1      22.418   2.307  49.402  1.00  0.00     0.301 C 
HETATM   12  N4  UNL     1      21.450   3.372  49.284  1.00  0.00     0.115 N 
HETATM   13  C17 UNL     1      20.324   3.101  48.490  1.00  0.00     0.301 C 
HETATM   14  C18 UNL     1      19.190   2.282  48.980  1.00  0.00     0.198 C 
HETATM   15  O4  UNL     1      18.503   2.782  50.023  1.00  0.00    -0.387 OA
HETATM   16  C19 UNL     1      19.016   2.940  51.252  1.00  0.00     0.200 C 
ENDROOT
BRANCH   7  17
HETATM   17  N3  UNL     1      25.273   1.514  52.587  1.00  0.00    -0.339 N 
HETATM   18  H6  UNL     1      25.480   2.441  52.138  1.00  0.00     0.167 HD
BRANCH  17  19
HETATM   19  C7  UNL     1      26.484   0.860  52.888  1.00  0.00     0.035 A 
HETATM   20  C8  UNL     1      26.758  -0.455  52.586  1.00  0.00     0.032 A 
HETATM   21  C9  UNL     1      27.984  -0.954  52.963  1.00  0.00     0.046 A 
HETATM   22  C10 UNL     1      28.893  -0.143  53.621  1.00  0.00     0.138 A 
HETATM   23  F1  UNL     1      30.100  -0.641  53.991  1.00  0.00    -0.204 F 
HETATM   24  C11 UNL     1      28.631   1.173  53.930  1.00  0.00     0.074 A 
HETATM   25 CL1  UNL     1      29.816   2.178  54.778  1.00  0.00    -0.081 Cl
HETATM   26  C12 UNL     1      27.389   1.672  53.546  1.00  0.00     0.056 A 
ENDBRANCH  17  19
ENDBRANCH   7  17
BRANCH   1  27
HETATM   27  O1  UNL     1      17.994   1.150  51.899  1.00  0.00    -0.387 OA
HETATM   28  C1  UNL     1      17.794  -0.265  51.957  1.00  0.00     0.202 C 
ENDBRANCH   1  27
BRANCH  12  29
HETATM   29  C16 UNL     1      22.132   4.518  48.668  1.00  0.00     0.437 C 
BRANCH  29  30
HETATM   30  O3  UNL     1      22.113   5.638  49.466  1.00  0.00    -0.373 OA
HETATM   31  H16 UNL     1      21.275   6.124  49.415  1.00  0.00     0.211 HD
ENDBRANCH  29  30
ENDBRANCH  12  29
TORSDOF 5
ENDMDL
MODEL 9
REMARK VINA RESULT:      -7.6      3.916      7.120
REMARK  5 active torsions:
REMARK  status: ('A' for Active; 'I' for Inactive)
REMARK    1  A    between atoms: O1_2  and  C2_3 
REMARK    2  A    between atoms: C6_9  and  N3_10 
REMARK    3  A    between atoms: N3_10  and  C7_11 
REMARK    4  A    between atoms: N4_23  and  C16_24 
REMARK    5  A    between atoms: C16_24  and  O3_25 
ROOT
HETATM    1  C2  UNL     1      20.593   4.533  48.910  1.00  0.00     0.074 C 
HETATM    2  C3  UNL     1      21.188   3.832  49.916  1.00  0.00     0.164 C 
HETATM    3  C4  UNL     1      21.397   2.518  50.506  1.00  0.00     0.081 A 
HETATM    4  N1  UNL     1      20.947   1.267  50.447  1.00  0.00    -0.243 NA
HETATM    5  C5  UNL     1      21.394   0.270  51.195  1.00  0.00     0.235 A 
HETATM    6  N2  UNL     1      22.365   0.615  52.048  1.00  0.00    -0.221 NA
HETATM    7  C6  UNL     1      22.840   1.894  52.123  1.00  0.00     0.165 A 
HETATM    8  C13 UNL     1      22.384   2.969  51.342  1.00  0.00     0.140 A 
HETATM    9  O2  UNL     1      23.221   3.964  51.858  1.00  0.00    -0.344 OA
HETATM   10  C14 UNL     1      24.475   4.222  51.339  1.00  0.00     0.206 C 
HETATM   11  C15 UNL     1      24.493   4.780  49.964  1.00  0.00     0.301 C 
HETATM   12  N4  UNL     1      23.942   6.106  49.813  1.00  0.00     0.115 N 
HETATM   13  C17 UNL     1      23.848   6.593  48.500  1.00  0.00     0.301 C 
HETATM   14  C18 UNL     1      22.771   6.168  47.574  1.00  0.00     0.198 C 
HETATM   15  O4  UNL     1      21.517   6.497  47.930  1.00  0.00    -0.387 OA
HETATM   16  C19 UNL     1      20.889   6.003  49.007  1.00  0.00     0.200 C 
ENDROOT
BRANCH   7  17
HETATM   17  N3  UNL     1      23.864   1.877  53.142  1.00  0.00    -0.339 N 
HETATM   18  H6  UNL     1      23.787   2.391  54.055  1.00  0.00     0.167 HD
BRANCH  17  19
HETATM   19  C7  UNL     1      25.099   1.202  53.089  1.00  0.00     0.035 A 
HETATM   20  C8  UNL     1      25.248  -0.133  52.785  1.00  0.00     0.032 A 
HETATM   21  C9  UNL     1      26.523  -0.650  52.791  1.00  0.00     0.046 A 
HETATM   22  C10 UNL     1      27.603   0.163  53.094  1.00  0.00     0.138 A 
HETATM   23  F1  UNL     1      28.858  -0.352  53.099  1.00  0.00    -0.204 F 
HETATM   24  C11 UNL     1      27.468   1.499  53.400  1.00  0.00     0.074 A 
HETATM   25 CL1  UNL     1      28.870   2.506  53.788  1.00  0.00    -0.081 Cl
HETATM   26  C12 UNL     1      26.174   2.017  53.392  1.00  0.00     0.056 A 
ENDBRANCH  17  19
ENDBRANCH   7  17
BRANCH   1  27
HETATM   27  O1  UNL     1      19.787   4.651  47.732  1.00  0.00    -0.387 OA
HETATM   28  C1  UNL     1      19.780   3.561  46.807  1.00  0.00     0.202 C 
ENDBRANCH   1  27
BRANCH  12  29
HETATM   29  C16 UNL     1      24.821   7.032  50.540  1.00  0.00     0.437 C 
BRANCH  29  30
HETATM   30  O3  UNL     1      24.168   7.701  51.549  1.00  0.00    -0.373 OA
HETATM   31  H16 UNL     1      24.548   7.529  52.424  1.00  0.00     0.211 HD
ENDBRANCH  29  30
ENDBRANCH  12  29
TORSDOF 5
ENDMDL
