MODEL 1
REMARK VINA RESULT:      -7.8      0.000      0.000
REMARK  1 active torsions:
REMARK  status: ('A' for Active; 'I' for Inactive)
REMARK    1  A    between atoms: N1_6  and  C6_7 
ROOT
HETATM    1  C1  UNL     1      23.547  -0.765  54.023  1.00  0.00     0.049 C 
HETATM    2  C2  UNL     1      22.153  -0.618  53.611  1.00  0.00    -0.054 A 
HETATM    3  C3  UNL     1      21.719   0.112  52.602  1.00  0.00    -0.028 A 
HETATM    4  C4  UNL     1      20.276  -0.140  52.684  1.00  0.00    -0.013 A 
HETATM    5  C5  UNL     1      19.355   0.292  51.797  1.00  0.00     0.105 C 
HETATM    6  N1  UNL     1      19.853   1.044  50.692  1.00  0.00    -0.333 N 
HETATM    7  C7  UNL     1      21.211   0.663  50.346  1.00  0.00     0.147 C 
HETATM    8  C8  UNL     1      22.089   1.036  51.560  1.00  0.00     0.036 C 
HETATM    9  C9  UNL     1      21.537   2.431  51.972  1.00  0.00     0.288 C 
HETATM   10  N2  UNL     1      22.175   3.337  51.058  1.00  0.00     0.091 N 
HETATM   11  C10 UNL     1      22.432   4.630  51.598  1.00  0.00     0.302 C 
HETATM   12  C11 UNL     1      23.376   4.620  52.774  1.00  0.00     0.300 C 
HETATM   13  N3  UNL     1      24.605   3.947  52.507  1.00  0.00     0.089 N 
HETATM   14  C12 UNL     1      24.578   2.612  53.062  1.00  0.00     0.217 C 
HETATM   15  C13 UNL     1      25.934   2.460  53.798  1.00  0.00     0.042 C 
HETATM   16  C14 UNL     1      24.592   1.602  51.973  1.00  0.00     0.042 C 
HETATM   17  C15 UNL     1      23.418   1.366  51.160  1.00  0.00     0.032 C 
HETATM   18  C16 UNL     1      23.238   2.704  50.381  1.00  0.00     0.278 C 
HETATM   19  C17 UNL     1      19.934  -1.029  53.783  1.00  0.00     0.014 A 
HETATM   20  C18 UNL     1      21.098  -1.310  54.335  1.00  0.00     0.008 A 
HETATM   21  H14 UNL     1      25.419   4.520  52.818  1.00  0.00     0.316 HD
ENDROOT
BRANCH   6  22
HETATM   22  C6  UNL     1      19.024   2.025  50.026  1.00  0.00     0.355 C 
HETATM   23  O1  UNL     1      19.499   2.515  48.973  1.00  0.00    -0.283 OA
ENDBRANCH   6  22
TORSDOF 1
ENDMDL
MODEL 2
REMARK VINA RESULT:      -7.8      2.179      4.759
REMARK  1 active torsions:
REMARK  status: ('A' for Active; 'I' for Inactive)
REMARK    1  A    between atoms: N1_6  and  C6_7 
ROOT
HETATM    1  C1  UNL     1      22.948  -0.562  54.074  1.00  0.00     0.049 C 
HETATM    2  C2  UNL     1      24.137  -0.101  53.359  1.00  0.00    -0.054 A 
HETATM    3  C3  UNL     1      24.221   0.989  52.624  1.00  0.00    -0.028 A 
HETATM    4  C4  UNL     1      25.620   0.916  52.187  1.00  0.00    -0.013 A 
HETATM    5  C5  UNL     1      26.271   1.867  51.484  1.00  0.00     0.105 C 
HETATM    6  N1  UNL     1      25.516   3.034  51.160  1.00  0.00    -0.333 N 
HETATM    7  C7  UNL     1      24.486   3.304  52.146  1.00  0.00     0.147 C 
HETATM    8  C8  UNL     1      23.503   2.115  52.083  1.00  0.00     0.036 C 
HETATM    9  C9  UNL     1      23.355   1.869  50.554  1.00  0.00     0.288 C 
HETATM   10  N2  UNL     1      22.401   2.858  50.136  1.00  0.00     0.091 N 
HETATM   11  C10 UNL     1      21.575   2.453  49.048  1.00  0.00     0.302 C 
HETATM   12  C11 UNL     1      20.706   1.260  49.358  1.00  0.00     0.300 C 
HETATM   13  N3  UNL     1      19.920   1.423  50.537  1.00  0.00     0.089 N 
HETATM   14  C12 UNL     1      20.531   0.730  51.649  1.00  0.00     0.217 C 
HETATM   15  C13 UNL     1      19.370  -0.052  52.317  1.00  0.00     0.042 C 
HETATM   16  C14 UNL     1      21.003   1.704  52.666  1.00  0.00     0.042 C 
HETATM   17  C15 UNL     1      22.178   2.516  52.433  1.00  0.00     0.032 C 
HETATM   18  C16 UNL     1      21.756   3.437  51.248  1.00  0.00     0.278 C 
HETATM   19  C17 UNL     1      26.297  -0.263  52.705  1.00  0.00     0.014 A 
HETATM   20  C18 UNL     1      25.370  -0.869  53.419  1.00  0.00     0.008 A 
HETATM   21  H14 UNL     1      18.927   1.156  50.364  1.00  0.00     0.316 HD
ENDROOT
BRANCH   6  22
HETATM   22  C6  UNL     1      25.831   3.821  49.987  1.00  0.00     0.355 C 
HETATM   23  O1  UNL     1      27.023   3.769  49.601  1.00  0.00    -0.283 OA
ENDBRANCH   6  22
TORSDOF 1
ENDMDL
MODEL 3
REMARK VINA RESULT:      -7.8      1.861      3.250
REMARK  1 active torsions:
REMARK  status: ('A' for Active; 'I' for Inactive)
REMARK    1  A    between atoms: N1_6  and  C6_7 
ROOT
HETATM    1  C1  UNL     1      26.478   1.339  51.575  1.00  0.00     0.049 C 
HETATM    2  C2  UNL     1      25.593   0.671  52.527  1.00  0.00    -0.054 A 
HETATM    3  C3  UNL     1      24.276   0.653  52.475  1.00  0.00    -0.028 A 
HETATM    4  C4  UNL     1      23.966  -0.154  53.660  1.00  0.00    -0.013 A 
HETATM    5  C5  UNL     1      22.736  -0.577  54.019  1.00  0.00     0.105 C 
HETATM    6  N1  UNL     1      21.666  -0.202  53.152  1.00  0.00    -0.333 N 
HETATM    7  C7  UNL     1      22.112  -0.046  51.780  1.00  0.00     0.147 C 
HETATM    8  C8  UNL     1      23.109   1.133  51.779  1.00  0.00     0.036 C 
HETATM    9  C9  UNL     1      22.418   2.172  52.710  1.00  0.00     0.288 C 
HETATM   10  N2  UNL     1      21.452   2.809  51.858  1.00  0.00     0.091 N 
HETATM   11  C10 UNL     1      21.204   4.175  52.175  1.00  0.00     0.302 C 
HETATM   12  C11 UNL     1      22.414   5.062  52.028  1.00  0.00     0.300 C 
HETATM   13  N3  UNL     1      23.040   4.960  50.751  1.00  0.00     0.089 N 
HETATM   14  C12 UNL     1      24.203   4.106  50.827  1.00  0.00     0.217 C 
HETATM   15  C13 UNL     1      25.318   4.883  50.080  1.00  0.00     0.042 C 
HETATM   16  C14 UNL     1      23.981   2.862  50.045  1.00  0.00     0.042 C 
HETATM   17  C15 UNL     1      23.098   1.824  50.530  1.00  0.00     0.032 C 
HETATM   18  C16 UNL     1      21.693   2.499  50.504  1.00  0.00     0.278 C 
HETATM   19  C17 UNL     1      25.166  -0.571  54.370  1.00  0.00     0.014 A 
HETATM   20  C18 UNL     1      26.148  -0.056  53.658  1.00  0.00     0.008 A 
HETATM   21  H14 UNL     1      23.232   5.905  50.353  1.00  0.00     0.316 HD
ENDROOT
BRANCH   6  22
HETATM   22  C6  UNL     1      20.318  -0.055  53.655  1.00  0.00     0.355 C 
HETATM   23  O1  UNL     1      19.416   0.005  52.785  1.00  0.00    -0.283 OA
ENDBRANCH   6  22
TORSDOF 1
ENDMDL
MODEL 4
REMARK VINA RESULT:      -7.4      2.051      3.299
REMARK  1 active torsions:
REMARK  status: ('A' for Active; 'I' for Inactive)
REMARK    1  A    between atoms: N1_6  and  C6_7 
ROOT
HETATM    1  C1  UNL     1      26.586   1.832  51.077  1.00  0.00     0.049 C 
HETATM    2  C2  UNL     1      25.474   1.346  51.891  1.00  0.00    -0.054 A 
HETATM    3  C3  UNL     1      24.195   1.564  51.659  1.00  0.00    -0.028 A 
HETATM    4  C4  UNL     1      23.587   0.841  52.782  1.00  0.00    -0.013 A 
HETATM    5  C5  UNL     1      22.263   0.650  52.964  1.00  0.00     0.105 C 
HETATM    6  N1  UNL     1      21.407   1.198  51.963  1.00  0.00    -0.333 N 
HETATM    7  C7  UNL     1      22.057   1.254  50.667  1.00  0.00     0.147 C 
HETATM    8  C8  UNL     1      23.239   2.235  50.815  1.00  0.00     0.036 C 
HETATM    9  C9  UNL     1      22.625   3.393  51.655  1.00  0.00     0.288 C 
HETATM   10  N2  UNL     1      21.914   4.181  50.686  1.00  0.00     0.091 N 
HETATM   11  C10 UNL     1      21.873   5.574  50.981  1.00  0.00     0.302 C 
HETATM   12  C11 UNL     1      23.232   6.227  51.012  1.00  0.00     0.300 C 
HETATM   13  N3  UNL     1      23.997   5.998  49.831  1.00  0.00     0.089 N 
HETATM   14  C12 UNL     1      24.967   4.951  50.056  1.00  0.00     0.217 C 
HETATM   15  C13 UNL     1      26.295   5.506  49.477  1.00  0.00     0.042 C 
HETATM   16  C14 UNL     1      24.636   3.756  49.237  1.00  0.00     0.042 C 
HETATM   17  C15 UNL     1      23.523   2.899  49.585  1.00  0.00     0.032 C 
HETATM   18  C16 UNL     1      22.278   3.815  49.374  1.00  0.00     0.278 C 
HETATM   19  C17 UNL     1      24.584   0.226  53.644  1.00  0.00     0.014 A 
HETATM   20  C18 UNL     1      25.730   0.547  53.079  1.00  0.00     0.008 A 
HETATM   21  H14 UNL     1      24.408   6.888  49.474  1.00  0.00     0.316 HD
ENDROOT
BRANCH   6  22
HETATM   22  C6  UNL     1      20.050   1.591  52.279  1.00  0.00     0.355 C 
HETATM   23  O1  UNL     1      19.933   2.620  52.987  1.00  0.00    -0.283 OA
ENDBRANCH   6  22
TORSDOF 1
ENDMDL
MODEL 5
REMARK VINA RESULT:      -7.2      2.245      4.964
REMARK  1 active torsions:
REMARK  status: ('A' for Active; 'I' for Inactive)
REMARK    1  A    between atoms: N1_6  and  C6_7 
ROOT
HETATM    1  C1  UNL     1      23.219   0.116  53.328  1.00  0.00     0.049 C 
HETATM    2  C2  UNL     1      24.331   0.772  52.642  1.00  0.00    -0.054 A 
HETATM    3  C3  UNL     1      24.257   1.888  51.945  1.00  0.00    -0.028 A 
HETATM    4  C4  UNL     1      25.654   2.038  51.521  1.00  0.00    -0.013 A 
HETATM    5  C5  UNL     1      26.160   3.098  50.857  1.00  0.00     0.105 C 
HETATM    6  N1  UNL     1      25.244   4.152  50.565  1.00  0.00    -0.333 N 
HETATM    7  C7  UNL     1      24.180   4.231  51.549  1.00  0.00     0.147 C 
HETATM    8  C8  UNL     1      23.383   2.914  51.435  1.00  0.00     0.036 C 
HETATM    9  C9  UNL     1      23.281   2.702  49.897  1.00  0.00     0.288 C 
HETATM   10  N2  UNL     1      22.194   3.555  49.503  1.00  0.00     0.091 N 
HETATM   11  C10 UNL     1      21.442   3.070  48.394  1.00  0.00     0.302 C 
HETATM   12  C11 UNL     1      20.757   1.753  48.654  1.00  0.00     0.300 C 
HETATM   13  N3  UNL     1      19.950   1.756  49.829  1.00  0.00     0.089 N 
HETATM   14  C12 UNL     1      20.651   1.122  50.923  1.00  0.00     0.217 C 
HETATM   15  C13 UNL     1      19.615   0.155  51.552  1.00  0.00     0.042 C 
HETATM   16  C14 UNL     1      20.968   2.119  51.978  1.00  0.00     0.042 C 
HETATM   17  C15 UNL     1      22.012   3.102  51.785  1.00  0.00     0.032 C 
HETATM   18  C16 UNL     1      21.464   3.993  50.628  1.00  0.00     0.278 C 
HETATM   19  C17 UNL     1      26.494   0.954  52.005  1.00  0.00     0.014 A 
HETATM   20  C18 UNL     1      25.663   0.192  52.689  1.00  0.00     0.008 A 
HETATM   21  H14 UNL     1      19.008   1.352  49.636  1.00  0.00     0.316 HD
ENDROOT
BRANCH   6  22
HETATM   22  C6  UNL     1      25.445   5.017  49.423  1.00  0.00     0.355 C 
HETATM   23  O1  UNL     1      26.491   4.812  48.763  1.00  0.00    -0.283 OA
ENDBRANCH   6  22
TORSDOF 1
ENDMDL
MODEL 6
REMARK VINA RESULT:      -7.1      1.178      1.581
REMARK  1 active torsions:
REMARK  status: ('A' for Active; 'I' for Inactive)
REMARK    1  A    between atoms: N1_6  and  C6_7 
ROOT
HETATM    1  C1  UNL     1      22.336  -0.233  53.088  1.00  0.00     0.049 C 
HETATM    2  C2  UNL     1      21.100   0.047  52.360  1.00  0.00    -0.054 A 
HETATM    3  C3  UNL     1      20.992   0.802  51.285  1.00  0.00    -0.028 A 
HETATM    4  C4  UNL     1      19.551   0.698  51.023  1.00  0.00    -0.013 A 
HETATM    5  C5  UNL     1      18.913   1.207  49.948  1.00  0.00     0.105 C 
HETATM    6  N1  UNL     1      19.731   1.889  48.998  1.00  0.00    -0.333 N 
HETATM    7  C7  UNL     1      21.086   1.368  48.978  1.00  0.00     0.147 C 
HETATM    8  C8  UNL     1      21.687   1.668  50.367  1.00  0.00     0.036 C 
HETATM    9  C9  UNL     1      21.199   3.118  50.651  1.00  0.00     0.288 C 
HETATM   10  N2  UNL     1      22.122   3.942  49.921  1.00  0.00     0.091 N 
HETATM   11  C10 UNL     1      22.375   5.210  50.520  1.00  0.00     0.302 C 
HETATM   12  C11 UNL     1      23.011   5.122  51.884  1.00  0.00     0.300 C 
HETATM   13  N3  UNL     1      24.193   4.325  51.907  1.00  0.00     0.089 N 
HETATM   14  C12 UNL     1      23.901   3.008  52.427  1.00  0.00     0.217 C 
HETATM   15  C13 UNL     1      25.024   2.730  53.460  1.00  0.00     0.042 C 
HETATM   16  C14 UNL     1      24.067   1.985  51.363  1.00  0.00     0.042 C 
HETATM   17  C15 UNL     1      23.100   1.857  50.294  1.00  0.00     0.032 C 
HETATM   18  C16 UNL     1      23.245   3.195  49.508  1.00  0.00     0.278 C 
HETATM   19  C17 UNL     1      18.873  -0.136  52.002  1.00  0.00     0.014 A 
HETATM   20  C18 UNL     1      19.841  -0.524  52.809  1.00  0.00     0.008 A 
HETATM   21  H14 UNL     1      24.965   4.817  52.406  1.00  0.00     0.316 HD
ENDROOT
BRANCH   6  22
HETATM   22  C6  UNL     1      19.186   2.939  48.165  1.00  0.00     0.355 C 
HETATM   23  O1  UNL     1      19.910   3.308  47.210  1.00  0.00    -0.283 OA
ENDBRANCH   6  22
TORSDOF 1
ENDMDL
MODEL 7
REMARK VINA RESULT:      -6.3      3.583      6.451
REMARK  1 active torsions:
REMARK  status: ('A' for Active; 'I' for Inactive)
REMARK    1  A    between atoms: N1_6  and  C6_7 
ROOT
HETATM    1  C1  UNL     1      24.569   2.815  51.838  1.00  0.00     0.049 C 
HETATM    2  C2  UNL     1      25.280   3.561  50.801  1.00  0.00    -0.054 A 
HETATM    3  C3  UNL     1      24.968   4.765  50.366  1.00  0.00    -0.028 A 
HETATM    4  C4  UNL     1      26.018   4.973  49.362  1.00  0.00    -0.013 A 
HETATM    5  C5  UNL     1      26.230   6.117  48.678  1.00  0.00     0.105 C 
HETATM    6  N1  UNL     1      25.354   7.202  48.982  1.00  0.00    -0.333 N 
HETATM    7  C7  UNL     1      24.872   7.141  50.350  1.00  0.00     0.147 C 
HETATM    8  C8  UNL     1      24.027   5.854  50.456  1.00  0.00     0.036 C 
HETATM    9  C9  UNL     1      23.214   5.863  49.129  1.00  0.00     0.288 C 
HETATM   10  N2  UNL     1      22.126   6.763  49.398  1.00  0.00     0.091 N 
HETATM   11  C10 UNL     1      20.918   6.441  48.716  1.00  0.00     0.302 C 
HETATM   12  C11 UNL     1      20.344   5.100  49.098  1.00  0.00     0.300 C 
HETATM   13  N3  UNL     1      20.172   4.937  50.504  1.00  0.00     0.089 N 
HETATM   14  C12 UNL     1      21.255   4.153  51.055  1.00  0.00     0.217 C 
HETATM   15  C13 UNL     1      20.564   3.106  51.967  1.00  0.00     0.042 C 
HETATM   16  C14 UNL     1      22.089   4.990  51.956  1.00  0.00     0.042 C 
HETATM   17  C15 UNL     1      22.988   5.991  51.424  1.00  0.00     0.032 C 
HETATM   18  C16 UNL     1      22.029   7.036  50.778  1.00  0.00     0.278 C 
HETATM   19  C17 UNL     1      26.913   3.832  49.258  1.00  0.00     0.014 A 
HETATM   20  C18 UNL     1      26.442   2.981  50.148  1.00  0.00     0.008 A 
HETATM   21  H14 UNL     1      19.223   4.564  50.723  1.00  0.00     0.316 HD
ENDROOT
BRANCH   6  22
HETATM   22  C6  UNL     1      25.063   8.221  47.997  1.00  0.00     0.355 C 
HETATM   23  O1  UNL     1      25.077   7.842  46.801  1.00  0.00    -0.283 OA
ENDBRANCH   6  22
TORSDOF 1
ENDMDL
MODEL 8
REMARK VINA RESULT:      -6.3      9.684     12.208
REMARK  1 active torsions:
REMARK  status: ('A' for Active; 'I' for Inactive)
REMARK    1  A    between atoms: N1_6  and  C6_7 
ROOT
HETATM    1  C1  UNL     1      26.828   8.311  48.708  1.00  0.00     0.049 C 
HETATM    2  C2  UNL     1      27.898   7.329  48.551  1.00  0.00    -0.054 A 
HETATM    3  C3  UNL     1      29.190   7.592  48.527  1.00  0.00    -0.028 A 
HETATM    4  C4  UNL     1      29.740   6.242  48.355  1.00  0.00    -0.013 A 
HETATM    5  C5  UNL     1      31.052   5.924  48.376  1.00  0.00     0.105 C 
HETATM    6  N1  UNL     1      31.956   7.005  48.596  1.00  0.00    -0.333 N 
HETATM    7  C7  UNL     1      31.355   8.060  49.391  1.00  0.00     0.147 C 
HETATM    8  C8  UNL     1      30.191   8.628  48.550  1.00  0.00     0.036 C 
HETATM    9  C9  UNL     1      30.801   8.704  47.121  1.00  0.00     0.288 C 
HETATM   10  N2  UNL     1      31.565   9.921  47.137  1.00  0.00     0.091 N 
HETATM   11  C10 UNL     1      31.627  10.590  45.880  1.00  0.00     0.302 C 
HETATM   12  C11 UNL     1      30.284  11.044  45.367  1.00  0.00     0.300 C 
HETATM   13  N3  UNL     1      29.557  11.832  46.306  1.00  0.00     0.089 N 
HETATM   14  C12 UNL     1      28.555  11.028  46.969  1.00  0.00     0.217 C 
HETATM   15  C13 UNL     1      27.263  11.884  46.923  1.00  0.00     0.042 C 
HETATM   16  C14 UNL     1      28.888  10.873  48.408  1.00  0.00     0.042 C 
HETATM   17  C15 UNL     1      29.968  10.008  48.835  1.00  0.00     0.032 C 
HETATM   18  C16 UNL     1      31.240  10.705  48.263  1.00  0.00     0.278 C 
HETATM   19  C17 UNL     1      28.699   5.230  48.276  1.00  0.00     0.014 A 
HETATM   20  C18 UNL     1      27.581   5.918  48.400  1.00  0.00     0.008 A 
HETATM   21  H14 UNL     1      29.180  12.695  45.857  1.00  0.00     0.316 HD
ENDROOT
BRANCH   6  22
HETATM   22  C6  UNL     1      33.309   6.959  48.085  1.00  0.00     0.355 C 
HETATM   23  O1  UNL     1      34.133   7.711  48.658  1.00  0.00    -0.283 OA
ENDBRANCH   6  22
TORSDOF 1
ENDMDL
MODEL 9
REMARK VINA RESULT:      -6.1     10.549     13.071
REMARK  1 active torsions:
REMARK  status: ('A' for Active; 'I' for Inactive)
REMARK    1  A    between atoms: N1_6  and  C6_7 
ROOT
HETATM    1  C1  UNL     1      31.786   3.890  46.954  1.00  0.00     0.049 C 
HETATM    2  C2  UNL     1      32.537   4.859  46.158  1.00  0.00    -0.054 A 
HETATM    3  C3  UNL     1      32.617   6.153  46.394  1.00  0.00    -0.028 A 
HETATM    4  C4  UNL     1      33.488   6.578  45.292  1.00  0.00    -0.013 A 
HETATM    5  C5  UNL     1      33.986   7.821  45.123  1.00  0.00     0.105 C 
HETATM    6  N1  UNL     1      33.630   8.780  46.117  1.00  0.00    -0.333 N 
HETATM    7  C7  UNL     1      33.394   8.160  47.407  1.00  0.00     0.147 C 
HETATM    8  C8  UNL     1      32.167   7.239  47.229  1.00  0.00     0.036 C 
HETATM    9  C9  UNL     1      31.205   8.107  46.368  1.00  0.00     0.288 C 
HETATM   10  N2  UNL     1      30.582   8.981  47.323  1.00  0.00     0.091 N 
HETATM   11  C10 UNL     1      29.244   9.346  46.997  1.00  0.00     0.302 C 
HETATM   12  C11 UNL     1      28.292   8.177  46.942  1.00  0.00     0.300 C 
HETATM   13  N3  UNL     1      28.309   7.378  48.123  1.00  0.00     0.089 N 
HETATM   14  C12 UNL     1      29.107   6.190  47.915  1.00  0.00     0.217 C 
HETATM   15  C13 UNL     1      28.244   5.028  48.472  1.00  0.00     0.042 C 
HETATM   16  C14 UNL     1      30.326   6.233  48.763  1.00  0.00     0.042 C 
HETATM   17  C15 UNL     1      31.427   7.117  48.442  1.00  0.00     0.032 C 
HETATM   18  C16 UNL     1      30.822   8.540  48.640  1.00  0.00     0.278 C 
HETATM   19  C17 UNL     1      33.874   5.466  44.437  1.00  0.00     0.014 A 
HETATM   20  C18 UNL     1      33.281   4.425  44.987  1.00  0.00     0.008 A 
HETATM   21  H14 UNL     1      27.340   7.185  48.457  1.00  0.00     0.316 HD
ENDROOT
BRANCH   6  22
HETATM   22  C6  UNL     1      33.571  10.191  45.801  1.00  0.00     0.355 C 
HETATM   23  O1  UNL     1      33.362  10.957  46.772  1.00  0.00    -0.283 OA
ENDBRANCH   6  22
TORSDOF 1
ENDMDL
