MODEL 1
REMARK VINA RESULT:      -9.6      0.000      0.000
REMARK  4 active torsions:
REMARK  status: ('A' for Active; 'I' for Inactive)
REMARK    1  A    between atoms: C5_6  and  N1_7 
REMARK    2  A    between atoms: N1_7  and  C6_8 
REMARK    3  A    between atoms: C8_10  and  C9_11 
REMARK    4  A    between atoms: C9_11  and  C10_12 
ROOT
HETATM    1  C6  UNL     1      24.791   1.829  52.916  1.00  0.00     0.108 C 
HETATM    2  C7  UNL     1      25.154   2.266  51.537  1.00  0.00     0.023 C 
HETATM    3  C8  UNL     1      26.256   2.755  50.989  1.00  0.00     0.007 C 
HETATM    4  N2  UNL     1      27.318   2.874  51.930  1.00  0.00    -0.393 N 
HETATM    5  C20 UNL     1      27.291   2.017  53.085  1.00  0.00     0.122 C 
HETATM    6  C21 UNL     1      25.996   2.058  53.839  1.00  0.00     0.048 C 
HETATM    7  H16 UNL     1      28.107   3.556  51.798  1.00  0.00     0.159 HD
ENDROOT
BRANCH   3   8
HETATM    8  C9  UNL     1      26.439   3.137  49.589  1.00  0.00     0.095 C 
BRANCH   8   9
HETATM    9  C10 UNL     1      25.925   4.450  49.206  1.00  0.00    -0.042 A 
HETATM   10  C11 UNL     1      24.644   4.919  49.279  1.00  0.00     0.008 A 
HETATM   11  C12 UNL     1      24.225   6.171  48.896  1.00  0.00     0.001 A 
HETATM   12  C13 UNL     1      25.186   7.031  48.393  1.00  0.00     0.012 A 
HETATM   13  C14 UNL     1      26.502   6.603  48.298  1.00  0.00    -0.025 A 
HETATM   14  C15 UNL     1      27.420   7.509  47.787  1.00  0.00     0.012 A 
HETATM   15  C19 UNL     1      26.895   5.320  48.698  1.00  0.00    -0.019 A 
HETATM   16  C16 UNL     1      28.730   7.093  47.689  1.00  0.00     0.001 A 
HETATM   17  C17 UNL     1      29.173   5.840  48.068  1.00  0.00     0.001 A 
HETATM   18  C18 UNL     1      28.235   4.973  48.568  1.00  0.00     0.013 A 
ENDBRANCH   8   9
ENDBRANCH   3   8
BRANCH   1  19
HETATM   19  N1  UNL     1      24.358   0.462  52.988  1.00  0.00    -0.382 N 
HETATM   20  H4  UNL     1      25.119  -0.240  52.776  1.00  0.00     0.160 HD
BRANCH  19  21
HETATM   21  C5  UNL     1      23.064  -0.033  53.301  1.00  0.00     0.029 A 
HETATM   22  C4  UNL     1      22.842  -0.872  54.370  1.00  0.00     0.029 A 
HETATM   23  C3  UNL     1      21.583  -1.372  54.686  1.00  0.00     0.004 A 
HETATM   24  C2  UNL     1      20.523  -1.002  53.882  1.00  0.00     0.019 A 
HETATM   25  C1  UNL     1      20.740  -0.171  52.822  1.00  0.00     0.013 A 
HETATM   26 BR1  UNL     1      19.289   0.367  51.682  1.00  0.00    -0.051 Br
HETATM   27  C22 UNL     1      21.987   0.310  52.530  1.00  0.00     0.048 A 
ENDBRANCH  19  21
ENDBRANCH   1  19
TORSDOF 4
ENDMDL
MODEL 2
REMARK VINA RESULT:      -9.2      3.709      8.491
REMARK  4 active torsions:
REMARK  status: ('A' for Active; 'I' for Inactive)
REMARK    1  A    between atoms: C5_6  and  N1_7 
REMARK    2  A    between atoms: N1_7  and  C6_8 
REMARK    3  A    between atoms: C8_10  and  C9_11 
REMARK    4  A    between atoms: C9_11  and  C10_12 
ROOT
HETATM    1  C6  UNL     1      25.686   4.304  50.050  1.00  0.00     0.108 C 
HETATM    2  C7  UNL     1      25.828   3.215  51.060  1.00  0.00     0.023 C 
HETATM    3  C8  UNL     1      25.040   2.232  51.466  1.00  0.00     0.007 C 
HETATM    4  N2  UNL     1      23.796   2.217  50.774  1.00  0.00    -0.393 N 
HETATM    5  C20 UNL     1      23.749   2.814  49.465  1.00  0.00     0.122 C 
HETATM    6  C21 UNL     1      24.290   4.211  49.418  1.00  0.00     0.048 C 
HETATM    7  H16 UNL     1      22.932   1.783  51.186  1.00  0.00     0.159 HD
ENDROOT
BRANCH   3   8
HETATM    8  C9  UNL     1      25.347   1.233  52.490  1.00  0.00     0.095 C 
BRANCH   8   9
HETATM    9  C10 UNL     1      26.722   1.219  52.984  1.00  0.00    -0.042 A 
HETATM   10  C11 UNL     1      27.471   2.260  53.453  1.00  0.00     0.008 A 
HETATM   11  C12 UNL     1      28.768   2.178  53.901  1.00  0.00     0.001 A 
HETATM   12  C13 UNL     1      29.366   0.930  53.876  1.00  0.00     0.012 A 
HETATM   13  C14 UNL     1      28.648  -0.161  53.410  1.00  0.00    -0.025 A 
HETATM   14  C15 UNL     1      29.299  -1.386  53.409  1.00  0.00     0.012 A 
HETATM   15  C19 UNL     1      27.327  -0.042  52.959  1.00  0.00    -0.019 A 
HETATM   16  C16 UNL     1      28.594  -2.476  52.947  1.00  0.00     0.001 A 
HETATM   17  C17 UNL     1      27.290  -2.416  52.492  1.00  0.00     0.001 A 
HETATM   18  C18 UNL     1      26.681  -1.187  52.508  1.00  0.00     0.013 A 
ENDBRANCH   8   9
ENDBRANCH   3   8
BRANCH   1  19
HETATM   19  N1  UNL     1      26.699   4.277  49.034  1.00  0.00    -0.382 N 
HETATM   20  H4  UNL     1      26.868   3.318  48.622  1.00  0.00     0.160 HD
BRANCH  19  21
HETATM   21  C5  UNL     1      27.474   5.359  48.537  1.00  0.00     0.029 A 
HETATM   22  C4  UNL     1      26.921   6.592  48.272  1.00  0.00     0.029 A 
HETATM   23  C3  UNL     1      27.663   7.659  47.778  1.00  0.00     0.004 A 
HETATM   24  C2  UNL     1      29.010   7.456  47.548  1.00  0.00     0.019 A 
HETATM   25  C1  UNL     1      29.560   6.235  47.810  1.00  0.00     0.013 A 
HETATM   26 BR1  UNL     1      31.430   5.914  47.503  1.00  0.00    -0.051 Br
HETATM   27  C22 UNL     1      28.811   5.199  48.296  1.00  0.00     0.048 A 
ENDBRANCH  19  21
ENDBRANCH   1  19
TORSDOF 4
ENDMDL
MODEL 3
REMARK VINA RESULT:      -9.1      0.940      2.198
REMARK  4 active torsions:
REMARK  status: ('A' for Active; 'I' for Inactive)
REMARK    1  A    between atoms: C5_6  and  N1_7 
REMARK    2  A    between atoms: N1_7  and  C6_8 
REMARK    3  A    between atoms: C8_10  and  C9_11 
REMARK    4  A    between atoms: C9_11  and  C10_12 
ROOT
HETATM    1  C6  UNL     1      24.951   1.824  53.096  1.00  0.00     0.108 C 
HETATM    2  C7  UNL     1      24.931   2.395  51.717  1.00  0.00     0.023 C 
HETATM    3  C8  UNL     1      25.845   2.961  50.945  1.00  0.00     0.007 C 
HETATM    4  N2  UNL     1      27.120   3.023  51.575  1.00  0.00    -0.393 N 
HETATM    5  C20 UNL     1      27.405   2.064  52.609  1.00  0.00     0.122 C 
HETATM    6  C21 UNL     1      26.359   2.002  53.682  1.00  0.00     0.048 C 
HETATM    7  H16 UNL     1      27.843   3.736  51.303  1.00  0.00     0.159 HD
ENDROOT
BRANCH   3   8
HETATM    8  C9  UNL     1      25.645   3.474  49.589  1.00  0.00     0.095 C 
BRANCH   8   9
HETATM    9  C10 UNL     1      26.421   4.656  49.226  1.00  0.00    -0.042 A 
HETATM   10  C11 UNL     1      27.644   4.721  48.619  1.00  0.00     0.008 A 
HETATM   11  C12 UNL     1      28.324   5.874  48.308  1.00  0.00     0.001 A 
HETATM   12  C13 UNL     1      27.718   7.074  48.637  1.00  0.00     0.012 A 
HETATM   13  C14 UNL     1      26.476   7.063  49.255  1.00  0.00    -0.025 A 
HETATM   14  C15 UNL     1      25.918   8.295  49.561  1.00  0.00     0.012 A 
HETATM   15  C19 UNL     1      25.810   5.869  49.559  1.00  0.00    -0.019 A 
HETATM   16  C16 UNL     1      24.685   8.295  50.175  1.00  0.00     0.001 A 
HETATM   17  C17 UNL     1      23.983   7.148  50.497  1.00  0.00     0.001 A 
HETATM   18  C18 UNL     1      24.568   5.949  50.179  1.00  0.00     0.013 A 
ENDBRANCH   8   9
ENDBRANCH   3   8
BRANCH   1  19
HETATM   19  N1  UNL     1      24.556   0.446  53.150  1.00  0.00    -0.382 N 
HETATM   20  H4  UNL     1      25.334  -0.233  52.922  1.00  0.00     0.160 HD
BRANCH  19  21
HETATM   21  C5  UNL     1      23.278  -0.090  53.467  1.00  0.00     0.029 A 
HETATM   22  C4  UNL     1      23.091  -0.958  54.518  1.00  0.00     0.029 A 
HETATM   23  C3  UNL     1      21.848  -1.497  54.836  1.00  0.00     0.004 A 
HETATM   24  C2  UNL     1      20.769  -1.135  54.054  1.00  0.00     0.019 A 
HETATM   25  C1  UNL     1      20.953  -0.273  53.012  1.00  0.00     0.013 A 
HETATM   26 BR1  UNL     1      19.476   0.255  51.902  1.00  0.00    -0.051 Br
HETATM   27  C22 UNL     1      22.184   0.246  52.717  1.00  0.00     0.048 A 
ENDBRANCH  19  21
ENDBRANCH   1  19
TORSDOF 4
ENDMDL
MODEL 4
REMARK VINA RESULT:      -8.8      4.570      6.388
REMARK  4 active torsions:
REMARK  status: ('A' for Active; 'I' for Inactive)
REMARK    1  A    between atoms: C5_6  and  N1_7 
REMARK    2  A    between atoms: N1_7  and  C6_8 
REMARK    3  A    between atoms: C8_10  and  C9_11 
REMARK    4  A    between atoms: C9_11  and  C10_12 
ROOT
HETATM    1  C6  UNL     1      21.417   0.482  53.568  1.00  0.00     0.108 C 
HETATM    2  C7  UNL     1      22.720   0.380  52.849  1.00  0.00     0.023 C 
HETATM    3  C8  UNL     1      23.889  -0.171  53.141  1.00  0.00     0.007 C 
HETATM    4  N2  UNL     1      23.882  -0.807  54.414  1.00  0.00    -0.393 N 
HETATM    5  C20 UNL     1      22.616  -1.252  54.936  1.00  0.00     0.122 C 
HETATM    6  C21 UNL     1      21.557  -0.191  54.941  1.00  0.00     0.048 C 
HETATM    7  H16 UNL     1      24.763  -0.961  54.967  1.00  0.00     0.159 HD
ENDROOT
BRANCH   3   8
HETATM    8  C9  UNL     1      25.085  -0.176  52.299  1.00  0.00     0.095 C 
BRANCH   8   9
HETATM    9  C10 UNL     1      26.273   0.459  52.864  1.00  0.00    -0.042 A 
HETATM   10  C11 UNL     1      26.452   1.763  53.229  1.00  0.00     0.008 A 
HETATM   11  C12 UNL     1      27.605   2.299  53.753  1.00  0.00     0.001 A 
HETATM   12  C13 UNL     1      28.677   1.442  53.926  1.00  0.00     0.012 A 
HETATM   13  C14 UNL     1      28.547   0.107  53.571  1.00  0.00    -0.025 A 
HETATM   14  C15 UNL     1      29.655  -0.703  53.768  1.00  0.00     0.012 A 
HETATM   15  C19 UNL     1      27.358  -0.406  53.039  1.00  0.00    -0.019 A 
HETATM   16  C16 UNL     1      29.537  -2.031  53.418  1.00  0.00     0.001 A 
HETATM   17  C17 UNL     1      28.388  -2.591  52.890  1.00  0.00     0.001 A 
HETATM   18  C18 UNL     1      27.314  -1.756  52.710  1.00  0.00     0.013 A 
ENDBRANCH   8   9
ENDBRANCH   3   8
BRANCH   1  19
HETATM   19  N1  UNL     1      20.317  -0.087  52.842  1.00  0.00    -0.382 N 
HETATM   20  H4  UNL     1      20.240  -1.137  52.932  1.00  0.00     0.160 HD
BRANCH  19  21
HETATM   21  C5  UNL     1      19.353   0.584  52.042  1.00  0.00     0.029 A 
HETATM   22  C4  UNL     1      19.295   1.957  51.966  1.00  0.00     0.029 A 
HETATM   23  C3  UNL     1      18.352   2.628  51.194  1.00  0.00     0.004 A 
HETATM   24  C2  UNL     1      17.445   1.870  50.481  1.00  0.00     0.019 A 
HETATM   25  C1  UNL     1      17.501   0.509  50.555  1.00  0.00     0.013 A 
HETATM   26 BR1  UNL     1      16.256  -0.580  49.576  1.00  0.00    -0.051 Br
HETATM   27  C22 UNL     1      18.436  -0.132  51.320  1.00  0.00     0.048 A 
ENDBRANCH  19  21
ENDBRANCH   1  19
TORSDOF 4
ENDMDL
MODEL 5
REMARK VINA RESULT:      -8.8      3.652      5.589
REMARK  4 active torsions:
REMARK  status: ('A' for Active; 'I' for Inactive)
REMARK    1  A    between atoms: C5_6  and  N1_7 
REMARK    2  A    between atoms: N1_7  and  C6_8 
REMARK    3  A    between atoms: C8_10  and  C9_11 
REMARK    4  A    between atoms: C9_11  and  C10_12 
ROOT
HETATM    1  C6  UNL     1      21.598   3.833  51.374  1.00  0.00     0.108 C 
HETATM    2  C7  UNL     1      22.763   2.905  51.291  1.00  0.00     0.023 C 
HETATM    3  C8  UNL     1      24.058   3.034  51.534  1.00  0.00     0.007 C 
HETATM    4  N2  UNL     1      24.395   4.344  51.978  1.00  0.00    -0.393 N 
HETATM    5  C20 UNL     1      23.364   5.125  52.609  1.00  0.00     0.122 C 
HETATM    6  C21 UNL     1      22.100   5.217  51.809  1.00  0.00     0.048 C 
HETATM    7  H16 UNL     1      25.362   4.742  51.863  1.00  0.00     0.159 HD
ENDROOT
BRANCH   3   8
HETATM    8  C9  UNL     1      25.079   1.996  51.396  1.00  0.00     0.095 C 
BRANCH   8   9
HETATM    9  C10 UNL     1      25.214   1.070  52.517  1.00  0.00    -0.042 A 
HETATM   10  C11 UNL     1      24.292   0.196  53.018  1.00  0.00     0.008 A 
HETATM   11  C12 UNL     1      24.483  -0.649  54.085  1.00  0.00     0.001 A 
HETATM   12  C13 UNL     1      25.719  -0.610  54.707  1.00  0.00     0.012 A 
HETATM   13  C14 UNL     1      26.692   0.261  54.237  1.00  0.00    -0.025 A 
HETATM   14  C15 UNL     1      27.910   0.255  54.900  1.00  0.00     0.012 A 
HETATM   15  C19 UNL     1      26.463   1.109  53.147  1.00  0.00    -0.019 A 
HETATM   16  C16 UNL     1      28.882   1.117  54.441  1.00  0.00     0.001 A 
HETATM   17  C17 UNL     1      28.711   1.974  53.370  1.00  0.00     0.001 A 
HETATM   18  C18 UNL     1      27.492   1.951  52.742  1.00  0.00     0.013 A 
ENDBRANCH   8   9
ENDBRANCH   3   8
BRANCH   1  19
HETATM   19  N1  UNL     1      20.564   3.375  52.258  1.00  0.00    -0.382 N 
HETATM   20  H4  UNL     1      20.151   4.135  52.866  1.00  0.00     0.160 HD
BRANCH  19  21
HETATM   21  C5  UNL     1      20.051   2.058  52.400  1.00  0.00     0.029 A 
HETATM   22  C4  UNL     1      20.557   1.173  53.324  1.00  0.00     0.029 A 
HETATM   23  C3  UNL     1      20.071  -0.123  53.470  1.00  0.00     0.004 A 
HETATM   24  C2  UNL     1      19.038  -0.520  52.646  1.00  0.00     0.019 A 
HETATM   25  C1  UNL     1      18.534   0.356  51.729  1.00  0.00     0.013 A 
HETATM   26 BR1  UNL     1      17.095  -0.161  50.564  1.00  0.00    -0.051 Br
HETATM   27  C22 UNL     1      19.026   1.625  51.602  1.00  0.00     0.048 A 
ENDBRANCH  19  21
ENDBRANCH   1  19
TORSDOF 4
ENDMDL
MODEL 6
REMARK VINA RESULT:      -8.7      3.244      8.849
REMARK  4 active torsions:
REMARK  status: ('A' for Active; 'I' for Inactive)
REMARK    1  A    between atoms: C5_6  and  N1_7 
REMARK    2  A    between atoms: N1_7  and  C6_8 
REMARK    3  A    between atoms: C8_10  and  C9_11 
REMARK    4  A    between atoms: C9_11  and  C10_12 
ROOT
HETATM    1  C6  UNL     1      24.855   5.139  50.473  1.00  0.00     0.108 C 
HETATM    2  C7  UNL     1      24.458   3.703  50.564  1.00  0.00     0.023 C 
HETATM    3  C8  UNL     1      23.341   3.080  50.907  1.00  0.00     0.007 C 
HETATM    4  N2  UNL     1      22.301   3.988  51.250  1.00  0.00    -0.393 N 
HETATM    5  C20 UNL     1      22.358   5.315  50.697  1.00  0.00     0.122 C 
HETATM    6  C21 UNL     1      23.670   6.007  50.919  1.00  0.00     0.048 C 
HETATM    7  H16 UNL     1      21.505   3.714  51.881  1.00  0.00     0.159 HD
ENDROOT
BRANCH   3   8
HETATM    8  C9  UNL     1      23.125   1.633  50.941  1.00  0.00     0.095 C 
BRANCH   8   9
HETATM    9  C10 UNL     1      23.780   0.908  52.026  1.00  0.00    -0.042 A 
HETATM   10  C11 UNL     1      25.114   0.808  52.302  1.00  0.00     0.008 A 
HETATM   11  C12 UNL     1      25.667   0.101  53.344  1.00  0.00     0.001 A 
HETATM   12  C13 UNL     1      24.795  -0.566  54.186  1.00  0.00     0.012 A 
HETATM   13  C14 UNL     1      23.430  -0.497  53.949  1.00  0.00    -0.025 A 
HETATM   14  C15 UNL     1      22.606  -1.186  54.827  1.00  0.00     0.012 A 
HETATM   15  C19 UNL     1      22.900   0.232  52.878  1.00  0.00    -0.019 A 
HETATM   16  C16 UNL     1      21.249  -1.123  54.600  1.00  0.00     0.001 A 
HETATM   17  C17 UNL     1      20.671  -0.419  53.559  1.00  0.00     0.001 A 
HETATM   18  C18 UNL     1      21.520   0.249  52.713  1.00  0.00     0.013 A 
ENDBRANCH   8   9
ENDBRANCH   3   8
BRANCH   1  19
HETATM   19  N1  UNL     1      25.296   5.528  49.164  1.00  0.00    -0.382 N 
HETATM   20  H4  UNL     1      24.534   5.509  48.431  1.00  0.00     0.160 HD
BRANCH  19  21
HETATM   21  C5  UNL     1      26.600   5.922  48.758  1.00  0.00     0.029 A 
HETATM   22  C4  UNL     1      27.622   5.014  48.603  1.00  0.00     0.029 A 
HETATM   23  C3  UNL     1      28.905   5.384  48.214  1.00  0.00     0.004 A 
HETATM   24  C2  UNL     1      29.145   6.723  47.978  1.00  0.00     0.019 A 
HETATM   25  C1  UNL     1      28.133   7.626  48.130  1.00  0.00     0.013 A 
HETATM   26 BR1  UNL     1      28.428   9.497  47.810  1.00  0.00    -0.051 Br
HETATM   27  C22 UNL     1      26.878   7.239  48.513  1.00  0.00     0.048 A 
ENDBRANCH  19  21
ENDBRANCH   1  19
TORSDOF 4
ENDMDL
MODEL 7
REMARK VINA RESULT:      -8.6      2.840      3.657
REMARK  4 active torsions:
REMARK  status: ('A' for Active; 'I' for Inactive)
REMARK    1  A    between atoms: C5_6  and  N1_7 
REMARK    2  A    between atoms: N1_7  and  C6_8 
REMARK    3  A    between atoms: C8_10  and  C9_11 
REMARK    4  A    between atoms: C9_11  and  C10_12 
ROOT
HETATM    1  C6  UNL     1      23.478   1.829  51.901  1.00  0.00     0.108 C 
HETATM    2  C7  UNL     1      24.474   2.354  50.922  1.00  0.00     0.023 C 
HETATM    3  C8  UNL     1      24.926   3.565  50.631  1.00  0.00     0.007 C 
HETATM    4  N2  UNL     1      24.330   4.571  51.443  1.00  0.00    -0.393 N 
HETATM    5  C20 UNL     1      23.813   4.179  52.727  1.00  0.00     0.122 C 
HETATM    6  C21 UNL     1      22.873   3.012  52.670  1.00  0.00     0.048 C 
HETATM    7  H16 UNL     1      24.267   5.574  51.134  1.00  0.00     0.159 HD
ENDROOT
BRANCH   3   8
HETATM    8  C9  UNL     1      25.925   3.903  49.618  1.00  0.00     0.095 C 
BRANCH   8   9
HETATM    9  C10 UNL     1      25.786   5.211  48.986  1.00  0.00    -0.042 A 
HETATM   10  C11 UNL     1      24.655   5.957  48.807  1.00  0.00     0.008 A 
HETATM   11  C12 UNL     1      24.593   7.187  48.196  1.00  0.00     0.001 A 
HETATM   12  C13 UNL     1      25.780   7.716  47.721  1.00  0.00     0.012 A 
HETATM   13  C14 UNL     1      26.958   6.999  47.877  1.00  0.00    -0.025 A 
HETATM   14  C15 UNL     1      28.115   7.580  47.382  1.00  0.00     0.012 A 
HETATM   15  C19 UNL     1      26.985   5.747  48.505  1.00  0.00    -0.019 A 
HETATM   16  C16 UNL     1      29.290   6.876  47.532  1.00  0.00     0.001 A 
HETATM   17  C17 UNL     1      29.375   5.638  48.143  1.00  0.00     0.001 A 
HETATM   18  C18 UNL     1      28.208   5.097  48.620  1.00  0.00     0.013 A 
ENDBRANCH   8   9
ENDBRANCH   3   8
BRANCH   1  19
HETATM   19  N1  UNL     1      24.025   0.865  52.813  1.00  0.00    -0.382 N 
HETATM   20  H4  UNL     1      23.310   0.433  53.461  1.00  0.00     0.160 HD
BRANCH  19  21
HETATM   21  C5  UNL     1      25.376   0.442  52.936  1.00  0.00     0.029 A 
HETATM   22  C4  UNL     1      25.751  -0.868  52.744  1.00  0.00     0.029 A 
HETATM   23  C3  UNL     1      27.068  -1.299  52.869  1.00  0.00     0.004 A 
HETATM   24  C2  UNL     1      28.025  -0.361  53.200  1.00  0.00     0.019 A 
HETATM   25  C1  UNL     1      27.655   0.939  53.391  1.00  0.00     0.013 A 
HETATM   26 BR1  UNL     1      28.958   2.273  53.854  1.00  0.00    -0.051 Br
HETATM   27  C22 UNL     1      26.355   1.342  53.263  1.00  0.00     0.048 A 
ENDBRANCH  19  21
ENDBRANCH   1  19
TORSDOF 4
ENDMDL
MODEL 8
REMARK VINA RESULT:      -8.6      2.885      5.829
REMARK  4 active torsions:
REMARK  status: ('A' for Active; 'I' for Inactive)
REMARK    1  A    between atoms: C5_6  and  N1_7 
REMARK    2  A    between atoms: N1_7  and  C6_8 
REMARK    3  A    between atoms: C8_10  and  C9_11 
REMARK    4  A    between atoms: C9_11  and  C10_12 
ROOT
HETATM    1  C6  UNL     1      23.705   5.090  48.488  1.00  0.00     0.108 C 
HETATM    2  C7  UNL     1      24.676   4.188  49.175  1.00  0.00     0.023 C 
HETATM    3  C8  UNL     1      25.344   4.258  50.316  1.00  0.00     0.007 C 
HETATM    4  N2  UNL     1      25.058   5.452  51.036  1.00  0.00    -0.393 N 
HETATM    5  C20 UNL     1      23.798   6.101  50.787  1.00  0.00     0.122 C 
HETATM    6  C21 UNL     1      23.526   6.357  49.336  1.00  0.00     0.048 C 
HETATM    7  H16 UNL     1      25.731   5.858  51.734  1.00  0.00     0.159 HD
ENDROOT
BRANCH   3   8
HETATM    8  C9  UNL     1      26.275   3.260  50.844  1.00  0.00     0.095 C 
BRANCH   8   9
HETATM    9  C10 UNL     1      25.696   2.228  51.700  1.00  0.00    -0.042 A 
HETATM   10  C11 UNL     1      24.430   1.713  51.680  1.00  0.00     0.008 A 
HETATM   11  C12 UNL     1      23.946   0.740  52.522  1.00  0.00     0.001 A 
HETATM   12  C13 UNL     1      24.818   0.237  53.472  1.00  0.00     0.012 A 
HETATM   13  C14 UNL     1      26.115   0.726  53.534  1.00  0.00    -0.025 A 
HETATM   14  C15 UNL     1      26.942   0.184  54.506  1.00  0.00     0.012 A 
HETATM   15  C19 UNL     1      26.576   1.719  52.661  1.00  0.00    -0.019 A 
HETATM   16  C16 UNL     1      28.232   0.663  54.576  1.00  0.00     0.001 A 
HETATM   17  C17 UNL     1      28.739   1.640  53.741  1.00  0.00     0.001 A 
HETATM   18  C18 UNL     1      27.890   2.151  52.793  1.00  0.00     0.013 A 
ENDBRANCH   8   9
ENDBRANCH   3   8
BRANCH   1  19
HETATM   19  N1  UNL     1      22.434   4.473  48.234  1.00  0.00    -0.382 N 
HETATM   20  H4  UNL     1      21.844   4.985  47.521  1.00  0.00     0.160 HD
BRANCH  19  21
HETATM   21  C5  UNL     1      21.899   3.292  48.813  1.00  0.00     0.029 A 
HETATM   22  C4  UNL     1      21.894   2.088  48.146  1.00  0.00     0.029 A 
HETATM   23  C3  UNL     1      21.368   0.924  48.697  1.00  0.00     0.004 A 
HETATM   24  C2  UNL     1      20.831   0.998  49.967  1.00  0.00     0.019 A 
HETATM   25  C1  UNL     1      20.835   2.190  50.631  1.00  0.00     0.013 A 
HETATM   26 BR1  UNL     1      20.098   2.332  52.400  1.00  0.00    -0.051 Br
HETATM   27  C22 UNL     1      21.358   3.323  50.071  1.00  0.00     0.048 A 
ENDBRANCH  19  21
ENDBRANCH   1  19
TORSDOF 4
ENDMDL
MODEL 9
REMARK VINA RESULT:      -8.6      3.318      8.154
REMARK  4 active torsions:
REMARK  status: ('A' for Active; 'I' for Inactive)
REMARK    1  A    between atoms: C5_6  and  N1_7 
REMARK    2  A    between atoms: N1_7  and  C6_8 
REMARK    3  A    between atoms: C8_10  and  C9_11 
REMARK    4  A    between atoms: C9_11  and  C10_12 
ROOT
HETATM    1  C6  UNL     1      24.840   4.965  49.672  1.00  0.00     0.108 C 
HETATM    2  C7  UNL     1      24.902   4.375  51.041  1.00  0.00     0.023 C 
HETATM    3  C8  UNL     1      24.170   3.481  51.689  1.00  0.00     0.007 C 
HETATM    4  N2  UNL     1      23.105   2.976  50.891  1.00  0.00    -0.393 N 
HETATM    5  C20 UNL     1      23.255   3.026  49.461  1.00  0.00     0.122 C 
HETATM    6  C21 UNL     1      23.623   4.382  48.939  1.00  0.00     0.048 C 
HETATM    7  H16 UNL     1      22.233   2.570  51.316  1.00  0.00     0.159 HD
ENDROOT
BRANCH   3   8
HETATM    8  C9  UNL     1      24.380   3.010  53.058  1.00  0.00     0.095 C 
BRANCH   8   9
HETATM    9  C10 UNL     1      24.771   1.611  53.206  1.00  0.00    -0.042 A 
HETATM   10  C11 UNL     1      23.979   0.498  53.197  1.00  0.00     0.008 A 
HETATM   11  C12 UNL     1      24.414  -0.798  53.347  1.00  0.00     0.001 A 
HETATM   12  C13 UNL     1      25.773  -0.991  53.522  1.00  0.00     0.012 A 
HETATM   13  C14 UNL     1      26.621   0.107  53.539  1.00  0.00    -0.025 A 
HETATM   14  C15 UNL     1      27.972  -0.149  53.718  1.00  0.00     0.012 A 
HETATM   15  C19 UNL     1      26.145   1.414  53.384  1.00  0.00    -0.019 A 
HETATM   16  C16 UNL     1      28.823   0.934  53.737  1.00  0.00     0.001 A 
HETATM   17  C17 UNL     1      28.408   2.245  53.588  1.00  0.00     0.001 A 
HETATM   18  C18 UNL     1      27.064   2.456  53.414  1.00  0.00     0.013 A 
ENDBRANCH   8   9
ENDBRANCH   3   8
BRANCH   1  19
HETATM   19  N1  UNL     1      26.035   4.756  48.905  1.00  0.00    -0.382 N 
HETATM   20  H4  UNL     1      26.099   3.797  48.464  1.00  0.00     0.160 HD
BRANCH  19  21
HETATM   21  C5  UNL     1      27.104   5.664  48.680  1.00  0.00     0.029 A 
HETATM   22  C4  UNL     1      26.928   7.028  48.742  1.00  0.00     0.029 A 
HETATM   23  C3  UNL     1      27.963   7.931  48.517  1.00  0.00     0.004 A 
HETATM   24  C2  UNL     1      29.210   7.420  48.218  1.00  0.00     0.019 A 
HETATM   25  C1  UNL     1      29.386   6.068  48.156  1.00  0.00     0.013 A 
HETATM   26 BR1  UNL     1      31.108   5.319  47.744  1.00  0.00    -0.051 Br
HETATM   27  C22 UNL     1      28.356   5.198  48.381  1.00  0.00     0.048 A 
ENDBRANCH  19  21
ENDBRANCH   1  19
TORSDOF 4
ENDMDL
