MODEL 1
REMARK VINA RESULT:      -9.2      0.000      0.000
REMARK  3 active torsions:
REMARK  status: ('A' for Active; 'I' for Inactive)
REMARK    1  A    between atoms: C3_3  and  N1_4 
REMARK    2  A    between atoms: N1_4  and  C4_5 
REMARK    3  A    between atoms: C4_5  and  N2_6 
ROOT
HETATM    1  C1  UNL     1      27.054   4.270  49.133  1.00  0.00     0.026 C 
HETATM    2  C2  UNL     1      25.915   4.644  49.660  1.00  0.00     0.020 C 
HETATM    3  C3  UNL     1      25.413   6.010  49.572  1.00  0.00     0.074 C 
HETATM    4  C6  UNL     1      24.438   6.012  50.434  1.00  0.00     0.112 C 
HETATM    5  N3  UNL     1      24.146   4.925  50.995  1.00  0.00    -0.240 NA
HETATM    6  C7  UNL     1      24.966   3.837  50.401  1.00  0.00     0.251 C 
HETATM    7  C8  UNL     1      23.959   3.135  49.487  1.00  0.00     0.071 C 
HETATM    8  C9  UNL     1      22.849   2.316  50.003  1.00  0.00     0.035 C 
HETATM    9  C10 UNL     1      21.700   2.878  50.729  1.00  0.00     0.273 C 
HETATM   10  N4  UNL     1      20.680   2.158  51.343  1.00  0.00     0.095 NA
HETATM   11  C11 UNL     1      20.343   0.800  50.990  1.00  0.00     0.292 C 
HETATM   12  C12 UNL     1      19.479   0.136  52.113  1.00  0.00     0.152 C 
HETATM   13  N5  UNL     1      20.405  -0.384  53.152  1.00  0.00    -0.382 N 
HETATM   14  C13 UNL     1      20.860  -1.389  54.098  1.00  0.00     0.149 C 
HETATM   15  C14 UNL     1      21.250   0.738  53.096  1.00  0.00     0.087 C 
HETATM   16  C15 UNL     1      22.466   0.273  53.185  1.00  0.00     0.168 A 
HETATM   17  N6  UNL     1      23.506  -0.626  53.310  1.00  0.00    -0.336 N 
HETATM   18  C16 UNL     1      24.654   0.211  53.151  1.00  0.00     0.051 A 
HETATM   19  C17 UNL     1      26.009  -0.013  53.025  1.00  0.00     0.027 A 
HETATM   20  C18 UNL     1      26.733   1.195  52.708  1.00  0.00     0.020 A 
HETATM   21  C19 UNL     1      25.810   2.166  52.656  1.00  0.00     0.220 A 
HETATM   22  C20 UNL     1      24.637   2.855  52.691  1.00  0.00     0.281 A 
HETATM   23  C21 UNL     1      24.326   1.528  52.954  1.00  0.00     0.182 A 
HETATM   24  O1  UNL     1      22.980   1.507  52.995  1.00  0.00    -0.311 OA
HETATM   25  N7  UNL     1      25.366   3.037  51.486  1.00  0.00    -0.010 N 
HETATM   26  C22 UNL     1      20.751   2.169  52.848  1.00  0.00     0.333 C 
HETATM   27  H21 UNL     1      23.316  -1.565  53.457  1.00  0.00     0.168 HD
HETATM   28  H25 UNL     1      26.278   2.892  50.892  1.00  0.00     0.285 HD
ENDROOT
BRANCH   3  29
HETATM   29  N1  UNL     1      25.902   7.058  48.731  1.00  0.00    -0.349 N 
HETATM   30  H3  UNL     1      25.705   7.170  47.708  1.00  0.00     0.167 HD
BRANCH  29  31
HETATM   31  C4  UNL     1      26.738   8.051  49.327  1.00  0.00     0.200 C 
BRANCH  31  32
HETATM   32  N2  UNL     1      28.001   8.108  48.987  1.00  0.00    -0.289 NA
HETATM   33  C5  UNL     1      28.830   9.207  49.370  1.00  0.00     0.179 C 
ENDBRANCH  31  32
ENDBRANCH  29  31
ENDBRANCH   3  29
TORSDOF 3
ENDMDL
MODEL 2
REMARK VINA RESULT:      -9.0      2.416      6.026
REMARK  3 active torsions:
REMARK  status: ('A' for Active; 'I' for Inactive)
REMARK    1  A    between atoms: C3_3  and  N1_4 
REMARK    2  A    between atoms: N1_4  and  C4_5 
REMARK    3  A    between atoms: C4_5  and  N2_6 
ROOT
HETATM    1  C1  UNL     1      28.489   2.539  53.476  1.00  0.00     0.026 C 
HETATM    2  C2  UNL     1      27.428   1.817  53.214  1.00  0.00     0.020 C 
HETATM    3  C3  UNL     1      27.282   0.435  53.655  1.00  0.00     0.074 C 
HETATM    4  C6  UNL     1      26.256   0.023  52.968  1.00  0.00     0.112 C 
HETATM    5  N3  UNL     1      25.658   0.860  52.245  1.00  0.00    -0.240 NA
HETATM    6  C7  UNL     1      26.245   2.207  52.472  1.00  0.00     0.251 C 
HETATM    7  C8  UNL     1      25.192   2.871  53.362  1.00  0.00     0.071 C 
HETATM    8  C9  UNL     1      23.873   3.290  52.859  1.00  0.00     0.035 C 
HETATM    9  C10 UNL     1      22.827   2.341  52.444  1.00  0.00     0.273 C 
HETATM   10  N4  UNL     1      21.609   2.662  51.855  1.00  0.00     0.095 NA
HETATM   11  C11 UNL     1      20.990   3.961  51.967  1.00  0.00     0.292 C 
HETATM   12  C12 UNL     1      19.886   4.142  50.872  1.00  0.00     0.152 C 
HETATM   13  N5  UNL     1      20.554   4.589  49.622  1.00  0.00    -0.382 N 
HETATM   14  C13 UNL     1      20.659   5.417  48.432  1.00  0.00     0.149 C 
HETATM   15  C14 UNL     1      21.646   3.718  49.781  1.00  0.00     0.087 C 
HETATM   16  C15 UNL     1      22.699   4.398  49.419  1.00  0.00     0.168 A 
HETATM   17  N6  UNL     1      23.474   5.443  48.958  1.00  0.00    -0.336 N 
HETATM   18  C16 UNL     1      24.799   4.932  49.112  1.00  0.00     0.051 A 
HETATM   19  C17 UNL     1      26.066   5.463  48.986  1.00  0.00     0.027 A 
HETATM   20  C18 UNL     1      27.088   4.547  49.433  1.00  0.00     0.020 A 
HETATM   21  C19 UNL     1      26.437   3.441  49.821  1.00  0.00     0.220 A 
HETATM   22  C20 UNL     1      25.467   2.529  50.104  1.00  0.00     0.281 A 
HETATM   23  C21 UNL     1      24.821   3.659  49.623  1.00  0.00     0.182 A 
HETATM   24  O1  UNL     1      23.512   3.382  49.779  1.00  0.00    -0.311 OA
HETATM   25  N7  UNL     1      26.331   2.795  51.198  1.00  0.00    -0.010 N 
HETATM   26  C22 UNL     1      21.533   2.313  50.391  1.00  0.00     0.333 C 
HETATM   27  H21 UNL     1      23.049   6.259  48.650  1.00  0.00     0.168 HD
HETATM   28  H25 UNL     1      27.235   3.266  51.607  1.00  0.00     0.285 HD
ENDROOT
BRANCH   3  29
HETATM   29  N1  UNL     1      28.088  -0.256  54.612  1.00  0.00    -0.349 N 
HETATM   30  H3  UNL     1      27.814  -0.491  55.596  1.00  0.00     0.167 HD
BRANCH  29  31
HETATM   31  C4  UNL     1      29.393  -0.670  54.203  1.00  0.00     0.200 C 
BRANCH  31  32
HETATM   32  N2  UNL     1      29.512  -1.491  53.190  1.00  0.00    -0.289 NA
HETATM   33  C5  UNL     1      28.870  -2.768  53.182  1.00  0.00     0.179 C 
ENDBRANCH  31  32
ENDBRANCH  29  31
ENDBRANCH   3  29
TORSDOF 3
ENDMDL
MODEL 3
REMARK VINA RESULT:      -8.6      2.369      6.240
REMARK  3 active torsions:
REMARK  status: ('A' for Active; 'I' for Inactive)
REMARK    1  A    between atoms: C3_3  and  N1_4 
REMARK    2  A    between atoms: N1_4  and  C4_5 
REMARK    3  A    between atoms: C4_5  and  N2_6 
ROOT
HETATM    1  C1  UNL     1      25.989  -1.225  52.762  1.00  0.00     0.026 C 
HETATM    2  C2  UNL     1      26.030   0.055  53.040  1.00  0.00     0.020 C 
HETATM    3  C3  UNL     1      26.904   0.615  54.063  1.00  0.00     0.074 C 
HETATM    4  C6  UNL     1      26.442   1.823  54.204  1.00  0.00     0.112 C 
HETATM    5  N3  UNL     1      25.516   2.192  53.436  1.00  0.00    -0.240 NA
HETATM    6  C7  UNL     1      25.263   1.124  52.433  1.00  0.00     0.251 C 
HETATM    7  C8  UNL     1      25.939   1.690  51.183  1.00  0.00     0.071 C 
HETATM    8  C9  UNL     1      25.395   2.832  50.429  1.00  0.00     0.035 C 
HETATM    9  C10 UNL     1      25.366   4.206  50.953  1.00  0.00     0.273 C 
HETATM   10  N4  UNL     1      24.766   5.307  50.349  1.00  0.00     0.095 NA
HETATM   11  C11 UNL     1      24.479   5.380  48.937  1.00  0.00     0.292 C 
HETATM   12  C12 UNL     1      23.443   6.514  48.642  1.00  0.00     0.152 C 
HETATM   13  N5  UNL     1      22.084   5.960  48.869  1.00  0.00    -0.382 N 
HETATM   14  C13 UNL     1      20.685   5.770  48.523  1.00  0.00     0.149 C 
HETATM   15  C14 UNL     1      22.462   5.251  50.023  1.00  0.00     0.087 C 
HETATM   16  C15 UNL     1      21.845   4.103  49.953  1.00  0.00     0.168 A 
HETATM   17  N6  UNL     1      21.030   3.094  49.482  1.00  0.00    -0.336 N 
HETATM   18  C16 UNL     1      21.275   2.041  50.416  1.00  0.00     0.051 A 
HETATM   19  C17 UNL     1      20.919   0.711  50.496  1.00  0.00     0.027 A 
HETATM   20  C18 UNL     1      21.588   0.031  51.580  1.00  0.00     0.020 A 
HETATM   21  C19 UNL     1      22.348   0.963  52.175  1.00  0.00     0.220 A 
HETATM   22  C20 UNL     1      22.961   2.133  52.502  1.00  0.00     0.281 A 
HETATM   23  C21 UNL     1      22.172   2.396  51.391  1.00  0.00     0.182 A 
HETATM   24  O1  UNL     1      22.476   3.666  51.065  1.00  0.00    -0.311 OA
HETATM   25  N7  UNL     1      23.864   1.053  52.311  1.00  0.00    -0.010 N 
HETATM   26  C22 UNL     1      23.501   5.759  51.033  1.00  0.00     0.333 C 
HETATM   27  H21 UNL     1      20.495   3.239  48.686  1.00  0.00     0.168 HD
HETATM   28  H25 UNL     1      24.051  -0.016  52.148  1.00  0.00     0.285 HD
ENDROOT
BRANCH   3  29
HETATM   29  N1  UNL     1      27.992  -0.038  54.723  1.00  0.00    -0.349 N 
HETATM   30  H3  UNL     1      27.915  -0.716  55.518  1.00  0.00     0.167 HD
BRANCH  29  31
HETATM   31  C4  UNL     1      29.314   0.252  54.265  1.00  0.00     0.200 C 
BRANCH  31  32
HETATM   32  N2  UNL     1      29.941  -0.630  53.527  1.00  0.00    -0.289 NA
HETATM   33  C5  UNL     1      29.438  -1.957  53.358  1.00  0.00     0.179 C 
ENDBRANCH  31  32
ENDBRANCH  29  31
ENDBRANCH   3  29
TORSDOF 3
ENDMDL
MODEL 4
REMARK VINA RESULT:      -8.6      2.282      7.117
REMARK  3 active torsions:
REMARK  status: ('A' for Active; 'I' for Inactive)
REMARK    1  A    between atoms: C3_3  and  N1_4 
REMARK    2  A    between atoms: N1_4  and  C4_5 
REMARK    3  A    between atoms: C4_5  and  N2_6 
ROOT
HETATM    1  C1  UNL     1      26.048   1.216  53.267  1.00  0.00     0.026 C 
HETATM    2  C2  UNL     1      24.836   1.359  52.790  1.00  0.00     0.020 C 
HETATM    3  C3  UNL     1      23.773   0.389  53.026  1.00  0.00     0.074 C 
HETATM    4  C6  UNL     1      22.858   0.755  52.176  1.00  0.00     0.112 C 
HETATM    5  N3  UNL     1      23.063   1.799  51.504  1.00  0.00    -0.240 NA
HETATM    6  C7  UNL     1      24.320   2.439  51.973  1.00  0.00     0.251 C 
HETATM    7  C8  UNL     1      23.793   3.605  52.813  1.00  0.00     0.071 C 
HETATM    8  C9  UNL     1      23.152   4.790  52.220  1.00  0.00     0.035 C 
HETATM    9  C10 UNL     1      21.834   4.753  51.565  1.00  0.00     0.273 C 
HETATM   10  N4  UNL     1      21.222   5.801  50.885  1.00  0.00     0.095 NA
HETATM   11  C11 UNL     1      21.560   7.189  51.093  1.00  0.00     0.292 C 
HETATM   12  C12 UNL     1      21.033   8.068  49.911  1.00  0.00     0.152 C 
HETATM   13  N5  UNL     1      22.036   8.008  48.817  1.00  0.00    -0.382 N 
HETATM   14  C13 UNL     1      22.847   8.601  47.765  1.00  0.00     0.149 C 
HETATM   15  C14 UNL     1      22.279   6.634  48.986  1.00  0.00     0.087 C 
HETATM   16  C15 UNL     1      23.567   6.480  48.841  1.00  0.00     0.168 A 
HETATM   17  N6  UNL     1      24.893   6.786  48.614  1.00  0.00    -0.336 N 
HETATM   18  C16 UNL     1      25.542   5.535  48.854  1.00  0.00     0.051 A 
HETATM   19  C17 UNL     1      26.855   5.124  48.947  1.00  0.00     0.027 A 
HETATM   20  C18 UNL     1      26.966   3.753  49.386  1.00  0.00     0.020 A 
HETATM   21  C19 UNL     1      25.707   3.322  49.547  1.00  0.00     0.220 A 
HETATM   22  C20 UNL     1      24.349   3.247  49.593  1.00  0.00     0.281 A 
HETATM   23  C21 UNL     1      24.662   4.539  49.193  1.00  0.00     0.182 A 
HETATM   24  O1  UNL     1      23.473   5.170  49.158  1.00  0.00    -0.311 OA
HETATM   25  N7  UNL     1      24.979   2.864  50.806  1.00  0.00    -0.010 N 
HETATM   26  C22 UNL     1      21.198   5.621  49.389  1.00  0.00     0.333 C 
HETATM   27  H21 UNL     1      25.145   7.690  48.369  1.00  0.00     0.168 HD
HETATM   28  H25 UNL     1      25.888   2.628  51.376  1.00  0.00     0.285 HD
ENDROOT
BRANCH   3  29
HETATM   29  N1  UNL     1      23.776  -0.684  53.971  1.00  0.00    -0.349 N 
HETATM   30  H3  UNL     1      24.480  -1.458  54.024  1.00  0.00     0.167 HD
BRANCH  29  31
HETATM   31  C4  UNL     1      22.726  -0.716  54.939  1.00  0.00     0.200 C 
BRANCH  31  32
HETATM   32  N2  UNL     1      21.830  -1.669  54.875  1.00  0.00    -0.289 NA
HETATM   33  C5  UNL     1      20.622  -1.513  54.126  1.00  0.00     0.179 C 
ENDBRANCH  31  32
ENDBRANCH  29  31
ENDBRANCH   3  29
TORSDOF 3
ENDMDL
MODEL 5
REMARK VINA RESULT:      -8.5      3.354      5.459
REMARK  3 active torsions:
REMARK  status: ('A' for Active; 'I' for Inactive)
REMARK    1  A    between atoms: C3_3  and  N1_4 
REMARK    2  A    between atoms: N1_4  and  C4_5 
REMARK    3  A    between atoms: C4_5  and  N2_6 
ROOT
HETATM    1  C1  UNL     1      24.559   0.087  53.544  1.00  0.00     0.026 C 
HETATM    2  C2  UNL     1      24.214   1.272  53.106  1.00  0.00     0.020 C 
HETATM    3  C3  UNL     1      25.021   2.465  53.331  1.00  0.00     0.074 C 
HETATM    4  C6  UNL     1      24.211   3.426  52.994  1.00  0.00     0.112 C 
HETATM    5  N3  UNL     1      23.088   3.110  52.521  1.00  0.00    -0.240 NA
HETATM    6  C7  UNL     1      23.030   1.635  52.352  1.00  0.00     0.251 C 
HETATM    7  C8  UNL     1      23.227   1.474  50.844  1.00  0.00     0.071 C 
HETATM    8  C9  UNL     1      22.197   1.848  49.860  1.00  0.00     0.035 C 
HETATM    9  C10 UNL     1      21.801   3.240  49.594  1.00  0.00     0.273 C 
HETATM   10  N4  UNL     1      20.761   3.657  48.769  1.00  0.00     0.095 NA
HETATM   11  C11 UNL     1      20.208   2.844  47.714  1.00  0.00     0.292 C 
HETATM   12  C12 UNL     1      18.812   3.393  47.268  1.00  0.00     0.152 C 
HETATM   13  N5  UNL     1      17.790   2.847  48.198  1.00  0.00    -0.382 N 
HETATM   14  C13 UNL     1      16.500   2.250  48.503  1.00  0.00     0.149 C 
HETATM   15  C14 UNL     1      18.596   3.021  49.337  1.00  0.00     0.087 C 
HETATM   16  C15 UNL     1      18.404   1.961  50.073  1.00  0.00     0.168 A 
HETATM   17  N6  UNL     1      17.907   0.743  50.490  1.00  0.00    -0.336 N 
HETATM   18  C16 UNL     1      18.666   0.492  51.675  1.00  0.00     0.051 A 
HETATM   19  C17 UNL     1      18.804  -0.580  52.532  1.00  0.00     0.027 A 
HETATM   20  C18 UNL     1      19.855  -0.372  53.500  1.00  0.00     0.020 A 
HETATM   21  C19 UNL     1      20.350   0.847  53.239  1.00  0.00     0.220 A 
HETATM   22  C20 UNL     1      20.579   2.074  52.697  1.00  0.00     0.281 A 
HETATM   23  C21 UNL     1      19.554   1.498  51.958  1.00  0.00     0.182 A 
HETATM   24  O1  UNL     1      19.341   2.371  50.955  1.00  0.00    -0.311 OA
HETATM   25  N7  UNL     1      21.742   1.263  52.776  1.00  0.00    -0.010 N 
HETATM   26  C22 UNL     1      19.570   4.193  49.520  1.00  0.00     0.333 C 
HETATM   27  H21 UNL     1      17.216   0.301  49.973  1.00  0.00     0.168 HD
HETATM   28  H25 UNL     1      22.247   0.351  53.121  1.00  0.00     0.285 HD
ENDROOT
BRANCH   3  29
HETATM   29  N1  UNL     1      26.369   2.520  53.804  1.00  0.00    -0.349 N 
HETATM   30  H3  UNL     1      26.671   2.751  54.781  1.00  0.00     0.167 HD
BRANCH  29  31
HETATM   31  C4  UNL     1      27.411   2.236  52.870  1.00  0.00     0.200 C 
BRANCH  31  32
HETATM   32  N2  UNL     1      28.657   2.292  53.268  1.00  0.00    -0.289 NA
HETATM   33  C5  UNL     1      29.217   1.288  54.118  1.00  0.00     0.179 C 
ENDBRANCH  31  32
ENDBRANCH  29  31
ENDBRANCH   3  29
TORSDOF 3
ENDMDL
MODEL 6
REMARK VINA RESULT:      -8.3      2.069      3.777
REMARK  3 active torsions:
REMARK  status: ('A' for Active; 'I' for Inactive)
REMARK    1  A    between atoms: C3_3  and  N1_4 
REMARK    2  A    between atoms: N1_4  and  C4_5 
REMARK    3  A    between atoms: C4_5  and  N2_6 
ROOT
HETATM    1  C1  UNL     1      25.559   1.052  51.736  1.00  0.00     0.026 C 
HETATM    2  C2  UNL     1      24.573   1.905  51.606  1.00  0.00     0.020 C 
HETATM    3  C3  UNL     1      24.782   3.319  51.317  1.00  0.00     0.074 C 
HETATM    4  C6  UNL     1      23.608   3.834  51.545  1.00  0.00     0.112 C 
HETATM    5  N3  UNL     1      22.668   3.049  51.834  1.00  0.00    -0.240 NA
HETATM    6  C7  UNL     1      23.150   1.648  51.717  1.00  0.00     0.251 C 
HETATM    7  C8  UNL     1      22.533   1.205  50.389  1.00  0.00     0.071 C 
HETATM    8  C9  UNL     1      21.091   0.955  50.224  1.00  0.00     0.035 C 
HETATM    9  C10 UNL     1      20.076   2.020  50.265  1.00  0.00     0.273 C 
HETATM   10  N4  UNL     1      18.696   1.845  50.233  1.00  0.00     0.095 NA
HETATM   11  C11 UNL     1      18.057   0.662  49.710  1.00  0.00     0.292 C 
HETATM   12  C12 UNL     1      16.572   0.576  50.196  1.00  0.00     0.152 C 
HETATM   13  N5  UNL     1      16.570  -0.043  51.546  1.00  0.00    -0.382 N 
HETATM   14  C13 UNL     1      16.053  -0.951  52.557  1.00  0.00     0.149 C 
HETATM   15  C14 UNL     1      17.706   0.665  51.977  1.00  0.00     0.087 C 
HETATM   16  C15 UNL     1      18.414  -0.185  52.669  1.00  0.00     0.168 A 
HETATM   17  N6  UNL     1      18.792  -1.360  53.286  1.00  0.00    -0.336 N 
HETATM   18  C16 UNL     1      20.096  -1.042  53.777  1.00  0.00     0.051 A 
HETATM   19  C17 UNL     1      21.114  -1.762  54.367  1.00  0.00     0.027 A 
HETATM   20  C18 UNL     1      22.319  -0.980  54.515  1.00  0.00     0.020 A 
HETATM   21  C19 UNL     1      22.025   0.233  54.023  1.00  0.00     0.220 A 
HETATM   22  C20 UNL     1      21.381   1.294  53.467  1.00  0.00     0.281 A 
HETATM   23  C21 UNL     1      20.474   0.243  53.483  1.00  0.00     0.182 A 
HETATM   24  O1  UNL     1      19.405   0.721  52.818  1.00  0.00    -0.311 OA
HETATM   25  N7  UNL     1      22.605   0.973  52.824  1.00  0.00    -0.010 N 
HETATM   26  C22 UNL     1      18.021   2.107  51.554  1.00  0.00     0.333 C 
HETATM   27  H21 UNL     1      18.192  -2.122  53.281  1.00  0.00     0.168 HD
HETATM   28  H25 UNL     1      23.541   0.401  52.786  1.00  0.00     0.285 HD
ENDROOT
BRANCH   3  29
HETATM   29  N1  UNL     1      25.995   3.943  50.889  1.00  0.00    -0.349 N 
HETATM   30  H3  UNL     1      26.746   4.324  51.512  1.00  0.00     0.167 HD
BRANCH  29  31
HETATM   31  C4  UNL     1      26.215   4.067  49.483  1.00  0.00     0.200 C 
BRANCH  31  32
HETATM   32  N2  UNL     1      27.420   4.338  49.049  1.00  0.00    -0.289 NA
HETATM   33  C5  UNL     1      27.740   5.604  48.466  1.00  0.00     0.179 C 
ENDBRANCH  31  32
ENDBRANCH  29  31
ENDBRANCH   3  29
TORSDOF 3
ENDMDL
MODEL 7
REMARK VINA RESULT:      -8.3      2.381      7.031
REMARK  3 active torsions:
REMARK  status: ('A' for Active; 'I' for Inactive)
REMARK    1  A    between atoms: C3_3  and  N1_4 
REMARK    2  A    between atoms: N1_4  and  C4_5 
REMARK    3  A    between atoms: C4_5  and  N2_6 
ROOT
HETATM    1  C1  UNL     1      23.042  -0.039  52.467  1.00  0.00     0.026 C 
HETATM    2  C2  UNL     1      23.827   0.995  52.641  1.00  0.00     0.020 C 
HETATM    3  C3  UNL     1      25.016   0.954  53.483  1.00  0.00     0.074 C 
HETATM    4  C6  UNL     1      25.328   2.212  53.599  1.00  0.00     0.112 C 
HETATM    5  N3  UNL     1      24.650   3.049  52.948  1.00  0.00    -0.240 NA
HETATM    6  C7  UNL     1      23.692   2.323  52.074  1.00  0.00     0.251 C 
HETATM    7  C8  UNL     1      24.355   2.440  50.700  1.00  0.00     0.071 C 
HETATM    8  C9  UNL     1      24.419   3.706  49.951  1.00  0.00     0.035 C 
HETATM    9  C10 UNL     1      25.238   4.854  50.371  1.00  0.00     0.273 C 
HETATM   10  N4  UNL     1      25.257   6.113  49.781  1.00  0.00     0.095 NA
HETATM   11  C11 UNL     1      24.835   6.361  48.423  1.00  0.00     0.292 C 
HETATM   12  C12 UNL     1      24.566   7.886  48.199  1.00  0.00     0.152 C 
HETATM   13  N5  UNL     1      23.185   8.178  48.661  1.00  0.00    -0.382 N 
HETATM   14  C13 UNL     1      21.880   8.806  48.536  1.00  0.00     0.149 C 
HETATM   15  C14 UNL     1      23.290   7.355  49.797  1.00  0.00     0.087 C 
HETATM   16  C15 UNL     1      22.140   6.747  49.902  1.00  0.00     0.168 A 
HETATM   17  N6  UNL     1      20.840   6.372  49.630  1.00  0.00    -0.336 N 
HETATM   18  C16 UNL     1      20.610   5.342  50.594  1.00  0.00     0.051 A 
HETATM   19  C17 UNL     1      19.597   4.435  50.822  1.00  0.00     0.027 A 
HETATM   20  C18 UNL     1      19.945   3.477  51.846  1.00  0.00     0.020 A 
HETATM   21  C19 UNL     1      21.176   3.816  52.253  1.00  0.00     0.220 A 
HETATM   22  C20 UNL     1      22.377   4.440  52.401  1.00  0.00     0.281 A 
HETATM   23  C21 UNL     1      21.697   5.119  51.400  1.00  0.00     0.182 A 
HETATM   24  O1  UNL     1      22.594   6.012  50.940  1.00  0.00    -0.311 OA
HETATM   25  N7  UNL     1      22.488   3.045  52.161  1.00  0.00    -0.010 N 
HETATM   26  C22 UNL     1      24.583   7.179  50.605  1.00  0.00     0.333 C 
HETATM   27  H21 UNL     1      20.354   6.805  48.911  1.00  0.00     0.168 HD
HETATM   28  H25 UNL     1      22.025   2.055  52.052  1.00  0.00     0.285 HD
ENDROOT
BRANCH   3  29
HETATM   29  N1  UNL     1      25.652  -0.207  54.023  1.00  0.00    -0.349 N 
HETATM   30  H3  UNL     1      25.388  -0.699  54.910  1.00  0.00     0.167 HD
BRANCH  29  31
HETATM   31  C4  UNL     1      26.753  -0.757  53.299  1.00  0.00     0.200 C 
BRANCH  31  32
HETATM   32  N2  UNL     1      27.917  -0.862  53.890  1.00  0.00    -0.289 NA
HETATM   33  C5  UNL     1      28.373   0.119  54.825  1.00  0.00     0.179 C 
ENDBRANCH  31  32
ENDBRANCH  29  31
ENDBRANCH   3  29
TORSDOF 3
ENDMDL
MODEL 8
REMARK VINA RESULT:      -8.2      2.130      7.729
REMARK  3 active torsions:
REMARK  status: ('A' for Active; 'I' for Inactive)
REMARK    1  A    between atoms: C3_3  and  N1_4 
REMARK    2  A    between atoms: N1_4  and  C4_5 
REMARK    3  A    between atoms: C4_5  and  N2_6 
ROOT
HETATM    1  C1  UNL     1      21.169  -0.306  54.777  1.00  0.00     0.026 C 
HETATM    2  C2  UNL     1      20.660   0.091  53.637  1.00  0.00     0.020 C 
HETATM    3  C3  UNL     1      19.437  -0.472  53.078  1.00  0.00     0.074 C 
HETATM    4  C6  UNL     1      19.445  -0.018  51.858  1.00  0.00     0.112 C 
HETATM    5  N3  UNL     1      20.359   0.783  51.535  1.00  0.00    -0.240 NA
HETATM    6  C7  UNL     1      21.168   1.109  52.738  1.00  0.00     0.251 C 
HETATM    7  C8  UNL     1      20.664   2.508  53.097  1.00  0.00     0.071 C 
HETATM    8  C9  UNL     1      20.980   3.700  52.292  1.00  0.00     0.035 C 
HETATM    9  C10 UNL     1      20.447   3.926  50.940  1.00  0.00     0.273 C 
HETATM   10  N4  UNL     1      20.792   4.965  50.081  1.00  0.00     0.095 NA
HETATM   11  C11 UNL     1      21.366   6.210  50.530  1.00  0.00     0.292 C 
HETATM   12  C12 UNL     1      22.027   6.975  49.336  1.00  0.00     0.152 C 
HETATM   13  N5  UNL     1      23.398   6.433  49.151  1.00  0.00    -0.382 N 
HETATM   14  C13 UNL     1      24.824   6.566  48.907  1.00  0.00     0.149 C 
HETATM   15  C14 UNL     1      23.002   5.101  49.365  1.00  0.00     0.087 C 
HETATM   16  C15 UNL     1      23.949   4.559  50.081  1.00  0.00     0.168 A 
HETATM   17  N6  UNL     1      25.129   4.424  50.783  1.00  0.00    -0.336 N 
HETATM   18  C16 UNL     1      25.017   3.105  51.320  1.00  0.00     0.051 A 
HETATM   19  C17 UNL     1      25.748   2.356  52.219  1.00  0.00     0.027 A 
HETATM   20  C18 UNL     1      25.091   1.114  52.554  1.00  0.00     0.020 A 
HETATM   21  C19 UNL     1      23.957   1.101  51.839  1.00  0.00     0.220 A 
HETATM   22  C20 UNL     1      22.945   1.430  50.990  1.00  0.00     0.281 A 
HETATM   23  C21 UNL     1      23.850   2.482  50.956  1.00  0.00     0.182 A 
HETATM   24  O1  UNL     1      23.245   3.412  50.192  1.00  0.00    -0.311 OA
HETATM   25  N7  UNL     1      22.504   1.107  52.301  1.00  0.00    -0.010 N 
HETATM   26  C22 UNL     1      21.647   4.532  48.919  1.00  0.00     0.333 C 
HETATM   27  H21 UNL     1      25.763   5.158  50.806  1.00  0.00     0.168 HD
HETATM   28  H25 UNL     1      22.711   0.727  53.310  1.00  0.00     0.285 HD
ENDROOT
BRANCH   3  29
HETATM   29  N1  UNL     1      18.489  -1.311  53.743  1.00  0.00    -0.349 N 
HETATM   30  H3  UNL     1      18.663  -1.872  54.610  1.00  0.00     0.167 HD
BRANCH  29  31
HETATM   31  C4  UNL     1      17.178  -1.402  53.182  1.00  0.00     0.200 C 
BRANCH  31  32
HETATM   32  N2  UNL     1      16.697  -2.581  52.877  1.00  0.00    -0.289 NA
HETATM   33  C5  UNL     1      17.099  -3.759  53.579  1.00  0.00     0.179 C 
ENDBRANCH  31  32
ENDBRANCH  29  31
ENDBRANCH   3  29
TORSDOF 3
ENDMDL
MODEL 9
REMARK VINA RESULT:      -8.0      1.800      2.615
REMARK  3 active torsions:
REMARK  status: ('A' for Active; 'I' for Inactive)
REMARK    1  A    between atoms: C3_3  and  N1_4 
REMARK    2  A    between atoms: N1_4  and  C4_5 
REMARK    3  A    between atoms: C4_5  and  N2_6 
ROOT
HETATM    1  C1  UNL     1      26.458   2.572  50.098  1.00  0.00     0.026 C 
HETATM    2  C2  UNL     1      25.471   3.428  50.203  1.00  0.00     0.020 C 
HETATM    3  C3  UNL     1      25.652   4.867  50.055  1.00  0.00     0.074 C 
HETATM    4  C6  UNL     1      24.524   5.343  50.498  1.00  0.00     0.112 C 
HETATM    5  N3  UNL     1      23.625   4.524  50.819  1.00  0.00    -0.240 NA
HETATM    6  C7  UNL     1      24.075   3.149  50.476  1.00  0.00     0.251 C 
HETATM    7  C8  UNL     1      23.279   2.859  49.201  1.00  0.00     0.071 C 
HETATM    8  C9  UNL     1      21.826   2.619  49.205  1.00  0.00     0.035 C 
HETATM    9  C10 UNL     1      20.836   3.665  49.507  1.00  0.00     0.273 C 
HETATM   10  N4  UNL     1      19.462   3.485  49.642  1.00  0.00     0.095 NA
HETATM   11  C11 UNL     1      18.748   2.366  49.077  1.00  0.00     0.292 C 
HETATM   12  C12 UNL     1      17.342   2.214  49.747  1.00  0.00     0.152 C 
HETATM   13  N5  UNL     1      17.518   1.441  51.003  1.00  0.00    -0.382 N 
HETATM   14  C13 UNL     1      17.135   0.418  51.962  1.00  0.00     0.149 C 
HETATM   15  C14 UNL     1      18.708   2.103  51.356  1.00  0.00     0.087 C 
HETATM   16  C15 UNL     1      19.496   1.183  51.841  1.00  0.00     0.168 A 
HETATM   17  N6  UNL     1      19.944  -0.053  52.260  1.00  0.00    -0.336 N 
HETATM   18  C16 UNL     1      21.305   0.215  52.603  1.00  0.00     0.051 A 
HETATM   19  C17 UNL     1      22.388  -0.561  52.962  1.00  0.00     0.027 A 
HETATM   20  C18 UNL     1      23.608   0.207  53.035  1.00  0.00     0.020 A 
HETATM   21  C19 UNL     1      23.261   1.466  52.732  1.00  0.00     0.220 A 
HETATM   22  C20 UNL     1      22.556   2.581  52.396  1.00  0.00     0.281 A 
HETATM   23  C21 UNL     1      21.651   1.529  52.413  1.00  0.00     0.182 A 
HETATM   24  O1  UNL     1      20.505   2.072  51.958  1.00  0.00    -0.311 OA
HETATM   25  N7  UNL     1      23.679   2.346  51.559  1.00  0.00    -0.010 N 
HETATM   26  C22 UNL     1      18.976   3.586  51.064  1.00  0.00     0.333 C 
HETATM   27  H21 UNL     1      19.343  -0.814  52.248  1.00  0.00     0.168 HD
HETATM   28  H25 UNL     1      24.596   1.789  51.329  1.00  0.00     0.285 HD
ENDROOT
BRANCH   3  29
HETATM   29  N1  UNL     1      26.801   5.545  49.542  1.00  0.00    -0.349 N 
HETATM   30  H3  UNL     1      27.800   5.294  49.728  1.00  0.00     0.167 HD
BRANCH  29  31
HETATM   31  C4  UNL     1      26.579   6.675  48.696  1.00  0.00     0.200 C 
BRANCH  31  32
HETATM   32  N2  UNL     1      27.180   7.805  48.972  1.00  0.00    -0.289 NA
HETATM   33  C5  UNL     1      26.773   8.621  50.072  1.00  0.00     0.179 C 
ENDBRANCH  31  32
ENDBRANCH  29  31
ENDBRANCH   3  29
TORSDOF 3
ENDMDL
