MODEL 1
REMARK VINA RESULT:      -7.5      0.000      0.000
REMARK  8 active torsions:
REMARK  status: ('A' for Active; 'I' for Inactive)
REMARK    1  A    between atoms: N1_2  and  C2_3 
REMARK    2  A    between atoms: C2_3  and  C3_4 
REMARK    3  A    between atoms: C14_19  and  N3_20 
REMARK    4  A    between atoms: N3_20  and  C15_21 
REMARK    5  A    between atoms: C15_21  and  C16_22 
REMARK    6  A    between atoms: C16_22  and  C17_23 
REMARK    7  A    between atoms: C17_23  and  C18_24 
REMARK    8  A    between atoms: C18_24  and  C19_25 
ROOT
HETATM    1  C3  UNL     1      26.339   0.101  53.427  1.00  0.00     0.122 A 
HETATM    2  C4  UNL     1      25.332  -0.030  52.454  1.00  0.00     0.066 A 
HETATM    3  C5  UNL     1      23.605   0.578  53.190  1.00  0.00     0.019 A 
HETATM    4  C6  UNL     1      24.156   0.973  51.748  1.00  0.00     0.085 A 
HETATM    5  C7  UNL     1      24.596   2.517  52.415  1.00  0.00     0.082 A 
HETATM    6  O1  UNL     1      24.783   2.957  53.558  1.00  0.00    -0.308 OA
HETATM    7  C8  UNL     1      24.579   2.824  51.042  1.00  0.00     0.072 A 
HETATM    8  C9  UNL     1      23.174   2.799  51.680  1.00  0.00     0.069 A 
HETATM    9  C10 UNL     1      21.910   1.871  51.998  1.00  0.00     0.047 C 
HETATM   10  P1  UNL     1      23.945   0.317  53.462  1.00  0.00    -0.077 P 
HETATM   11  C11 UNL     1      24.964  -0.450  54.235  1.00  0.00     0.074 C 
HETATM   12  O2  UNL     1      25.868  -1.087  54.901  1.00  0.00    -0.319 OA
HETATM   13  C12 UNL     1      26.623   0.551  54.897  1.00  0.00     0.200 A 
HETATM   14  N2  UNL     1      26.942   1.529  54.061  1.00  0.00    -0.249 NA
HETATM   15  C13 UNL     1      27.013   2.047  52.652  1.00  0.00     0.119 C 
HETATM   16  C14 UNL     1      26.045   2.497  51.632  1.00  0.00     0.113 A 
ENDROOT
BRANCH  16  17
HETATM   17  N3  UNL     1      26.510   2.786  50.431  1.00  0.00    -0.381 N 
HETATM   18  H13 UNL     1      26.755   1.976  49.781  1.00  0.00     0.160 HD
BRANCH  17  19
HETATM   19  C15 UNL     1      26.798   3.901  49.646  1.00  0.00     0.084 C 
BRANCH  19  20
HETATM   20  C16 UNL     1      27.037   4.908  48.853  1.00  0.00     0.017 C 
BRANCH  20  21
HETATM   21  C17 UNL     1      25.932   5.892  48.985  1.00  0.00    -0.000 C 
BRANCH  21  22
HETATM   22  C18 UNL     1      25.310   6.516  49.934  1.00  0.00     0.004 C 
BRANCH  22  23
HETATM   23  C19 UNL     1      24.294   6.895  50.907  1.00  0.00     0.249 C 
HETATM   24  F1  UNL     1      24.202   5.934  51.929  1.00  0.00    -0.251 F 
ENDBRANCH  22  23
ENDBRANCH  21  22
ENDBRANCH  20  21
ENDBRANCH  19  20
ENDBRANCH  17  19
ENDBRANCH  16  17
BRANCH   1  25
HETATM   25  C2  UNL     1      27.568  -0.421  52.841  1.00  0.00     0.304 C 
BRANCH  25  26
HETATM   26  N1  UNL     1      28.333  -1.011  53.970  1.00  0.00     0.081 N 
HETATM   27  C1  UNL     1      29.761  -1.012  53.631  1.00  0.00     0.306 C 
HETATM   28  H4  UNL     1      28.100  -1.994  54.131  1.00  0.00     0.315 HD
ENDBRANCH  25  26
ENDBRANCH   1  25
TORSDOF 8
ENDMDL
MODEL 2
REMARK VINA RESULT:      -7.3      1.864      2.251
REMARK  8 active torsions:
REMARK  status: ('A' for Active; 'I' for Inactive)
REMARK    1  A    between atoms: N1_2  and  C2_3 
REMARK    2  A    between atoms: C2_3  and  C3_4 
REMARK    3  A    between atoms: C14_19  and  N3_20 
REMARK    4  A    between atoms: N3_20  and  C15_21 
REMARK    5  A    between atoms: C15_21  and  C16_22 
REMARK    6  A    between atoms: C16_22  and  C17_23 
REMARK    7  A    between atoms: C17_23  and  C18_24 
REMARK    8  A    between atoms: C18_24  and  C19_25 
ROOT
HETATM    1  C3  UNL     1      26.331   0.049  53.437  1.00  0.00     0.122 A 
HETATM    2  C4  UNL     1      25.322  -0.032  52.462  1.00  0.00     0.066 A 
HETATM    3  C5  UNL     1      23.605   0.577  53.221  1.00  0.00     0.019 A 
HETATM    4  C6  UNL     1      24.160   1.013  51.793  1.00  0.00     0.085 A 
HETATM    5  C7  UNL     1      24.626   2.526  52.512  1.00  0.00     0.082 A 
HETATM    6  O1  UNL     1      24.821   2.923  53.668  1.00  0.00    -0.308 OA
HETATM    7  C8  UNL     1      24.612   2.880  51.150  1.00  0.00     0.072 A 
HETATM    8  C9  UNL     1      23.207   2.855  51.789  1.00  0.00     0.069 A 
HETATM    9  C10 UNL     1      21.929   1.937  52.078  1.00  0.00     0.047 C 
HETATM   10  P1  UNL     1      23.941   0.302  53.484  1.00  0.00    -0.077 P 
HETATM   11  C11 UNL     1      24.949  -0.507  54.228  1.00  0.00     0.074 C 
HETATM   12  O2  UNL     1      25.844  -1.181  54.870  1.00  0.00    -0.319 OA
HETATM   13  C12 UNL     1      26.624   0.445  54.921  1.00  0.00     0.200 A 
HETATM   14  N2  UNL     1      26.958   1.445  54.118  1.00  0.00    -0.249 NA
HETATM   15  C13 UNL     1      27.035   2.010  52.727  1.00  0.00     0.119 C 
HETATM   16  C14 UNL     1      26.073   2.509  51.726  1.00  0.00     0.113 A 
ENDROOT
BRANCH  16  17
HETATM   17  N3  UNL     1      26.541   2.832  50.534  1.00  0.00    -0.381 N 
HETATM   18  H13 UNL     1      26.983   2.060  49.945  1.00  0.00     0.160 HD
BRANCH  17  19
HETATM   19  C15 UNL     1      26.645   3.945  49.702  1.00  0.00     0.084 C 
BRANCH  19  20
HETATM   20  C16 UNL     1      26.681   5.014  48.957  1.00  0.00     0.017 C 
BRANCH  20  21
HETATM   21  C17 UNL     1      28.078   5.228  48.496  1.00  0.00    -0.000 C 
BRANCH  21  22
HETATM   22  C18 UNL     1      28.809   6.209  48.070  1.00  0.00     0.004 C 
BRANCH  22  23
HETATM   23  C19 UNL     1      29.943   7.097  47.857  1.00  0.00     0.249 C 
HETATM   24  F1  UNL     1      30.465   6.933  46.563  1.00  0.00    -0.251 F 
ENDBRANCH  22  23
ENDBRANCH  21  22
ENDBRANCH  20  21
ENDBRANCH  19  20
ENDBRANCH  17  19
ENDBRANCH  16  17
BRANCH   1  25
HETATM   25  C2  UNL     1      27.551  -0.472  52.832  1.00  0.00     0.304 C 
BRANCH  25  26
HETATM   26  N1  UNL     1      28.320  -1.089  53.943  1.00  0.00     0.081 N 
HETATM   27  C1  UNL     1      29.743  -1.114  53.583  1.00  0.00     0.306 C 
HETATM   28  H4  UNL     1      28.071  -2.069  54.096  1.00  0.00     0.315 HD
ENDBRANCH  25  26
ENDBRANCH   1  25
TORSDOF 8
ENDMDL
MODEL 3
REMARK VINA RESULT:      -6.8      2.800      6.000
REMARK  8 active torsions:
REMARK  status: ('A' for Active; 'I' for Inactive)
REMARK    1  A    between atoms: N1_2  and  C2_3 
REMARK    2  A    between atoms: C2_3  and  C3_4 
REMARK    3  A    between atoms: C14_19  and  N3_20 
REMARK    4  A    between atoms: N3_20  and  C15_21 
REMARK    5  A    between atoms: C15_21  and  C16_22 
REMARK    6  A    between atoms: C16_22  and  C17_23 
REMARK    7  A    between atoms: C17_23  and  C18_24 
REMARK    8  A    between atoms: C18_24  and  C19_25 
ROOT
HETATM    1  C3  UNL     1      23.501   4.892  50.686  1.00  0.00     0.122 A 
HETATM    2  C4  UNL     1      23.575   4.335  51.975  1.00  0.00     0.066 A 
HETATM    3  C5  UNL     1      22.071   3.088  52.253  1.00  0.00     0.019 A 
HETATM    4  C6  UNL     1      23.582   2.775  52.650  1.00  0.00     0.085 A 
HETATM    5  C7  UNL     1      23.685   1.796  51.217  1.00  0.00     0.082 A 
HETATM    6  O1  UNL     1      23.037   1.713  50.164  1.00  0.00    -0.308 OA
HETATM    7  C8  UNL     1      24.770   1.289  51.954  1.00  0.00     0.072 A 
HETATM    8  C9  UNL     1      23.407   0.723  52.406  1.00  0.00     0.069 A 
HETATM    9  C10 UNL     1      22.180   0.939  53.410  1.00  0.00     0.047 C 
HETATM   10  P1  UNL     1      22.024   3.526  52.001  1.00  0.00    -0.077 P 
HETATM   11  C11 UNL     1      21.918   4.818  51.263  1.00  0.00     0.074 C 
HETATM   12  O2  UNL     1      21.848   5.924  50.602  1.00  0.00    -0.319 OA
HETATM   13  C12 UNL     1      22.671   4.905  49.362  1.00  0.00     0.200 A 
HETATM   14  N2  UNL     1      23.706   4.087  49.232  1.00  0.00    -0.249 NA
HETATM   15  C13 UNL     1      24.919   3.437  49.838  1.00  0.00     0.119 C 
HETATM   16  C14 UNL     1      25.174   2.398  50.854  1.00  0.00     0.113 A 
ENDROOT
BRANCH  16  17
HETATM   17  N3  UNL     1      26.428   2.175  51.201  1.00  0.00    -0.381 N 
HETATM   18  H13 UNL     1      27.129   1.954  50.427  1.00  0.00     0.160 HD
BRANCH  17  19
HETATM   19  C15 UNL     1      27.223   2.146  52.346  1.00  0.00     0.084 C 
BRANCH  19  20
HETATM   20  C16 UNL     1      27.939   2.188  53.434  1.00  0.00     0.017 C 
BRANCH  20  21
HETATM   21  C17 UNL     1      28.074   0.808  53.970  1.00  0.00    -0.000 C 
BRANCH  21  22
HETATM   22  C18 UNL     1      27.817  -0.401  53.585  1.00  0.00     0.004 C 
BRANCH  22  23
HETATM   23  C19 UNL     1      27.208  -1.536  52.906  1.00  0.00     0.249 C 
HETATM   24  F1  UNL     1      26.737  -1.162  51.636  1.00  0.00    -0.251 F 
ENDBRANCH  22  23
ENDBRANCH  21  22
ENDBRANCH  20  21
ENDBRANCH  19  20
ENDBRANCH  17  19
ENDBRANCH  16  17
BRANCH   1  25
HETATM   25  C2  UNL     1      24.599   5.845  50.571  1.00  0.00     0.304 C 
BRANCH  25  26
HETATM   26  N1  UNL     1      24.321   6.903  51.578  1.00  0.00     0.081 N 
HETATM   27  C1  UNL     1      24.251   8.202  50.899  1.00  0.00     0.306 C 
HETATM   28  H4  UNL     1      25.077   7.003  52.260  1.00  0.00     0.315 HD
ENDBRANCH  25  26
ENDBRANCH   1  25
TORSDOF 8
ENDMDL
MODEL 4
REMARK VINA RESULT:      -6.6      2.729      5.890
REMARK  8 active torsions:
REMARK  status: ('A' for Active; 'I' for Inactive)
REMARK    1  A    between atoms: N1_2  and  C2_3 
REMARK    2  A    between atoms: C2_3  and  C3_4 
REMARK    3  A    between atoms: C14_19  and  N3_20 
REMARK    4  A    between atoms: N3_20  and  C15_21 
REMARK    5  A    between atoms: C15_21  and  C16_22 
REMARK    6  A    between atoms: C16_22  and  C17_23 
REMARK    7  A    between atoms: C17_23  and  C18_24 
REMARK    8  A    between atoms: C18_24  and  C19_25 
ROOT
HETATM    1  C3  UNL     1      23.089   4.280  50.792  1.00  0.00     0.122 A 
HETATM    2  C4  UNL     1      22.816   3.858  52.106  1.00  0.00     0.066 A 
HETATM    3  C5  UNL     1      21.139   2.819  52.140  1.00  0.00     0.019 A 
HETATM    4  C6  UNL     1      22.478   2.387  52.886  1.00  0.00     0.085 A 
HETATM    5  C7  UNL     1      22.752   1.257  51.593  1.00  0.00     0.082 A 
HETATM    6  O1  UNL     1      22.336   1.134  50.434  1.00  0.00    -0.308 OA
HETATM    7  C8  UNL     1      23.582   0.714  52.592  1.00  0.00     0.072 A 
HETATM    8  C9  UNL     1      22.093   0.352  52.772  1.00  0.00     0.069 A 
HETATM    9  C10 UNL     1      20.721   0.806  53.459  1.00  0.00     0.047 C 
HETATM   10  P1  UNL     1      21.203   3.231  51.850  1.00  0.00    -0.077 P 
HETATM   11  C11 UNL     1      21.424   4.441  51.007  1.00  0.00     0.074 C 
HETATM   12  O2  UNL     1      21.640   5.473  50.261  1.00  0.00    -0.319 OA
HETATM   13  C12 UNL     1      22.566   4.244  49.320  1.00  0.00     0.200 A 
HETATM   14  N2  UNL     1      23.490   3.309  49.488  1.00  0.00    -0.249 NA
HETATM   15  C13 UNL     1      24.452   2.598  50.398  1.00  0.00     0.119 C 
HETATM   16  C14 UNL     1      24.350   1.649  51.524  1.00  0.00     0.113 A 
ENDROOT
BRANCH  16  17
HETATM   17  N3  UNL     1      25.463   1.328  52.158  1.00  0.00    -0.381 N 
HETATM   18  H13 UNL     1      25.914   2.066  52.783  1.00  0.00     0.160 HD
BRANCH  17  19
HETATM   19  C15 UNL     1      26.318   0.238  52.312  1.00  0.00     0.084 C 
BRANCH  19  20
HETATM   20  C16 UNL     1      27.059  -0.821  52.481  1.00  0.00     0.017 C 
BRANCH  20  21
HETATM   21  C17 UNL     1      28.127  -0.505  53.464  1.00  0.00    -0.000 C 
BRANCH  21  22
HETATM   22  C18 UNL     1      28.813   0.528  53.838  1.00  0.00     0.004 C 
BRANCH  22  23
HETATM   23  C19 UNL     1      29.187   1.899  54.153  1.00  0.00     0.249 C 
HETATM   24  F1  UNL     1      28.168   2.791  53.777  1.00  0.00    -0.251 F 
ENDBRANCH  22  23
ENDBRANCH  21  22
ENDBRANCH  20  21
ENDBRANCH  19  20
ENDBRANCH  17  19
ENDBRANCH  16  17
BRANCH   1  25
HETATM   25  C2  UNL     1      24.301   5.090  50.849  1.00  0.00     0.304 C 
BRANCH  25  26
HETATM   26  N1  UNL     1      24.003   6.195  51.797  1.00  0.00     0.081 N 
HETATM   27  C1  UNL     1      24.148   7.476  51.097  1.00  0.00     0.306 C 
HETATM   28  H4  UNL     1      24.672   6.239  52.569  1.00  0.00     0.315 HD
ENDBRANCH  25  26
ENDBRANCH   1  25
TORSDOF 8
ENDMDL
MODEL 5
REMARK VINA RESULT:      -6.4      3.247      6.769
REMARK  8 active torsions:
REMARK  status: ('A' for Active; 'I' for Inactive)
REMARK    1  A    between atoms: N1_2  and  C2_3 
REMARK    2  A    between atoms: C2_3  and  C3_4 
REMARK    3  A    between atoms: C14_19  and  N3_20 
REMARK    4  A    between atoms: N3_20  and  C15_21 
REMARK    5  A    between atoms: C15_21  and  C16_22 
REMARK    6  A    between atoms: C16_22  and  C17_23 
REMARK    7  A    between atoms: C17_23  and  C18_24 
REMARK    8  A    between atoms: C18_24  and  C19_25 
ROOT
HETATM    1  C3  UNL     1      23.550   4.605  50.426  1.00  0.00     0.122 A 
HETATM    2  C4  UNL     1      23.965   3.305  50.088  1.00  0.00     0.066 A 
HETATM    3  C5  UNL     1      25.681   2.899  50.976  1.00  0.00     0.019 A 
HETATM    4  C6  UNL     1      24.439   1.902  50.922  1.00  0.00     0.085 A 
HETATM    5  C7  UNL     1      24.089   2.361  52.563  1.00  0.00     0.082 A 
HETATM    6  O1  UNL     1      24.396   3.314  53.291  1.00  0.00    -0.308 OA
HETATM    7  C8  UNL     1      23.383   1.147  52.477  1.00  0.00     0.072 A 
HETATM    8  C9  UNL     1      24.897   0.957  52.711  1.00  0.00     0.069 A 
HETATM    9  C10 UNL     1      26.308   0.765  51.983  1.00  0.00     0.047 C 
HETATM   10  P1  UNL     1      25.572   3.355  50.781  1.00  0.00    -0.077 P 
HETATM   11  C11 UNL     1      25.219   4.683  50.201  1.00  0.00     0.074 C 
HETATM   12  O2  UNL     1      24.890   5.836  49.723  1.00  0.00    -0.319 OA
HETATM   13  C12 UNL     1      23.929   5.879  51.249  1.00  0.00     0.200 A 
HETATM   14  N2  UNL     1      23.066   5.144  51.936  1.00  0.00    -0.249 NA
HETATM   15  C13 UNL     1      22.227   3.901  52.038  1.00  0.00     0.119 C 
HETATM   16  C14 UNL     1      22.477   2.461  52.242  1.00  0.00     0.113 A 
ENDROOT
BRANCH  16  17
HETATM   17  N3  UNL     1      21.445   1.642  52.159  1.00  0.00    -0.381 N 
HETATM   18  H13 UNL     1      20.895   1.622  51.245  1.00  0.00     0.160 HD
BRANCH  17  19
HETATM   19  C15 UNL     1      20.781   0.691  52.932  1.00  0.00     0.084 C 
BRANCH  19  20
HETATM   20  C16 UNL     1      20.127  -0.142  53.692  1.00  0.00     0.017 C 
BRANCH  20  21
HETATM   21  C17 UNL     1      21.083  -1.137  54.243  1.00  0.00    -0.000 C 
BRANCH  21  22
HETATM   22  C18 UNL     1      22.122  -1.146  55.015  1.00  0.00     0.004 C 
BRANCH  22  23
HETATM   23  C19 UNL     1      23.373  -1.543  55.647  1.00  0.00     0.249 C 
HETATM   24  F1  UNL     1      24.473  -1.076  54.908  1.00  0.00    -0.251 F 
ENDBRANCH  22  23
ENDBRANCH  21  22
ENDBRANCH  20  21
ENDBRANCH  19  20
ENDBRANCH  17  19
ENDBRANCH  16  17
BRANCH   1  25
HETATM   25  C2  UNL     1      22.316   4.862  49.691  1.00  0.00     0.304 C 
BRANCH  25  26
HETATM   26  N1  UNL     1      22.525   4.282  48.339  1.00  0.00     0.081 N 
HETATM   27  C1  UNL     1      22.348   5.337  47.334  1.00  0.00     0.306 C 
HETATM   28  H4  UNL     1      21.825   3.574  48.103  1.00  0.00     0.315 HD
ENDBRANCH  25  26
ENDBRANCH   1  25
TORSDOF 8
ENDMDL
MODEL 6
REMARK VINA RESULT:      -6.4      3.522      5.537
REMARK  8 active torsions:
REMARK  status: ('A' for Active; 'I' for Inactive)
REMARK    1  A    between atoms: N1_2  and  C2_3 
REMARK    2  A    between atoms: C2_3  and  C3_4 
REMARK    3  A    between atoms: C14_19  and  N3_20 
REMARK    4  A    between atoms: N3_20  and  C15_21 
REMARK    5  A    between atoms: C15_21  and  C16_22 
REMARK    6  A    between atoms: C16_22  and  C17_23 
REMARK    7  A    between atoms: C17_23  and  C18_24 
REMARK    8  A    between atoms: C18_24  and  C19_25 
ROOT
HETATM    1  C3  UNL     1      20.975   1.343  51.944  1.00  0.00     0.122 A 
HETATM    2  C4  UNL     1      21.804   0.955  50.877  1.00  0.00     0.066 A 
HETATM    3  C5  UNL     1      21.017   1.550  49.167  1.00  0.00     0.019 A 
HETATM    4  C6  UNL     1      22.554   1.713  49.554  1.00  0.00     0.085 A 
HETATM    5  C7  UNL     1      22.219   3.384  49.899  1.00  0.00     0.082 A 
HETATM    6  O1  UNL     1      21.197   4.042  50.138  1.00  0.00    -0.308 OA
HETATM    7  C8  UNL     1      23.616   3.429  49.737  1.00  0.00     0.072 A 
HETATM    8  C9  UNL     1      22.846   3.411  48.399  1.00  0.00     0.069 A 
HETATM    9  C10 UNL     1      22.243   2.461  47.261  1.00  0.00     0.047 C 
HETATM   10  P1  UNL     1      20.739   1.371  49.552  1.00  0.00    -0.077 P 
HETATM   11  C11 UNL     1      19.948   0.845  50.702  1.00  0.00     0.074 C 
HETATM   12  O2  UNL     1      19.274   0.415  51.716  1.00  0.00    -0.319 OA
HETATM   13  C12 UNL     1      19.644   2.080  52.306  1.00  0.00     0.200 A 
HETATM   14  N2  UNL     1      20.667   2.907  52.459  1.00  0.00    -0.249 NA
HETATM   15  C13 UNL     1      22.146   3.159  52.360  1.00  0.00     0.119 C 
HETATM   16  C14 UNL     1      23.127   3.334  51.271  1.00  0.00     0.113 A 
ENDROOT
BRANCH  16  17
HETATM   17  N3  UNL     1      24.401   3.431  51.604  1.00  0.00    -0.381 N 
HETATM   18  H13 UNL     1      24.707   4.283  52.169  1.00  0.00     0.160 HD
BRANCH  17  19
HETATM   19  C15 UNL     1      25.590   2.717  51.465  1.00  0.00     0.084 C 
BRANCH  19  20
HETATM   20  C16 UNL     1      26.662   1.987  51.334  1.00  0.00     0.017 C 
BRANCH  20  21
HETATM   21  C17 UNL     1      26.401   0.647  51.922  1.00  0.00    -0.000 C 
BRANCH  21  22
HETATM   22  C18 UNL     1      25.644   0.130  52.837  1.00  0.00     0.004 C 
BRANCH  22  23
HETATM   23  C19 UNL     1      25.205  -0.571  54.035  1.00  0.00     0.249 C 
HETATM   24  F1  UNL     1      26.044  -0.271  55.122  1.00  0.00    -0.251 F 
ENDBRANCH  22  23
ENDBRANCH  21  22
ENDBRANCH  20  21
ENDBRANCH  19  20
ENDBRANCH  17  19
ENDBRANCH  16  17
BRANCH   1  25
HETATM   25  C2  UNL     1      21.579   0.821  53.164  1.00  0.00     0.304 C 
BRANCH  25  26
HETATM   26  N1  UNL     1      21.775  -0.633  52.926  1.00  0.00     0.081 N 
HETATM   27  C1  UNL     1      21.390  -1.371  54.135  1.00  0.00     0.306 C 
HETATM   28  H4  UNL     1      22.756  -0.876  52.770  1.00  0.00     0.315 HD
ENDBRANCH  25  26
ENDBRANCH   1  25
TORSDOF 8
ENDMDL
MODEL 7
REMARK VINA RESULT:      -6.2      3.056      6.516
REMARK  8 active torsions:
REMARK  status: ('A' for Active; 'I' for Inactive)
REMARK    1  A    between atoms: N1_2  and  C2_3 
REMARK    2  A    between atoms: C2_3  and  C3_4 
REMARK    3  A    between atoms: C14_19  and  N3_20 
REMARK    4  A    between atoms: N3_20  and  C15_21 
REMARK    5  A    between atoms: C15_21  and  C16_22 
REMARK    6  A    between atoms: C16_22  and  C17_23 
REMARK    7  A    between atoms: C17_23  and  C18_24 
REMARK    8  A    between atoms: C18_24  and  C19_25 
ROOT
HETATM    1  C3  UNL     1      24.244   6.224  49.967  1.00  0.00     0.122 A 
HETATM    2  C4  UNL     1      23.783   5.928  51.262  1.00  0.00     0.066 A 
HETATM    3  C5  UNL     1      21.898   5.350  51.186  1.00  0.00     0.019 A 
HETATM    4  C6  UNL     1      23.029   4.616  52.036  1.00  0.00     0.085 A 
HETATM    5  C7  UNL     1      23.094   3.412  50.783  1.00  0.00     0.082 A 
HETATM    6  O1  UNL     1      22.740   3.362  49.597  1.00  0.00    -0.308 OA
HETATM    7  C8  UNL     1      23.688   2.710  51.848  1.00  0.00     0.072 A 
HETATM    8  C9  UNL     1      22.146   2.743  51.922  1.00  0.00     0.069 A 
HETATM    9  C10 UNL     1      20.892   3.552  52.498  1.00  0.00     0.047 C 
HETATM   10  P1  UNL     1      22.085   5.722  50.896  1.00  0.00    -0.077 P 
HETATM   11  C11 UNL     1      22.664   6.809  50.055  1.00  0.00     0.074 C 
HETATM   12  O2  UNL     1      23.186   7.727  49.313  1.00  0.00    -0.319 OA
HETATM   13  C12 UNL     1      23.830   6.274  48.460  1.00  0.00     0.200 A 
HETATM   14  N2  UNL     1      24.471   5.141  48.710  1.00  0.00    -0.249 NA
HETATM   15  C13 UNL     1      25.156   4.240  49.698  1.00  0.00     0.119 C 
HETATM   16  C14 UNL     1      24.740   3.385  50.827  1.00  0.00     0.113 A 
ENDROOT
BRANCH  16  17
HETATM   17  N3  UNL     1      25.688   2.813  51.546  1.00  0.00    -0.381 N 
HETATM   18  H13 UNL     1      26.270   3.433  52.190  1.00  0.00     0.160 HD
BRANCH  17  19
HETATM   19  C15 UNL     1      26.222   1.547  51.781  1.00  0.00     0.084 C 
BRANCH  19  20
HETATM   20  C16 UNL     1      26.715   0.377  52.075  1.00  0.00     0.017 C 
BRANCH  20  21
HETATM   21  C17 UNL     1      25.995  -0.161  53.258  1.00  0.00    -0.000 C 
BRANCH  21  22
HETATM   22  C18 UNL     1      24.787  -0.507  53.572  1.00  0.00     0.004 C 
BRANCH  22  23
HETATM   23  C19 UNL     1      23.342  -0.476  53.752  1.00  0.00     0.249 C 
HETATM   24  F1  UNL     1      22.685  -0.562  52.512  1.00  0.00    -0.251 F 
ENDBRANCH  22  23
ENDBRANCH  21  22
ENDBRANCH  20  21
ENDBRANCH  19  20
ENDBRANCH  17  19
ENDBRANCH  16  17
BRANCH   1  25
HETATM   25  C2  UNL     1      25.615   6.702  50.102  1.00  0.00     0.304 C 
BRANCH  25  26
HETATM   26  N1  UNL     1      25.522   7.992  50.834  1.00  0.00     0.081 N 
HETATM   27  C1  UNL     1      26.389   8.977  50.178  1.00  0.00     0.306 C 
HETATM   28  H4  UNL     1      25.876   7.926  51.791  1.00  0.00     0.315 HD
ENDBRANCH  25  26
ENDBRANCH   1  25
TORSDOF 8
ENDMDL
MODEL 8
REMARK VINA RESULT:      -6.2      3.459      6.766
REMARK  8 active torsions:
REMARK  status: ('A' for Active; 'I' for Inactive)
REMARK    1  A    between atoms: N1_2  and  C2_3 
REMARK    2  A    between atoms: C2_3  and  C3_4 
REMARK    3  A    between atoms: C14_19  and  N3_20 
REMARK    4  A    between atoms: N3_20  and  C15_21 
REMARK    5  A    between atoms: C15_21  and  C16_22 
REMARK    6  A    between atoms: C16_22  and  C17_23 
REMARK    7  A    between atoms: C17_23  and  C18_24 
REMARK    8  A    between atoms: C18_24  and  C19_25 
ROOT
HETATM    1  C3  UNL     1      23.659   4.791  50.094  1.00  0.00     0.122 A 
HETATM    2  C4  UNL     1      23.712   3.389  49.990  1.00  0.00     0.066 A 
HETATM    3  C5  UNL     1      25.278   2.703  50.974  1.00  0.00     0.019 A 
HETATM    4  C6  UNL     1      23.817   2.073  51.059  1.00  0.00     0.085 A 
HETATM    5  C7  UNL     1      23.634   2.876  52.590  1.00  0.00     0.082 A 
HETATM    6  O1  UNL     1      24.196   3.824  53.155  1.00  0.00    -0.308 OA
HETATM    7  C8  UNL     1      22.631   1.893  52.691  1.00  0.00     0.072 A 
HETATM    8  C9  UNL     1      24.047   1.355  52.991  1.00  0.00     0.069 A 
HETATM    9  C10 UNL     1      25.343   0.679  52.341  1.00  0.00     0.047 C 
HETATM   10  P1  UNL     1      25.288   3.132  50.703  1.00  0.00    -0.077 P 
HETATM   11  C11 UNL     1      25.286   4.389  49.901  1.00  0.00     0.074 C 
HETATM   12  O2  UNL     1      25.261   5.490  49.228  1.00  0.00    -0.319 OA
HETATM   13  C12 UNL     1      24.378   6.039  50.701  1.00  0.00     0.200 A 
HETATM   14  N2  UNL     1      23.366   5.684  51.480  1.00  0.00    -0.249 NA
HETATM   15  C13 UNL     1      22.232   4.740  51.768  1.00  0.00     0.119 C 
HETATM   16  C14 UNL     1      22.098   3.341  52.217  1.00  0.00     0.113 A 
ENDROOT
BRANCH  16  17
HETATM   17  N3  UNL     1      20.886   2.819  52.247  1.00  0.00    -0.381 N 
HETATM   18  H13 UNL     1      20.074   3.457  52.517  1.00  0.00     0.160 HD
BRANCH  17  19
HETATM   19  C15 UNL     1      20.248   1.604  52.004  1.00  0.00     0.084 C 
BRANCH  19  20
HETATM   20  C16 UNL     1      19.594   0.506  51.747  1.00  0.00     0.017 C 
BRANCH  20  21
HETATM   21  C17 UNL     1      19.659  -0.379  52.939  1.00  0.00    -0.000 C 
BRANCH  21  22
HETATM   22  C18 UNL     1      20.560  -0.827  53.755  1.00  0.00     0.004 C 
BRANCH  22  23
HETATM   23  C19 UNL     1      21.539  -0.897  54.830  1.00  0.00     0.249 C 
HETATM   24  F1  UNL     1      22.766  -1.390  54.353  1.00  0.00    -0.251 F 
ENDBRANCH  22  23
ENDBRANCH  21  22
ENDBRANCH  20  21
ENDBRANCH  19  20
ENDBRANCH  17  19
ENDBRANCH  16  17
BRANCH   1  25
HETATM   25  C2  UNL     1      22.522   5.235  49.297  1.00  0.00     0.304 C 
BRANCH  25  26
HETATM   26  N1  UNL     1      22.733   4.664  47.941  1.00  0.00     0.081 N 
HETATM   27  C1  UNL     1      22.479   5.706  46.939  1.00  0.00     0.306 C 
HETATM   28  H4  UNL     1      22.067   3.920  47.721  1.00  0.00     0.315 HD
ENDBRANCH  25  26
ENDBRANCH   1  25
TORSDOF 8
ENDMDL
MODEL 9
REMARK VINA RESULT:      -6.0      3.018      6.445
REMARK  8 active torsions:
REMARK  status: ('A' for Active; 'I' for Inactive)
REMARK    1  A    between atoms: N1_2  and  C2_3 
REMARK    2  A    between atoms: C2_3  and  C3_4 
REMARK    3  A    between atoms: C14_19  and  N3_20 
REMARK    4  A    between atoms: N3_20  and  C15_21 
REMARK    5  A    between atoms: C15_21  and  C16_22 
REMARK    6  A    between atoms: C16_22  and  C17_23 
REMARK    7  A    between atoms: C17_23  and  C18_24 
REMARK    8  A    between atoms: C18_24  and  C19_25 
ROOT
HETATM    1  C3  UNL     1      23.430   3.179  50.592  1.00  0.00     0.122 A 
HETATM    2  C4  UNL     1      24.435   2.203  50.467  1.00  0.00     0.066 A 
HETATM    3  C5  UNL     1      26.089   2.829  51.343  1.00  0.00     0.019 A 
HETATM    4  C6  UNL     1      25.482   1.365  51.510  1.00  0.00     0.085 A 
HETATM    5  C7  UNL     1      24.875   1.868  53.060  1.00  0.00     0.082 A 
HETATM    6  O1  UNL     1      24.651   2.959  53.601  1.00  0.00    -0.308 OA
HETATM    7  C8  UNL     1      24.843   0.469  53.211  1.00  0.00     0.072 A 
HETATM    8  C9  UNL     1      26.249   1.074  53.415  1.00  0.00     0.069 A 
HETATM    9  C10 UNL     1      27.613   1.463  52.677  1.00  0.00     0.047 C 
HETATM   10  P1  UNL     1      25.784   3.135  51.078  1.00  0.00    -0.077 P 
HETATM   11  C11 UNL     1      24.866   4.011  50.293  1.00  0.00     0.074 C 
HETATM   12  O2  UNL     1      24.048   4.764  49.637  1.00  0.00    -0.319 OA
HETATM   13  C12 UNL     1      23.111   4.596  51.170  1.00  0.00     0.200 A 
HETATM   14  N2  UNL     1      22.674   3.665  52.006  1.00  0.00    -0.249 NA
HETATM   15  C13 UNL     1      22.530   2.209  52.351  1.00  0.00     0.119 C 
HETATM   16  C14 UNL     1      23.430   1.125  52.789  1.00  0.00     0.113 A 
ENDROOT
BRANCH  16  17
HETATM   17  N3  UNL     1      22.923  -0.090  52.888  1.00  0.00    -0.381 N 
HETATM   18  H13 UNL     1      23.365  -0.865  52.303  1.00  0.00     0.160 HD
BRANCH  17  19
HETATM   19  C15 UNL     1      21.920  -0.767  53.579  1.00  0.00     0.084 C 
BRANCH  19  20
HETATM   20  C16 UNL     1      20.953  -1.422  54.160  1.00  0.00     0.017 C 
BRANCH  20  21
HETATM   21  C17 UNL     1      19.656  -0.843  53.726  1.00  0.00    -0.000 C 
BRANCH  21  22
HETATM   22  C18 UNL     1      19.168  -0.256  52.679  1.00  0.00     0.004 C 
BRANCH  22  23
HETATM   23  C19 UNL     1      18.944   0.146  51.297  1.00  0.00     0.249 C 
HETATM   24  F1  UNL     1      20.166   0.288  50.617  1.00  0.00    -0.251 F 
ENDBRANCH  22  23
ENDBRANCH  21  22
ENDBRANCH  20  21
ENDBRANCH  19  20
ENDBRANCH  17  19
ENDBRANCH  16  17
BRANCH   1  25
HETATM   25  C2  UNL     1      22.262   2.683  49.873  1.00  0.00     0.304 C 
BRANCH  25  26
HETATM   26  N1  UNL     1      22.749   2.321  48.516  1.00  0.00     0.081 N 
HETATM   27  C1  UNL     1      21.770   2.776  47.521  1.00  0.00     0.306 C 
HETATM   28  H4  UNL     1      22.813   1.310  48.380  1.00  0.00     0.315 HD
ENDBRANCH  25  26
ENDBRANCH   1  25
TORSDOF 8
ENDMDL
