MODEL 1
REMARK VINA RESULT:      -6.9      0.000      0.000
REMARK  5 active torsions:
REMARK  status: ('A' for Active; 'I' for Inactive)
REMARK       I    between atoms: C2_2  and  N1_4 
REMARK    1  A    between atoms: N1_4  and  C3_5 
REMARK    2  A    between atoms: C7_11  and  N4_12 
REMARK    3  A    between atoms: C8_13  and  N5_14 
REMARK    4  A    between atoms: C13_20  and  C14_21 
REMARK    5  A    between atoms: C14_21  and  N6_22 
ROOT
HETATM    1  C3  UNL     1      25.483   0.379  53.043  1.00  0.00     0.053 A 
HETATM    2  C4  UNL     1      24.823  -0.732  53.503  1.00  0.00     0.148 A 
HETATM    3  N2  UNL     1      23.491  -0.886  53.576  1.00  0.00    -0.238 NA
HETATM    4  C5  UNL     1      22.660   0.112  53.174  1.00  0.00     0.161 A 
HETATM    5  N3  UNL     1      21.329   0.036  53.212  1.00  0.00    -0.238 NA
HETATM    6  C6  UNL     1      20.546   1.067  52.793  1.00  0.00     0.150 A 
HETATM    7  C7  UNL     1      21.143   2.215  52.320  1.00  0.00     0.072 A 
HETATM    8  C8  UNL     1      22.520   2.305  52.275  1.00  0.00     0.081 A 
HETATM    9  C17 UNL     1      23.285   1.245  52.706  1.00  0.00     0.043 A 
HETATM   10  C18 UNL     1      24.653   1.395  52.634  1.00  0.00     0.049 A 
ENDROOT
BRANCH   8  11
HETATM   11  N5  UNL     1      23.054   3.547  51.762  1.00  0.00    -0.321 N 
HETATM   12  C9  UNL     1      23.107   4.495  52.851  1.00  0.00     0.094 A 
HETATM   13  C10 UNL     1      23.555   5.721  52.667  1.00  0.00    -0.004 A 
HETATM   14  C11 UNL     1      24.026   6.190  51.333  1.00  0.00     0.077 A 
HETATM   15  C12 UNL     1      23.906   5.106  50.354  1.00  0.00     0.017 A 
HETATM   16 BR1  UNL     1      24.604   5.559  48.644  1.00  0.00    -0.053 Br
HETATM   17  C13 UNL     1      23.485   3.874  50.409  1.00  0.00     0.058 A 
BRANCH  17  18
HETATM   18  C14 UNL     1      23.220   2.702  49.603  1.00  0.00     0.329 C 
BRANCH  18  19
HETATM   19  N6  UNL     1      21.994   2.795  48.865  1.00  0.00     0.085 N 
HETATM   20  C15 UNL     1      21.291   1.534  48.819  1.00  0.00     0.309 C 
HETATM   21  C16 UNL     1      22.152   3.398  47.562  1.00  0.00     0.309 C 
ENDBRANCH  18  19
ENDBRANCH  17  18
ENDBRANCH   8  11
BRANCH   7  22
HETATM   22  N4  UNL     1      20.212   3.216  51.914  1.00  0.00    -0.396 N 
HETATM   23  H7  UNL     1      20.654   4.085  51.505  1.00  0.00     0.156 HD
HETATM   24  H8  UNL     1      19.309   2.718  52.177  1.00  0.00     0.156 HD
ENDBRANCH   7  22
BRANCH   1  25
HETATM   25  N1  UNL     1      26.879   0.572  52.949  1.00  0.00    -0.326 N 
HETATM   26  C2  UNL     1      27.906   0.307  53.889  1.00  0.00     0.218 C 
HETATM   27  C1  UNL     1      29.334   0.550  53.680  1.00  0.00     0.117 C 
HETATM   28  O1  UNL     1      27.578  -0.181  55.000  1.00  0.00    -0.274 OA
HETATM   29  H4  UNL     1      27.283   0.973  52.074  1.00  0.00     0.169 HD
ENDBRANCH   1  25
TORSDOF 5
ENDMDL
MODEL 2
REMARK VINA RESULT:      -6.9      3.129      5.546
REMARK  5 active torsions:
REMARK  status: ('A' for Active; 'I' for Inactive)
REMARK       I    between atoms: C2_2  and  N1_4 
REMARK    1  A    between atoms: N1_4  and  C3_5 
REMARK    2  A    between atoms: C7_11  and  N4_12 
REMARK    3  A    between atoms: C8_13  and  N5_14 
REMARK    4  A    between atoms: C13_20  and  C14_21 
REMARK    5  A    between atoms: C14_21  and  N6_22 
ROOT
HETATM    1  C3  UNL     1      21.712   1.990  48.593  1.00  0.00     0.053 A 
HETATM    2  C4  UNL     1      21.117   0.965  49.283  1.00  0.00     0.148 A 
HETATM    3  N2  UNL     1      21.463   0.531  50.506  1.00  0.00    -0.238 NA
HETATM    4  C5  UNL     1      22.490   1.115  51.178  1.00  0.00     0.161 A 
HETATM    5  N3  UNL     1      22.892   0.745  52.395  1.00  0.00    -0.238 NA
HETATM    6  C6  UNL     1      23.926   1.370  53.022  1.00  0.00     0.150 A 
HETATM    7  C7  UNL     1      24.570   2.408  52.385  1.00  0.00     0.072 A 
HETATM    8  C8  UNL     1      24.162   2.801  51.127  1.00  0.00     0.081 A 
HETATM    9  C17 UNL     1      23.113   2.149  50.518  1.00  0.00     0.043 A 
HETATM   10  C18 UNL     1      22.752   2.589  49.263  1.00  0.00     0.049 A 
ENDROOT
BRANCH   8  11
HETATM   11  N5  UNL     1      24.897   3.899  50.540  1.00  0.00    -0.321 N 
HETATM   12  C9  UNL     1      26.000   3.348  49.786  1.00  0.00     0.094 A 
HETATM   13  C10 UNL     1      26.844   4.129  49.143  1.00  0.00    -0.004 A 
HETATM   14  C11 UNL     1      26.706   5.613  49.159  1.00  0.00     0.077 A 
HETATM   15  C12 UNL     1      25.540   5.994  49.961  1.00  0.00     0.017 A 
HETATM   16 BR1  UNL     1      25.196   7.865  49.940  1.00  0.00    -0.053 Br
HETATM   17  C13 UNL     1      24.645   5.331  50.637  1.00  0.00     0.058 A 
BRANCH  17  18
HETATM   18  C14 UNL     1      23.507   5.485  51.517  1.00  0.00     0.329 C 
BRANCH  18  19
HETATM   19  N6  UNL     1      22.293   5.785  50.816  1.00  0.00     0.085 N 
HETATM   20  C15 UNL     1      22.007   7.202  50.806  1.00  0.00     0.309 C 
HETATM   21  C16 UNL     1      21.168   4.988  51.247  1.00  0.00     0.309 C 
ENDBRANCH  18  19
ENDBRANCH  17  18
ENDBRANCH   8  11
BRANCH   7  22
HETATM   22  N4  UNL     1      25.633   2.975  53.149  1.00  0.00    -0.396 N 
HETATM   23  H7  UNL     1      26.600   2.692  52.832  1.00  0.00     0.156 HD
HETATM   24  H8  UNL     1      25.054   3.541  53.841  1.00  0.00     0.156 HD
ENDBRANCH   7  22
BRANCH   1  25
HETATM   25  N1  UNL     1      21.371   2.474  47.310  1.00  0.00    -0.326 N 
HETATM   26  C2  UNL     1      20.493   3.519  46.928  1.00  0.00     0.218 C 
HETATM   27  C1  UNL     1      20.215   3.936  45.553  1.00  0.00     0.117 C 
HETATM   28  O1  UNL     1      19.896   4.150  47.837  1.00  0.00    -0.274 OA
HETATM   29  H4  UNL     1      21.800   2.034  46.467  1.00  0.00     0.169 HD
ENDBRANCH   1  25
TORSDOF 5
ENDMDL
MODEL 3
REMARK VINA RESULT:      -6.9      2.232      3.395
REMARK  5 active torsions:
REMARK  status: ('A' for Active; 'I' for Inactive)
REMARK       I    between atoms: C2_2  and  N1_4 
REMARK    1  A    between atoms: N1_4  and  C3_5 
REMARK    2  A    between atoms: C7_11  and  N4_12 
REMARK    3  A    between atoms: C8_13  and  N5_14 
REMARK    4  A    between atoms: C13_20  and  C14_21 
REMARK    5  A    between atoms: C14_21  and  N6_22 
ROOT
HETATM    1  C3  UNL     1      25.896   1.938  53.213  1.00  0.00     0.053 A 
HETATM    2  C4  UNL     1      24.994   0.923  53.411  1.00  0.00     0.148 A 
HETATM    3  N2  UNL     1      23.911   0.672  52.657  1.00  0.00    -0.238 NA
HETATM    4  C5  UNL     1      23.622   1.455  51.585  1.00  0.00     0.161 A 
HETATM    5  N3  UNL     1      22.569   1.270  50.786  1.00  0.00    -0.238 NA
HETATM    6  C6  UNL     1      22.331   2.085  49.724  1.00  0.00     0.150 A 
HETATM    7  C7  UNL     1      23.197   3.126  49.468  1.00  0.00     0.072 A 
HETATM    8  C8  UNL     1      24.290   3.328  50.286  1.00  0.00     0.081 A 
HETATM    9  C17 UNL     1      24.504   2.485  51.354  1.00  0.00     0.043 A 
HETATM   10  C18 UNL     1      25.614   2.737  52.131  1.00  0.00     0.049 A 
ENDROOT
BRANCH   8  11
HETATM   11  N5  UNL     1      25.142   4.443  49.937  1.00  0.00    -0.321 N 
HETATM   12  C9  UNL     1      26.222   3.941  49.118  1.00  0.00     0.094 A 
HETATM   13  C10 UNL     1      27.157   4.746  48.654  1.00  0.00    -0.004 A 
HETATM   14  C11 UNL     1      27.150   6.206  48.950  1.00  0.00     0.077 A 
HETATM   15  C12 UNL     1      25.991   6.539  49.782  1.00  0.00     0.017 A 
HETATM   16 BR1  UNL     1      25.814   8.404  50.111  1.00  0.00    -0.053 Br
HETATM   17  C13 UNL     1      25.014   5.847  50.299  1.00  0.00     0.058 A 
BRANCH  17  18
HETATM   18  C14 UNL     1      23.860   5.941  51.166  1.00  0.00     0.329 C 
BRANCH  18  19
HETATM   19  N6  UNL     1      22.689   6.421  50.491  1.00  0.00     0.085 N 
HETATM   20  C15 UNL     1      22.640   7.865  50.448  1.00  0.00     0.309 C 
HETATM   21  C16 UNL     1      21.463   5.832  50.976  1.00  0.00     0.309 C 
ENDBRANCH  18  19
ENDBRANCH  17  18
ENDBRANCH   8  11
BRANCH   7  22
HETATM   22  N4  UNL     1      22.834   3.903  48.328  1.00  0.00    -0.396 N 
HETATM   23  H7  UNL     1      23.450   3.754  47.482  1.00  0.00     0.156 HD
HETATM   24  H8  UNL     1      21.997   4.417  48.739  1.00  0.00     0.156 HD
ENDBRANCH   7  22
BRANCH   1  25
HETATM   25  N1  UNL     1      27.045   2.228  53.982  1.00  0.00    -0.326 N 
HETATM   26  C2  UNL     1      28.404   1.892  53.762  1.00  0.00     0.218 C 
HETATM   27  C1  UNL     1      29.521   2.250  54.637  1.00  0.00     0.117 C 
HETATM   28  O1  UNL     1      28.689   1.231  52.732  1.00  0.00    -0.274 OA
HETATM   29  H4  UNL     1      26.945   2.773  54.866  1.00  0.00     0.169 HD
ENDBRANCH   1  25
TORSDOF 5
ENDMDL
MODEL 4
REMARK VINA RESULT:      -6.7      2.631      4.435
REMARK  5 active torsions:
REMARK  status: ('A' for Active; 'I' for Inactive)
REMARK       I    between atoms: C2_2  and  N1_4 
REMARK    1  A    between atoms: N1_4  and  C3_5 
REMARK    2  A    between atoms: C7_11  and  N4_12 
REMARK    3  A    between atoms: C8_13  and  N5_14 
REMARK    4  A    between atoms: C13_20  and  C14_21 
REMARK    5  A    between atoms: C14_21  and  N6_22 
ROOT
HETATM    1  C3  UNL     1      26.088   2.881  50.641  1.00  0.00     0.053 A 
HETATM    2  C4  UNL     1      26.779   2.246  51.642  1.00  0.00     0.148 A 
HETATM    3  N2  UNL     1      26.256   1.415  52.558  1.00  0.00    -0.238 NA
HETATM    4  C5  UNL     1      24.926   1.134  52.553  1.00  0.00     0.161 A 
HETATM    5  N3  UNL     1      24.332   0.318  53.425  1.00  0.00    -0.238 NA
HETATM    6  C6  UNL     1      22.995   0.071  53.369  1.00  0.00     0.150 A 
HETATM    7  C7  UNL     1      22.239   0.677  52.389  1.00  0.00     0.072 A 
HETATM    8  C8  UNL     1      22.843   1.522  51.481  1.00  0.00     0.081 A 
HETATM    9  C17 UNL     1      24.198   1.753  51.563  1.00  0.00     0.043 A 
HETATM   10  C18 UNL     1      24.742   2.604  50.626  1.00  0.00     0.049 A 
ENDROOT
BRANCH   8  11
HETATM   11  N5  UNL     1      21.970   2.110  50.489  1.00  0.00    -0.321 N 
HETATM   12  C9  UNL     1      21.978   1.255  49.323  1.00  0.00     0.094 A 
HETATM   13  C10 UNL     1      21.265   1.552  48.256  1.00  0.00    -0.004 A 
HETATM   14  C11 UNL     1      20.419   2.777  48.195  1.00  0.00     0.077 A 
HETATM   15  C12 UNL     1      20.525   3.517  49.455  1.00  0.00     0.017 A 
HETATM   16 BR1  UNL     1      19.380   5.034  49.533  1.00  0.00    -0.053 Br
HETATM   17  C13 UNL     1      21.185   3.334  50.564  1.00  0.00     0.058 A 
BRANCH  17  18
HETATM   18  C14 UNL     1      21.487   3.933  51.845  1.00  0.00     0.329 C 
BRANCH  18  19
HETATM   19  N6  UNL     1      22.504   4.941  51.767  1.00  0.00     0.085 N 
HETATM   20  C15 UNL     1      23.339   4.964  52.946  1.00  0.00     0.309 C 
HETATM   21  C16 UNL     1      21.995   6.246  51.415  1.00  0.00     0.309 C 
ENDBRANCH  18  19
ENDBRANCH  17  18
ENDBRANCH   8  11
BRANCH   7  22
HETATM   22  N4  UNL     1      20.856   0.334  52.442  1.00  0.00    -0.396 N 
HETATM   23  H7  UNL     1      20.392   0.236  51.497  1.00  0.00     0.156 HD
HETATM   24  H8  UNL     1      20.738   0.286  53.499  1.00  0.00     0.156 HD
ENDBRANCH   7  22
BRANCH   1  25
HETATM   25  N1  UNL     1      26.606   3.756  49.661  1.00  0.00    -0.326 N 
HETATM   26  C2  UNL     1      26.369   5.137  49.447  1.00  0.00     0.218 C 
HETATM   27  C1  UNL     1      26.968   5.949  48.387  1.00  0.00     0.117 C 
HETATM   28  O1  UNL     1      25.580   5.728  50.227  1.00  0.00    -0.274 OA
HETATM   29  H4  UNL     1      27.275   3.389  48.949  1.00  0.00     0.169 HD
ENDBRANCH   1  25
TORSDOF 5
ENDMDL
MODEL 5
REMARK VINA RESULT:      -6.6      2.854      5.438
REMARK  5 active torsions:
REMARK  status: ('A' for Active; 'I' for Inactive)
REMARK       I    between atoms: C2_2  and  N1_4 
REMARK    1  A    between atoms: N1_4  and  C3_5 
REMARK    2  A    between atoms: C7_11  and  N4_12 
REMARK    3  A    between atoms: C8_13  and  N5_14 
REMARK    4  A    between atoms: C13_20  and  C14_21 
REMARK    5  A    between atoms: C14_21  and  N6_22 
ROOT
HETATM    1  C3  UNL     1      20.576  -0.701  53.738  1.00  0.00     0.053 A 
HETATM    2  C4  UNL     1      21.532  -1.190  54.591  1.00  0.00     0.148 A 
HETATM    3  N2  UNL     1      22.846  -0.912  54.547  1.00  0.00    -0.238 NA
HETATM    4  C5  UNL     1      23.341  -0.078  53.595  1.00  0.00     0.161 A 
HETATM    5  N3  UNL     1      24.629   0.250  53.486  1.00  0.00    -0.238 NA
HETATM    6  C6  UNL     1      25.068   1.093  52.513  1.00  0.00     0.150 A 
HETATM    7  C7  UNL     1      24.160   1.621  51.621  1.00  0.00     0.072 A 
HETATM    8  C8  UNL     1      22.824   1.290  51.724  1.00  0.00     0.081 A 
HETATM    9  C17 UNL     1      22.411   0.433  52.719  1.00  0.00     0.043 A 
HETATM   10  C18 UNL     1      21.065   0.144  52.771  1.00  0.00     0.049 A 
ENDROOT
BRANCH   8  11
HETATM   11  N5  UNL     1      21.948   1.894  50.745  1.00  0.00    -0.321 N 
HETATM   12  C9  UNL     1      21.896   1.022  49.593  1.00  0.00     0.094 A 
HETATM   13  C10 UNL     1      21.167   1.328  48.538  1.00  0.00    -0.004 A 
HETATM   14  C11 UNL     1      20.365   2.582  48.479  1.00  0.00     0.077 A 
HETATM   15  C12 UNL     1      20.530   3.337  49.723  1.00  0.00     0.017 A 
HETATM   16 BR1  UNL     1      19.442   4.896  49.805  1.00  0.00    -0.053 Br
HETATM   17  C13 UNL     1      21.210   3.147  50.819  1.00  0.00     0.058 A 
BRANCH  17  18
HETATM   18  C14 UNL     1      21.566   3.755  52.083  1.00  0.00     0.329 C 
BRANCH  18  19
HETATM   19  N6  UNL     1      22.589   4.751  51.958  1.00  0.00     0.085 N 
HETATM   20  C15 UNL     1      23.448   4.796  53.118  1.00  0.00     0.309 C 
HETATM   21  C16 UNL     1      22.084   6.051  51.582  1.00  0.00     0.309 C 
ENDBRANCH  18  19
ENDBRANCH  17  18
ENDBRANCH   8  11
BRANCH   7  22
HETATM   22  N4  UNL     1      24.748   2.488  50.653  1.00  0.00    -0.396 N 
HETATM   23  H7  UNL     1      25.787   2.643  50.777  1.00  0.00     0.156 HD
HETATM   24  H8  UNL     1      23.879   2.710  50.080  1.00  0.00     0.156 HD
ENDBRANCH   7  22
BRANCH   1  25
HETATM   25  N1  UNL     1      19.188  -0.969  53.759  1.00  0.00    -0.326 N 
HETATM   26  C2  UNL     1      18.222  -0.876  52.727  1.00  0.00     0.218 C 
HETATM   27  C1  UNL     1      16.797  -1.182  52.866  1.00  0.00     0.117 C 
HETATM   28  O1  UNL     1      18.606  -0.501  51.591  1.00  0.00    -0.274 OA
HETATM   29  H4  UNL     1      18.742  -1.288  54.646  1.00  0.00     0.169 HD
ENDBRANCH   1  25
TORSDOF 5
ENDMDL
MODEL 6
REMARK VINA RESULT:      -6.4      1.447      3.011
REMARK  5 active torsions:
REMARK  status: ('A' for Active; 'I' for Inactive)
REMARK       I    between atoms: C2_2  and  N1_4 
REMARK    1  A    between atoms: N1_4  and  C3_5 
REMARK    2  A    between atoms: C7_11  and  N4_12 
REMARK    3  A    between atoms: C8_13  and  N5_14 
REMARK    4  A    between atoms: C13_20  and  C14_21 
REMARK    5  A    between atoms: C14_21  and  N6_22 
ROOT
HETATM    1  C3  UNL     1      24.246  -0.194  53.215  1.00  0.00     0.053 A 
HETATM    2  C4  UNL     1      23.636  -0.813  54.277  1.00  0.00     0.148 A 
HETATM    3  N2  UNL     1      22.316  -0.845  54.521  1.00  0.00    -0.238 NA
HETATM    4  C5  UNL     1      21.446  -0.226  53.680  1.00  0.00     0.161 A 
HETATM    5  N3  UNL     1      20.123  -0.215  53.850  1.00  0.00    -0.238 NA
HETATM    6  C6  UNL     1      19.299   0.420  52.973  1.00  0.00     0.150 A 
HETATM    7  C7  UNL     1      19.844   1.064  51.884  1.00  0.00     0.072 A 
HETATM    8  C8  UNL     1      21.212   1.058  51.696  1.00  0.00     0.081 A 
HETATM    9  C17 UNL     1      22.019   0.408  52.602  1.00  0.00     0.043 A 
HETATM   10  C18 UNL     1      23.375   0.436  52.358  1.00  0.00     0.049 A 
ENDROOT
BRANCH   8  11
HETATM   11  N5  UNL     1      21.690   1.759  50.525  1.00  0.00    -0.321 N 
HETATM   12  C9  UNL     1      21.552   0.877  49.389  1.00  0.00     0.094 A 
HETATM   13  C10 UNL     1      21.916   1.259  48.181  1.00  0.00    -0.004 A 
HETATM   14  C11 UNL     1      22.487   2.612  47.927  1.00  0.00     0.077 A 
HETATM   15  C12 UNL     1      22.551   3.368  49.180  1.00  0.00     0.017 A 
HETATM   16 BR1  UNL     1      23.145   5.159  48.946  1.00  0.00    -0.053 Br
HETATM   17  C13 UNL     1      22.231   3.107  50.416  1.00  0.00     0.058 A 
BRANCH  17  18
HETATM   18  C14 UNL     1      22.268   3.640  51.760  1.00  0.00     0.329 C 
BRANCH  18  19
HETATM   19  N6  UNL     1      23.510   4.283  52.074  1.00  0.00     0.085 N 
HETATM   20  C15 UNL     1      24.625   3.364  52.026  1.00  0.00     0.309 C 
HETATM   21  C16 UNL     1      23.468   5.051  53.297  1.00  0.00     0.309 C 
ENDBRANCH  18  19
ENDBRANCH  17  18
ENDBRANCH   8  11
BRANCH   7  22
HETATM   22  N4  UNL     1      18.874   1.688  51.044  1.00  0.00    -0.396 N 
HETATM   23  H7  UNL     1      18.365   1.026  50.396  1.00  0.00     0.156 HD
HETATM   24  H8  UNL     1      18.992   2.692  51.375  1.00  0.00     0.156 HD
ENDBRANCH   7  22
BRANCH   1  25
HETATM   25  N1  UNL     1      25.628  -0.144  52.927  1.00  0.00    -0.326 N 
HETATM   26  C2  UNL     1      26.673   0.567  53.567  1.00  0.00     0.218 C 
HETATM   27  C1  UNL     1      28.083   0.542  53.177  1.00  0.00     0.117 C 
HETATM   28  O1  UNL     1      26.378   1.284  54.557  1.00  0.00    -0.274 OA
HETATM   29  H4  UNL     1      26.003  -0.697  52.126  1.00  0.00     0.169 HD
ENDBRANCH   1  25
TORSDOF 5
ENDMDL
MODEL 7
REMARK VINA RESULT:      -6.4      2.610      5.035
REMARK  5 active torsions:
REMARK  status: ('A' for Active; 'I' for Inactive)
REMARK       I    between atoms: C2_2  and  N1_4 
REMARK    1  A    between atoms: N1_4  and  C3_5 
REMARK    2  A    between atoms: C7_11  and  N4_12 
REMARK    3  A    between atoms: C8_13  and  N5_14 
REMARK    4  A    between atoms: C13_20  and  C14_21 
REMARK    5  A    between atoms: C14_21  and  N6_22 
ROOT
HETATM    1  C3  UNL     1      22.474   0.295  52.309  1.00  0.00     0.053 A 
HETATM    2  C4  UNL     1      23.601   0.033  53.046  1.00  0.00     0.148 A 
HETATM    3  N2  UNL     1      24.793   0.637  52.910  1.00  0.00    -0.238 NA
HETATM    4  C5  UNL     1      24.969   1.606  51.975  1.00  0.00     0.161 A 
HETATM    5  N3  UNL     1      26.119   2.255  51.779  1.00  0.00    -0.238 NA
HETATM    6  C6  UNL     1      26.237   3.221  50.828  1.00  0.00     0.150 A 
HETATM    7  C7  UNL     1      25.144   3.535  50.050  1.00  0.00     0.072 A 
HETATM    8  C8  UNL     1      23.949   2.872  50.243  1.00  0.00     0.081 A 
HETATM    9  C17 UNL     1      23.861   1.899  51.213  1.00  0.00     0.043 A 
HETATM   10  C18 UNL     1      22.641   1.275  51.359  1.00  0.00     0.049 A 
ENDROOT
BRANCH   8  11
HETATM   11  N5  UNL     1      22.860   3.271  49.380  1.00  0.00    -0.321 N 
HETATM   12  C9  UNL     1      22.926   2.471  48.178  1.00  0.00     0.094 A 
HETATM   13  C10 UNL     1      22.047   2.626  47.207  1.00  0.00    -0.004 A 
HETATM   14  C11 UNL     1      20.948   3.629  47.299  1.00  0.00     0.077 A 
HETATM   15  C12 UNL     1      21.030   4.340  48.577  1.00  0.00     0.017 A 
HETATM   16 BR1  UNL     1      19.592   5.555  48.852  1.00  0.00    -0.053 Br
HETATM   17  C13 UNL     1      21.836   4.283  49.600  1.00  0.00     0.058 A 
BRANCH  17  18
HETATM   18  C14 UNL     1      22.141   4.901  50.871  1.00  0.00     0.329 C 
BRANCH  18  19
HETATM   19  N6  UNL     1      22.709   6.211  50.736  1.00  0.00     0.085 N 
HETATM   20  C15 UNL     1      23.862   6.394  51.587  1.00  0.00     0.309 C 
HETATM   21  C16 UNL     1      21.740   7.274  50.865  1.00  0.00     0.309 C 
ENDBRANCH  18  19
ENDBRANCH  17  18
ENDBRANCH   8  11
BRANCH   7  22
HETATM   22  N4  UNL     1      25.401   4.561  49.093  1.00  0.00    -0.396 N 
HETATM   23  H7  UNL     1      25.868   4.227  48.206  1.00  0.00     0.156 HD
HETATM   24  H8  UNL     1      25.006   5.391  49.631  1.00  0.00     0.156 HD
ENDBRANCH   7  22
BRANCH   1  25
HETATM   25  N1  UNL     1      21.207  -0.317  52.428  1.00  0.00    -0.326 N 
HETATM   26  C2  UNL     1      20.222  -0.195  53.439  1.00  0.00     0.218 C 
HETATM   27  C1  UNL     1      18.931  -0.886  53.457  1.00  0.00     0.117 C 
HETATM   28  O1  UNL     1      20.462   0.567  54.408  1.00  0.00    -0.274 OA
HETATM   29  H4  UNL     1      20.885  -0.976  51.685  1.00  0.00     0.169 HD
ENDBRANCH   1  25
TORSDOF 5
ENDMDL
MODEL 8
REMARK VINA RESULT:      -6.4      9.185     11.786
REMARK  5 active torsions:
REMARK  status: ('A' for Active; 'I' for Inactive)
REMARK       I    between atoms: C2_2  and  N1_4 
REMARK    1  A    between atoms: N1_4  and  C3_5 
REMARK    2  A    between atoms: C7_11  and  N4_12 
REMARK    3  A    between atoms: C8_13  and  N5_14 
REMARK    4  A    between atoms: C13_20  and  C14_21 
REMARK    5  A    between atoms: C14_21  and  N6_22 
ROOT
HETATM    1  C3  UNL     1      31.809   7.798  44.685  1.00  0.00     0.053 A 
HETATM    2  C4  UNL     1      33.133   7.461  44.570  1.00  0.00     0.148 A 
HETATM    3  N2  UNL     1      33.896   6.916  45.532  1.00  0.00    -0.238 NA
HETATM    4  C5  UNL     1      33.371   6.647  46.756  1.00  0.00     0.161 A 
HETATM    5  N3  UNL     1      34.060   6.104  47.762  1.00  0.00    -0.238 NA
HETATM    6  C6  UNL     1      33.480   5.854  48.967  1.00  0.00     0.150 A 
HETATM    7  C7  UNL     1      32.152   6.169  49.152  1.00  0.00     0.072 A 
HETATM    8  C8  UNL     1      31.428   6.730  48.119  1.00  0.00     0.081 A 
HETATM    9  C17 UNL     1      32.043   6.971  46.911  1.00  0.00     0.043 A 
HETATM   10  C18 UNL     1      31.267   7.530  45.919  1.00  0.00     0.049 A 
ENDROOT
BRANCH   8  11
HETATM   11  N5  UNL     1      30.042   7.024  48.408  1.00  0.00    -0.321 N 
HETATM   12  C9  UNL     1      29.256   5.865  48.050  1.00  0.00     0.094 A 
HETATM   13  C10 UNL     1      27.947   5.854  48.207  1.00  0.00    -0.004 A 
HETATM   14  C11 UNL     1      27.215   7.030  48.757  1.00  0.00     0.077 A 
HETATM   15  C12 UNL     1      28.162   8.104  49.067  1.00  0.00     0.017 A 
HETATM   16 BR1  UNL     1      27.344   9.608  49.898  1.00  0.00    -0.053 Br
HETATM   17  C13 UNL     1      29.454   8.237  48.958  1.00  0.00     0.058 A 
BRANCH  17  18
HETATM   18  C14 UNL     1      30.540   9.178  49.122  1.00  0.00     0.329 C 
BRANCH  18  19
HETATM   19  N6  UNL     1      30.485  10.266  48.190  1.00  0.00     0.085 N 
HETATM   20  C15 UNL     1      31.754  10.485  47.534  1.00  0.00     0.309 C 
HETATM   21  C16 UNL     1      29.927  11.475  48.750  1.00  0.00     0.309 C 
ENDBRANCH  18  19
ENDBRANCH  17  18
ENDBRANCH   8  11
BRANCH   7  22
HETATM   22  N4  UNL     1      31.668   5.857  50.457  1.00  0.00    -0.396 N 
HETATM   23  H7  UNL     1      31.415   6.700  51.043  1.00  0.00     0.156 HD
HETATM   24  H8  UNL     1      31.726   4.796  50.405  1.00  0.00     0.156 HD
ENDBRANCH   7  22
BRANCH   1  25
HETATM   25  N1  UNL     1      30.978   8.368  43.695  1.00  0.00    -0.326 N 
HETATM   26  C2  UNL     1      30.767   9.725  43.345  1.00  0.00     0.218 C 
HETATM   27  C1  UNL     1      29.872  10.202  42.290  1.00  0.00     0.117 C 
HETATM   28  O1  UNL     1      31.396  10.604  43.987  1.00  0.00    -0.274 OA
HETATM   29  H4  UNL     1      30.400   7.744  43.090  1.00  0.00     0.169 HD
ENDBRANCH   1  25
TORSDOF 5
ENDMDL
MODEL 9
REMARK VINA RESULT:      -6.3      3.286      5.419
REMARK  5 active torsions:
REMARK  status: ('A' for Active; 'I' for Inactive)
REMARK       I    between atoms: C2_2  and  N1_4 
REMARK    1  A    between atoms: N1_4  and  C3_5 
REMARK    2  A    between atoms: C7_11  and  N4_12 
REMARK    3  A    between atoms: C8_13  and  N5_14 
REMARK    4  A    between atoms: C13_20  and  C14_21 
REMARK    5  A    between atoms: C14_21  and  N6_22 
ROOT
HETATM    1  C3  UNL     1      25.013   3.009  50.480  1.00  0.00     0.053 A 
HETATM    2  C4  UNL     1      26.361   2.962  50.234  1.00  0.00     0.148 A 
HETATM    3  N2  UNL     1      27.078   3.893  49.582  1.00  0.00    -0.238 NA
HETATM    4  C5  UNL     1      26.474   5.008  49.094  1.00  0.00     0.161 A 
HETATM    5  N3  UNL     1      27.115   5.978  48.439  1.00  0.00    -0.238 NA
HETATM    6  C6  UNL     1      26.458   7.076  47.975  1.00  0.00     0.150 A 
HETATM    7  C7  UNL     1      25.101   7.187  48.186  1.00  0.00     0.072 A 
HETATM    8  C8  UNL     1      24.427   6.190  48.863  1.00  0.00     0.081 A 
HETATM    9  C17 UNL     1      25.120   5.092  49.321  1.00  0.00     0.043 A 
HETATM   10  C18 UNL     1      24.391   4.133  49.991  1.00  0.00     0.049 A 
ENDROOT
BRANCH   8  11
HETATM   11  N5  UNL     1      23.007   6.396  49.037  1.00  0.00    -0.321 N 
HETATM   12  C9  UNL     1      22.805   7.072  50.299  1.00  0.00     0.094 A 
HETATM   13  C10 UNL     1      21.595   7.386  50.718  1.00  0.00    -0.004 A 
HETATM   14  C11 UNL     1      20.381   7.062  49.917  1.00  0.00     0.077 A 
HETATM   15  C12 UNL     1      20.769   6.388  48.676  1.00  0.00     0.017 A 
HETATM   16 BR1  UNL     1      19.300   6.045  47.517  1.00  0.00    -0.053 Br
HETATM   17  C13 UNL     1      21.908   6.024  48.157  1.00  0.00     0.058 A 
BRANCH  17  18
HETATM   18  C14 UNL     1      22.501   5.320  47.041  1.00  0.00     0.329 C 
BRANCH  18  19
HETATM   19  N6  UNL     1      21.780   4.135  46.678  1.00  0.00     0.085 N 
HETATM   20  C15 UNL     1      22.205   2.985  47.442  1.00  0.00     0.309 C 
HETATM   21  C16 UNL     1      21.758   3.888  45.255  1.00  0.00     0.309 C 
ENDBRANCH  18  19
ENDBRANCH  17  18
ENDBRANCH   8  11
BRANCH   7  22
HETATM   22  N4  UNL     1      24.536   8.381  47.650  1.00  0.00    -0.396 N 
HETATM   23  H7  UNL     1      24.934   9.274  48.054  1.00  0.00     0.156 HD
HETATM   24  H8  UNL     1      23.847   7.945  46.966  1.00  0.00     0.156 HD
ENDBRANCH   7  22
BRANCH   1  25
HETATM   25  N1  UNL     1      24.231   2.052  51.165  1.00  0.00    -0.326 N 
HETATM   26  C2  UNL     1      23.958   1.911  52.548  1.00  0.00     0.218 C 
HETATM   27  C1  UNL     1      23.124   0.869  53.149  1.00  0.00     0.117 C 
HETATM   28  O1  UNL     1      24.470   2.744  53.338  1.00  0.00    -0.274 OA
HETATM   29  H4  UNL     1      23.750   1.301  50.622  1.00  0.00     0.169 HD
ENDBRANCH   1  25
TORSDOF 5
ENDMDL
