MODEL 1
REMARK VINA RESULT:      -8.0      0.000      0.000
REMARK  5 active torsions:
REMARK  status: ('A' for Active; 'I' for Inactive)
REMARK    1  A    between atoms: C2_2  and  S1_3 
REMARK    2  A    between atoms: S1_3  and  N1_6 
REMARK    3  A    between atoms: N1_6  and  C3_7 
REMARK    4  A    between atoms: C6_10  and  N2_11 
REMARK    5  A    between atoms: N2_11  and  C7_12 
ROOT
HETATM    1  C3  UNL     1      25.639   1.582  52.283  1.00  0.00     0.138 C 
HETATM    2  C4  UNL     1      26.393   1.746  51.212  1.00  0.00     0.054 C 
HETATM    3  C5  UNL     1      26.324   2.866  50.292  1.00  0.00     0.045 C 
HETATM    4  C6  UNL     1      25.674   3.984  50.082  1.00  0.00     0.078 C 
HETATM    5  N3  UNL     1      24.639   4.368  50.997  1.00  0.00    -0.253 NA
HETATM    6  C13 UNL     1      23.731   3.489  51.350  1.00  0.00     0.338 C 
HETATM    7  N4  UNL     1      23.723   2.126  50.854  1.00  0.00    -0.243 NA
HETATM    8  C14 UNL     1      23.147   1.345  51.681  1.00  0.00     0.120 C 
HETATM    9  C15 UNL     1      23.465   1.540  52.923  1.00  0.00     0.121 C 
HETATM   10  N5  UNL     1      24.600   2.144  53.072  1.00  0.00    -0.226 NA
ENDROOT
BRANCH   4  11
HETATM   11  N2  UNL     1      25.621   5.066  49.176  1.00  0.00    -0.347 N 
HETATM   12  H7  UNL     1      24.695   5.336  48.732  1.00  0.00     0.167 HD
BRANCH  11  13
HETATM   13  C7  UNL     1      26.788   5.800  48.851  1.00  0.00     0.034 A 
HETATM   14  C8  UNL     1      27.902   5.020  48.543  1.00  0.00     0.029 A 
HETATM   15  C9  UNL     1      29.087   5.642  48.215  1.00  0.00     0.004 A 
HETATM   16  C10 UNL     1      29.153   7.035  48.195  1.00  0.00     0.019 A 
HETATM   17  C11 UNL     1      28.019   7.758  48.508  1.00  0.00     0.013 A 
HETATM   18 BR1  UNL     1      28.141   9.679  48.471  1.00  0.00    -0.051 Br
HETATM   19  C12 UNL     1      26.816   7.173  48.842  1.00  0.00     0.048 A 
ENDBRANCH  11  13
ENDBRANCH   4  11
BRANCH   1  20
HETATM   20  N1  UNL     1      25.911   0.392  53.019  1.00  0.00    -0.265 N 
HETATM   21  H4  UNL     1      25.216  -0.387  52.861  1.00  0.00     0.180 HD
BRANCH  20  22
HETATM   22  S1  UNL     1      27.279   0.257  54.079  1.00  0.00     0.253 S 
HETATM   23  O1  UNL     1      26.821  -0.331  55.367  1.00  0.00    -0.201 OA
HETATM   24  O2  UNL     1      27.772   1.676  54.302  1.00  0.00    -0.201 OA
BRANCH  22  25
HETATM   25  C2  UNL     1      28.524  -0.713  53.327  1.00  0.00     0.121 C 
HETATM   26  C1  UNL     1      29.739  -0.258  53.607  1.00  0.00     0.025 C 
ENDBRANCH  22  25
ENDBRANCH  20  22
ENDBRANCH   1  20
TORSDOF 5
ENDMDL
MODEL 2
REMARK VINA RESULT:      -7.2      1.559      2.079
REMARK  5 active torsions:
REMARK  status: ('A' for Active; 'I' for Inactive)
REMARK    1  A    between atoms: C2_2  and  S1_3 
REMARK    2  A    between atoms: S1_3  and  N1_6 
REMARK    3  A    between atoms: N1_6  and  C3_7 
REMARK    4  A    between atoms: C6_10  and  N2_11 
REMARK    5  A    between atoms: N2_11  and  C7_12 
ROOT
HETATM    1  C3  UNL     1      25.797   2.663  51.248  1.00  0.00     0.138 C 
HETATM    2  C4  UNL     1      26.598   2.920  50.230  1.00  0.00     0.054 C 
HETATM    3  C5  UNL     1      26.598   4.137  49.440  1.00  0.00     0.045 C 
HETATM    4  C6  UNL     1      25.989   5.293  49.335  1.00  0.00     0.078 C 
HETATM    5  N3  UNL     1      24.930   5.606  50.249  1.00  0.00    -0.253 NA
HETATM    6  C13 UNL     1      23.984   4.724  50.468  1.00  0.00     0.338 C 
HETATM    7  N4  UNL     1      23.956   3.426  49.820  1.00  0.00    -0.243 NA
HETATM    8  C14 UNL     1      23.326   2.577  50.533  1.00  0.00     0.120 C 
HETATM    9  C15 UNL     1      23.599   2.621  51.800  1.00  0.00     0.121 C 
HETATM   10  N5  UNL     1      24.745   3.167  52.057  1.00  0.00    -0.226 NA
ENDROOT
BRANCH   4  11
HETATM   11  N2  UNL     1      26.003   6.471  48.555  1.00  0.00    -0.347 N 
HETATM   12  H7  UNL     1      25.154   6.726  47.971  1.00  0.00     0.167 HD
BRANCH  11  13
HETATM   13  C7  UNL     1      27.136   7.320  48.542  1.00  0.00     0.034 A 
HETATM   14  C8  UNL     1      27.103   8.354  49.478  1.00  0.00     0.029 A 
HETATM   15  C9  UNL     1      28.160   9.235  49.543  1.00  0.00     0.004 A 
HETATM   16  C10 UNL     1      29.243   9.079  48.677  1.00  0.00     0.019 A 
HETATM   17  C11 UNL     1      29.223   8.038  47.771  1.00  0.00     0.013 A 
HETATM   18 BR1  UNL     1      30.732   7.849  46.590  1.00  0.00    -0.051 Br
HETATM   19  C12 UNL     1      28.185   7.136  47.674  1.00  0.00     0.048 A 
ENDBRANCH  11  13
ENDBRANCH   4  11
BRANCH   1  20
HETATM   20  N1  UNL     1      26.006   1.389  51.854  1.00  0.00    -0.265 N 
HETATM   21  H4  UNL     1      25.402   0.616  51.463  1.00  0.00     0.180 HD
BRANCH  20  22
HETATM   22  S1  UNL     1      27.163   1.153  53.126  1.00  0.00     0.253 S 
HETATM   23  O1  UNL     1      26.538   1.561  54.413  1.00  0.00    -0.201 OA
HETATM   24  O2  UNL     1      28.329   2.072  52.801  1.00  0.00    -0.201 OA
BRANCH  22  25
HETATM   25  C2  UNL     1      27.686  -0.515  53.156  1.00  0.00     0.121 C 
HETATM   26  C1  UNL     1      26.782  -1.324  52.618  1.00  0.00     0.025 C 
ENDBRANCH  22  25
ENDBRANCH  20  22
ENDBRANCH   1  20
TORSDOF 5
ENDMDL
MODEL 3
REMARK VINA RESULT:      -7.1      2.739      3.304
REMARK  5 active torsions:
REMARK  status: ('A' for Active; 'I' for Inactive)
REMARK    1  A    between atoms: C2_2  and  S1_3 
REMARK    2  A    between atoms: S1_3  and  N1_6 
REMARK    3  A    between atoms: N1_6  and  C3_7 
REMARK    4  A    between atoms: C6_10  and  N2_11 
REMARK    5  A    between atoms: N2_11  and  C7_12 
ROOT
HETATM    1  C3  UNL     1      25.628   1.611  52.187  1.00  0.00     0.138 C 
HETATM    2  C4  UNL     1      26.233   2.114  51.127  1.00  0.00     0.054 C 
HETATM    3  C5  UNL     1      25.930   3.389  50.505  1.00  0.00     0.045 C 
HETATM    4  C6  UNL     1      25.132   4.423  50.618  1.00  0.00     0.078 C 
HETATM    5  N3  UNL     1      24.167   4.443  51.679  1.00  0.00    -0.253 NA
HETATM    6  C13 UNL     1      23.416   3.389  51.888  1.00  0.00     0.338 C 
HETATM    7  N4  UNL     1      23.513   2.184  51.086  1.00  0.00    -0.243 NA
HETATM    8  C14 UNL     1      23.130   1.165  51.750  1.00  0.00     0.120 C 
HETATM    9  C15 UNL     1      23.559   1.120  52.974  1.00  0.00     0.121 C 
HETATM   10  N5  UNL     1      24.624   1.831  53.168  1.00  0.00    -0.226 NA
ENDROOT
BRANCH   4  11
HETATM   11  N2  UNL     1      24.850   5.662  50.000  1.00  0.00    -0.347 N 
HETATM   12  H7  UNL     1      25.254   6.555  50.405  1.00  0.00     0.167 HD
BRANCH  11  13
HETATM   13  C7  UNL     1      24.035   5.728  48.844  1.00  0.00     0.034 A 
HETATM   14  C8  UNL     1      24.147   6.912  48.117  1.00  0.00     0.029 A 
HETATM   15  C9  UNL     1      23.393   7.073  46.974  1.00  0.00     0.004 A 
HETATM   16  C10 UNL     1      22.534   6.053  46.565  1.00  0.00     0.019 A 
HETATM   17  C11 UNL     1      22.463   4.901  47.324  1.00  0.00     0.013 A 
HETATM   18 BR1  UNL     1      21.270   3.511  46.733  1.00  0.00    -0.051 Br
HETATM   19  C12 UNL     1      23.200   4.702  48.471  1.00  0.00     0.048 A 
ENDBRANCH  11  13
ENDBRANCH   4  11
BRANCH   1  20
HETATM   20  N1  UNL     1      26.119   0.337  52.597  1.00  0.00    -0.265 N 
HETATM   21  H4  UNL     1      25.723  -0.478  52.055  1.00  0.00     0.180 HD
BRANCH  20  22
HETATM   22  S1  UNL     1      27.274   0.166  53.882  1.00  0.00     0.253 S 
HETATM   23  O1  UNL     1      26.585  -0.431  55.058  1.00  0.00    -0.201 OA
HETATM   24  O2  UNL     1      27.738   1.574  54.212  1.00  0.00    -0.201 OA
BRANCH  22  25
HETATM   25  C2  UNL     1      28.619  -0.815  53.349  1.00  0.00     0.121 C 
HETATM   26  C1  UNL     1      29.785  -0.262  53.661  1.00  0.00     0.025 C 
ENDBRANCH  22  25
ENDBRANCH  20  22
ENDBRANCH   1  20
TORSDOF 5
ENDMDL
MODEL 4
REMARK VINA RESULT:      -7.1      1.773      1.931
REMARK  5 active torsions:
REMARK  status: ('A' for Active; 'I' for Inactive)
REMARK    1  A    between atoms: C2_2  and  S1_3 
REMARK    2  A    between atoms: S1_3  and  N1_6 
REMARK    3  A    between atoms: N1_6  and  C3_7 
REMARK    4  A    between atoms: C6_10  and  N2_11 
REMARK    5  A    between atoms: N2_11  and  C7_12 
ROOT
HETATM    1  C3  UNL     1      24.971   1.604  52.262  1.00  0.00     0.138 C 
HETATM    2  C4  UNL     1      25.541   2.351  51.334  1.00  0.00     0.054 C 
HETATM    3  C5  UNL     1      25.100   3.670  50.920  1.00  0.00     0.045 C 
HETATM    4  C6  UNL     1      24.176   4.567  51.163  1.00  0.00     0.078 C 
HETATM    5  N3  UNL     1      23.184   4.290  52.160  1.00  0.00    -0.253 NA
HETATM    6  C13 UNL     1      22.564   3.134  52.149  1.00  0.00     0.338 C 
HETATM    7  N4  UNL     1      22.837   2.106  51.163  1.00  0.00    -0.243 NA
HETATM    8  C14 UNL     1      22.563   0.949  51.626  1.00  0.00     0.120 C 
HETATM    9  C15 UNL     1      22.956   0.745  52.845  1.00  0.00     0.121 C 
HETATM   10  N5  UNL     1      23.917   1.532  53.212  1.00  0.00    -0.226 NA
ENDROOT
BRANCH   4  11
HETATM   11  N2  UNL     1      23.761   5.852  50.747  1.00  0.00    -0.347 N 
HETATM   12  H7  UNL     1      22.837   6.243  51.091  1.00  0.00     0.167 HD
BRANCH  11  13
HETATM   13  C7  UNL     1      24.564   6.628  49.876  1.00  0.00     0.034 A 
HETATM   14  C8  UNL     1      24.262   6.487  48.522  1.00  0.00     0.029 A 
HETATM   15  C9  UNL     1      24.989   7.201  47.594  1.00  0.00     0.004 A 
HETATM   16  C10 UNL     1      26.009   8.050  48.021  1.00  0.00     0.019 A 
HETATM   17  C11 UNL     1      26.265   8.152  49.374  1.00  0.00     0.013 A 
HETATM   18 BR1  UNL     1      27.679   9.333  49.934  1.00  0.00    -0.051 Br
HETATM   19  C12 UNL     1      25.561   7.455  50.333  1.00  0.00     0.048 A 
ENDBRANCH  11  13
ENDBRANCH   4  11
BRANCH   1  20
HETATM   20  N1  UNL     1      25.605   0.346  52.477  1.00  0.00    -0.265 N 
HETATM   21  H4  UNL     1      25.380  -0.386  51.750  1.00  0.00     0.180 HD
BRANCH  20  22
HETATM   22  S1  UNL     1      26.655   0.065  53.830  1.00  0.00     0.253 S 
HETATM   23  O1  UNL     1      25.924  -0.757  54.832  1.00  0.00    -0.201 OA
HETATM   24  O2  UNL     1      26.963   1.435  54.408  1.00  0.00    -0.201 OA
BRANCH  22  25
HETATM   25  C2  UNL     1      28.123  -0.719  53.293  1.00  0.00     0.121 C 
HETATM   26  C1  UNL     1      29.206  -0.095  53.742  1.00  0.00     0.025 C 
ENDBRANCH  22  25
ENDBRANCH  20  22
ENDBRANCH   1  20
TORSDOF 5
ENDMDL
MODEL 5
REMARK VINA RESULT:      -7.1      6.473      8.691
REMARK  5 active torsions:
REMARK  status: ('A' for Active; 'I' for Inactive)
REMARK    1  A    between atoms: C2_2  and  S1_3 
REMARK    2  A    between atoms: S1_3  and  N1_6 
REMARK    3  A    between atoms: N1_6  and  C3_7 
REMARK    4  A    between atoms: C6_10  and  N2_11 
REMARK    5  A    between atoms: N2_11  and  C7_12 
ROOT
HETATM    1  C3  UNL     1      29.182   8.005  48.508  1.00  0.00     0.138 C 
HETATM    2  C4  UNL     1      29.156   6.804  47.960  1.00  0.00     0.054 C 
HETATM    3  C5  UNL     1      30.214   5.814  48.039  1.00  0.00     0.045 C 
HETATM    4  C6  UNL     1      31.410   5.628  48.542  1.00  0.00     0.078 C 
HETATM    5  N3  UNL     1      32.016   6.681  49.303  1.00  0.00    -0.253 NA
HETATM    6  C13 UNL     1      32.016   7.903  48.826  1.00  0.00     0.338 C 
HETATM    7  N4  UNL     1      31.425   8.248  47.547  1.00  0.00    -0.243 NA
HETATM    8  C14 UNL     1      31.060   9.470  47.530  1.00  0.00     0.120 C 
HETATM    9  C15 UNL     1      30.461   9.873  48.608  1.00  0.00     0.121 C 
HETATM   10  N5  UNL     1      29.943   8.907  49.297  1.00  0.00    -0.226 NA
ENDROOT
BRANCH   4  11
HETATM   11  N2  UNL     1      32.430   4.652  48.608  1.00  0.00    -0.347 N 
HETATM   12  H7  UNL     1      32.595   4.125  49.514  1.00  0.00     0.167 HD
BRANCH  11  13
HETATM   13  C7  UNL     1      33.237   4.367  47.481  1.00  0.00     0.034 A 
HETATM   14  C8  UNL     1      34.367   3.596  47.750  1.00  0.00     0.029 A 
HETATM   15  C9  UNL     1      35.217   3.265  46.717  1.00  0.00     0.004 A 
HETATM   16  C10 UNL     1      34.934   3.704  45.424  1.00  0.00     0.019 A 
HETATM   17  C11 UNL     1      33.802   4.465  45.214  1.00  0.00     0.013 A 
HETATM   18 BR1  UNL     1      33.439   5.056  43.418  1.00  0.00    -0.051 Br
HETATM   19  C12 UNL     1      32.928   4.817  46.220  1.00  0.00     0.048 A 
ENDBRANCH  11  13
ENDBRANCH   4  11
BRANCH   1  20
HETATM   20  N1  UNL     1      28.009   8.782  48.278  1.00  0.00    -0.265 N 
HETATM   21  H4  UNL     1      28.006   9.307  47.362  1.00  0.00     0.180 HD
BRANCH  20  22
HETATM   22  S1  UNL     1      26.707   8.844  49.425  1.00  0.00     0.253 S 
HETATM   23  O1  UNL     1      25.638   9.722  48.876  1.00  0.00    -0.201 OA
HETATM   24  O2  UNL     1      27.292   9.463  50.683  1.00  0.00    -0.201 OA
BRANCH  22  25
HETATM   25  C2  UNL     1      26.121   7.230  49.751  1.00  0.00     0.121 C 
HETATM   26  C1  UNL     1      25.541   6.693  48.684  1.00  0.00     0.025 C 
ENDBRANCH  22  25
ENDBRANCH  20  22
ENDBRANCH   1  20
TORSDOF 5
ENDMDL
MODEL 6
REMARK VINA RESULT:      -7.1      3.944      6.828
REMARK  5 active torsions:
REMARK  status: ('A' for Active; 'I' for Inactive)
REMARK    1  A    between atoms: C2_2  and  S1_3 
REMARK    2  A    between atoms: S1_3  and  N1_6 
REMARK    3  A    between atoms: N1_6  and  C3_7 
REMARK    4  A    between atoms: C6_10  and  N2_11 
REMARK    5  A    between atoms: N2_11  and  C7_12 
ROOT
HETATM    1  C3  UNL     1      25.521   2.464  52.083  1.00  0.00     0.138 C 
HETATM    2  C4  UNL     1      24.528   2.724  52.914  1.00  0.00     0.054 C 
HETATM    3  C5  UNL     1      23.124   2.801  52.557  1.00  0.00     0.045 C 
HETATM    4  C6  UNL     1      22.318   2.693  51.529  1.00  0.00     0.078 C 
HETATM    5  N3  UNL     1      22.872   2.397  50.240  1.00  0.00    -0.253 NA
HETATM    6  C13 UNL     1      23.907   3.079  49.811  1.00  0.00     0.338 C 
HETATM    7  N4  UNL     1      24.528   4.135  50.587  1.00  0.00    -0.243 NA
HETATM    8  C14 UNL     1      25.755   4.273  50.266  1.00  0.00     0.120 C 
HETATM    9  C15 UNL     1      26.406   3.161  50.116  1.00  0.00     0.121 C 
HETATM   10  N5  UNL     1      25.863   2.163  50.737  1.00  0.00    -0.226 NA
ENDROOT
BRANCH   4  11
HETATM   11  N2  UNL     1      20.946   2.772  51.200  1.00  0.00    -0.347 N 
HETATM   12  H7  UNL     1      20.561   3.658  50.760  1.00  0.00     0.167 HD
BRANCH  11  13
HETATM   13  C7  UNL     1      20.075   1.683  51.447  1.00  0.00     0.034 A 
HETATM   14  C8  UNL     1      20.363   0.954  52.600  1.00  0.00     0.029 A 
HETATM   15  C9  UNL     1      19.573  -0.126  52.927  1.00  0.00     0.004 A 
HETATM   16  C10 UNL     1      18.502  -0.471  52.103  1.00  0.00     0.019 A 
HETATM   17  C11 UNL     1      18.262   0.285  50.973  1.00  0.00     0.013 A 
HETATM   18 BR1  UNL     1      16.776  -0.216  49.857  1.00  0.00    -0.051 Br
HETATM   19  C12 UNL     1      19.029   1.372  50.612  1.00  0.00     0.048 A 
ENDBRANCH  11  13
ENDBRANCH   4  11
BRANCH   1  20
HETATM   20  N1  UNL     1      26.809   2.446  52.692  1.00  0.00    -0.265 N 
HETATM   21  H4  UNL     1      27.363   3.335  52.567  1.00  0.00     0.180 HD
BRANCH  20  22
HETATM   22  S1  UNL     1      27.396   1.063  53.562  1.00  0.00     0.253 S 
HETATM   23  O1  UNL     1      26.893  -0.165  52.890  1.00  0.00    -0.201 OA
HETATM   24  O2  UNL     1      26.804   1.170  54.957  1.00  0.00    -0.201 OA
BRANCH  22  25
HETATM   25  C2  UNL     1      29.142   1.097  53.632  1.00  0.00     0.121 C 
HETATM   26  C1  UNL     1      29.658  -0.126  53.660  1.00  0.00     0.025 C 
ENDBRANCH  22  25
ENDBRANCH  20  22
ENDBRANCH   1  20
TORSDOF 5
ENDMDL
MODEL 7
REMARK VINA RESULT:      -6.9      1.787      2.327
REMARK  5 active torsions:
REMARK  status: ('A' for Active; 'I' for Inactive)
REMARK    1  A    between atoms: C2_2  and  S1_3 
REMARK    2  A    between atoms: S1_3  and  N1_6 
REMARK    3  A    between atoms: N1_6  and  C3_7 
REMARK    4  A    between atoms: C6_10  and  N2_11 
REMARK    5  A    between atoms: N2_11  and  C7_12 
ROOT
HETATM    1  C3  UNL     1      25.601   2.322  52.933  1.00  0.00     0.138 C 
HETATM    2  C4  UNL     1      26.582   2.214  52.056  1.00  0.00     0.054 C 
HETATM    3  C5  UNL     1      26.684   2.944  50.806  1.00  0.00     0.045 C 
HETATM    4  C6  UNL     1      26.052   3.835  50.083  1.00  0.00     0.078 C 
HETATM    5  N3  UNL     1      24.811   4.367  50.564  1.00  0.00    -0.253 NA
HETATM    6  C13 UNL     1      23.887   3.548  51.008  1.00  0.00     0.338 C 
HETATM    7  N4  UNL     1      24.061   2.108  51.036  1.00  0.00    -0.243 NA
HETATM    8  C14 UNL     1      23.341   1.581  51.947  1.00  0.00     0.120 C 
HETATM    9  C15 UNL     1      23.341   2.218  53.076  1.00  0.00     0.121 C 
HETATM   10  N5  UNL     1      24.377   2.978  53.235  1.00  0.00    -0.226 NA
ENDROOT
BRANCH   4  11
HETATM   11  N2  UNL     1      26.168   4.537  48.862  1.00  0.00    -0.347 N 
HETATM   12  H7  UNL     1      25.461   4.367  48.088  1.00  0.00     0.167 HD
BRANCH  11  13
HETATM   13  C7  UNL     1      27.216   5.467  48.655  1.00  0.00     0.034 A 
HETATM   14  C8  UNL     1      26.832   6.805  48.728  1.00  0.00     0.029 A 
HETATM   15  C9  UNL     1      27.780   7.787  48.541  1.00  0.00     0.004 A 
HETATM   16  C10 UNL     1      29.103   7.428  48.282  1.00  0.00     0.019 A 
HETATM   17  C11 UNL     1      29.427   6.088  48.221  1.00  0.00     0.013 A 
HETATM   18 BR1  UNL     1      31.262   5.624  47.864  1.00  0.00    -0.051 Br
HETATM   19  C12 UNL     1      28.508   5.077  48.403  1.00  0.00     0.048 A 
ENDBRANCH  11  13
ENDBRANCH   4  11
BRANCH   1  20
HETATM   20  N1  UNL     1      25.743   1.491  54.082  1.00  0.00    -0.265 N 
HETATM   21  H4  UNL     1      25.712   2.008  55.001  1.00  0.00     0.180 HD
BRANCH  20  22
HETATM   22  S1  UNL     1      25.947  -0.229  53.953  1.00  0.00     0.253 S 
HETATM   23  O1  UNL     1      27.367  -0.558  54.255  1.00  0.00    -0.201 OA
HETATM   24  O2  UNL     1      25.629  -0.578  52.510  1.00  0.00    -0.201 OA
BRANCH  22  25
HETATM   25  C2  UNL     1      24.846  -1.044  55.039  1.00  0.00     0.121 C 
HETATM   26  C1  UNL     1      23.596  -1.002  54.594  1.00  0.00     0.025 C 
ENDBRANCH  22  25
ENDBRANCH  20  22
ENDBRANCH   1  20
TORSDOF 5
ENDMDL
MODEL 8
REMARK VINA RESULT:      -6.9      6.153      9.700
REMARK  5 active torsions:
REMARK  status: ('A' for Active; 'I' for Inactive)
REMARK    1  A    between atoms: C2_2  and  S1_3 
REMARK    2  A    between atoms: S1_3  and  N1_6 
REMARK    3  A    between atoms: N1_6  and  C3_7 
REMARK    4  A    between atoms: C6_10  and  N2_11 
REMARK    5  A    between atoms: N2_11  and  C7_12 
ROOT
HETATM    1  C3  UNL     1      22.894   1.245  51.927  1.00  0.00     0.138 C 
HETATM    2  C4  UNL     1      21.858   0.606  51.417  1.00  0.00     0.054 C 
HETATM    3  C5  UNL     1      20.861  -0.128  52.173  1.00  0.00     0.045 C 
HETATM    4  C6  UNL     1      20.542  -0.461  53.400  1.00  0.00     0.078 C 
HETATM    5  N3  UNL     1      21.375  -0.017  54.479  1.00  0.00    -0.253 NA
HETATM    6  C13 UNL     1      22.675  -0.171  54.395  1.00  0.00     0.338 C 
HETATM    7  N4  UNL     1      23.322  -0.777  53.246  1.00  0.00    -0.243 NA
HETATM    8  C14 UNL     1      24.519  -0.354  53.124  1.00  0.00     0.120 C 
HETATM    9  C15 UNL     1      24.666   0.922  53.304  1.00  0.00     0.121 C 
HETATM   10  N5  UNL     1      23.572   1.593  53.125  1.00  0.00    -0.226 NA
ENDROOT
BRANCH   4  11
HETATM   11  N2  UNL     1      19.562  -1.180  54.120  1.00  0.00    -0.347 N 
HETATM   12  H7  UNL     1      19.737  -1.435  55.136  1.00  0.00     0.167 HD
BRANCH  11  13
HETATM   13  C7  UNL     1      18.346  -1.566  53.506  1.00  0.00     0.034 A 
HETATM   14  C8  UNL     1      17.772  -0.597  52.684  1.00  0.00     0.029 A 
HETATM   15  C9  UNL     1      16.586  -0.877  52.041  1.00  0.00     0.004 A 
HETATM   16  C10 UNL     1      15.981  -2.121  52.221  1.00  0.00     0.019 A 
HETATM   17  C11 UNL     1      16.593  -3.043  53.046  1.00  0.00     0.013 A 
HETATM   18 BR1  UNL     1      15.734  -4.751  53.273  1.00  0.00    -0.051 Br
HETATM   19  C12 UNL     1      17.778  -2.801  53.706  1.00  0.00     0.048 A 
ENDBRANCH  11  13
ENDBRANCH   4  11
BRANCH   1  20
HETATM   20  N1  UNL     1      23.723   1.888  50.961  1.00  0.00    -0.265 N 
HETATM   21  H4  UNL     1      24.482   1.274  50.560  1.00  0.00     0.180 HD
BRANCH  20  22
HETATM   22  S1  UNL     1      23.482   3.544  50.499  1.00  0.00     0.253 S 
HETATM   23  O1  UNL     1      24.674   4.329  50.919  1.00  0.00    -0.201 OA
HETATM   24  O2  UNL     1      22.256   4.013  51.263  1.00  0.00    -0.201 OA
BRANCH  22  25
HETATM   25  C2  UNL     1      23.208   3.649  48.775  1.00  0.00     0.121 C 
HETATM   26  C1  UNL     1      22.608   2.562  48.305  1.00  0.00     0.025 C 
ENDBRANCH  22  25
ENDBRANCH  20  22
ENDBRANCH   1  20
TORSDOF 5
ENDMDL
MODEL 9
REMARK VINA RESULT:      -6.8      5.110      6.805
REMARK  5 active torsions:
REMARK  status: ('A' for Active; 'I' for Inactive)
REMARK    1  A    between atoms: C2_2  and  S1_3 
REMARK    2  A    between atoms: S1_3  and  N1_6 
REMARK    3  A    between atoms: N1_6  and  C3_7 
REMARK    4  A    between atoms: C6_10  and  N2_11 
REMARK    5  A    between atoms: N2_11  and  C7_12 
ROOT
HETATM    1  C3  UNL     1      22.388   3.624  49.985  1.00  0.00     0.138 C 
HETATM    2  C4  UNL     1      23.482   3.465  49.264  1.00  0.00     0.054 C 
HETATM    3  C5  UNL     1      24.828   3.322  49.788  1.00  0.00     0.045 C 
HETATM    4  C6  UNL     1      25.491   3.286  50.918  1.00  0.00     0.078 C 
HETATM    5  N3  UNL     1      24.772   3.423  52.151  1.00  0.00    -0.253 NA
HETATM    6  C13 UNL     1      23.897   4.391  52.283  1.00  0.00     0.338 C 
HETATM    7  N4  UNL     1      23.616   5.345  51.226  1.00  0.00    -0.243 NA
HETATM    8  C14 UNL     1      22.435   5.813  51.340  1.00  0.00     0.120 C 
HETATM    9  C15 UNL     1      21.526   4.932  51.624  1.00  0.00     0.121 C 
HETATM   10  N5  UNL     1      21.867   3.724  51.303  1.00  0.00    -0.226 NA
ENDROOT
BRANCH   4  11
HETATM   11  N2  UNL     1      26.808   3.145  51.411  1.00  0.00    -0.347 N 
HETATM   12  H7  UNL     1      27.530   3.895  51.203  1.00  0.00     0.167 HD
BRANCH  11  13
HETATM   13  C7  UNL     1      27.179   2.016  52.181  1.00  0.00     0.034 A 
HETATM   14  C8  UNL     1      27.968   2.301  53.294  1.00  0.00     0.029 A 
HETATM   15  C9  UNL     1      28.381   1.268  54.107  1.00  0.00     0.004 A 
HETATM   16  C10 UNL     1      28.004  -0.040  53.805  1.00  0.00     0.019 A 
HETATM   17  C11 UNL     1      27.222  -0.265  52.690  1.00  0.00     0.013 A 
HETATM   18 BR1  UNL     1      26.718  -2.082  52.300  1.00  0.00    -0.051 Br
HETATM   19  C12 UNL     1      26.789   0.740  51.853  1.00  0.00     0.048 A 
ENDBRANCH  11  13
ENDBRANCH   4  11
BRANCH   1  20
HETATM   20  N1  UNL     1      21.190   3.740  49.220  1.00  0.00    -0.265 N 
HETATM   21  H4  UNL     1      21.036   4.693  48.794  1.00  0.00     0.180 HD
BRANCH  20  22
HETATM   22  S1  UNL     1      20.094   2.409  49.021  1.00  0.00     0.253 S 
HETATM   23  O1  UNL     1      19.554   2.447  47.635  1.00  0.00    -0.201 OA
HETATM   24  O2  UNL     1      18.974   2.640  50.021  1.00  0.00    -0.201 OA
BRANCH  22  25
HETATM   25  C2  UNL     1      20.915   0.902  49.356  1.00  0.00     0.121 C 
HETATM   26  C1  UNL     1      20.602   0.428  50.556  1.00  0.00     0.025 C 
ENDBRANCH  22  25
ENDBRANCH  20  22
ENDBRANCH   1  20
TORSDOF 5
ENDMDL
