MODEL 1
REMARK VINA RESULT:      -7.7      0.000      0.000
REMARK  5 active torsions:
REMARK  status: ('A' for Active; 'I' for Inactive)
REMARK    1  A    between atoms: C2_2  and  N1_4 
REMARK    2  A    between atoms: N1_4  and  N2_5 
REMARK    3  A    between atoms: C3_6  and  C4_7 
REMARK    4  A    between atoms: C3_6  and  C12_15 
REMARK    5  A    between atoms: C4_7  and  C5_8 
ROOT
HETATM    1  N2  UNL     1      24.639   2.102  53.013  1.00  0.00    -0.177 NA
HETATM    2  C3  UNL     1      23.827   1.107  53.025  1.00  0.00     0.069 C 
ENDROOT
BRANCH   2   3
HETATM    3  C4  UNL     1      24.362  -0.015  53.827  1.00  0.00     0.100 C 
BRANCH   3   4
HETATM    4  C5  UNL     1      25.793  -0.207  53.830  1.00  0.00    -0.052 A 
HETATM    5  C6  UNL     1      26.371  -0.956  52.830  1.00  0.00     0.008 A 
HETATM    6  C7  UNL     1      27.730  -1.175  52.775  1.00  0.00     0.007 A 
HETATM    7  C8  UNL     1      28.586  -0.647  53.735  1.00  0.00    -0.062 A 
HETATM    8  C9  UNL     1      30.054  -0.873  53.693  1.00  0.00     0.048 C 
HETATM    9  C10 UNL     1      28.021   0.107  54.743  1.00  0.00     0.007 A 
HETATM   10  C11 UNL     1      26.648   0.317  54.782  1.00  0.00     0.008 A 
ENDBRANCH   3   4
ENDBRANCH   2   3
BRANCH   2  11
HETATM   11  C12 UNL     1      22.500   0.869  52.414  1.00  0.00    -0.009 A 
HETATM   12  C13 UNL     1      22.272   0.983  51.055  1.00  0.00     0.013 A 
HETATM   13  C14 UNL     1      20.994   0.736  50.611  1.00  0.00     0.001 A 
HETATM   14  C15 UNL     1      19.923   0.385  51.399  1.00  0.00     0.000 A 
HETATM   15  C16 UNL     1      20.172   0.276  52.756  1.00  0.00     0.001 A 
HETATM   16  C17 UNL     1      21.447   0.519  53.234  1.00  0.00     0.013 A 
ENDBRANCH   2  11
BRANCH   1  17
HETATM   17  N1  UNL     1      24.488   3.312  52.379  1.00  0.00    -0.272 N 
HETATM   18  H4  UNL     1      24.004   4.245  52.499  1.00  0.00     0.190 HD
BRANCH  17  19
HETATM   19  C2  UNL     1      25.235   3.281  51.164  1.00  0.00     0.090 C 
HETATM   20  C1  UNL     1      26.524   2.637  50.883  1.00  0.00     0.083 C 
HETATM   21  S1  UNL     1      24.822   3.985  49.731  1.00  0.00    -0.064 SA
ENDBRANCH  17  19
ENDBRANCH   1  17
TORSDOF 5
ENDMDL
MODEL 2
REMARK VINA RESULT:      -7.5      2.914      5.774
REMARK  5 active torsions:
REMARK  status: ('A' for Active; 'I' for Inactive)
REMARK    1  A    between atoms: C2_2  and  N1_4 
REMARK    2  A    between atoms: N1_4  and  N2_5 
REMARK    3  A    between atoms: C3_6  and  C4_7 
REMARK    4  A    between atoms: C3_6  and  C12_15 
REMARK    5  A    between atoms: C4_7  and  C5_8 
ROOT
HETATM    1  N2  UNL     1      27.505   2.533  52.290  1.00  0.00    -0.177 NA
HETATM    2  C3  UNL     1      26.397   2.265  51.700  1.00  0.00     0.069 C 
ENDROOT
BRANCH   2   3
HETATM    3  C4  UNL     1      26.524   2.390  50.231  1.00  0.00     0.100 C 
BRANCH   3   4
HETATM    4  C5  UNL     1      26.384   3.710  49.663  1.00  0.00    -0.052 A 
HETATM    5  C6  UNL     1      27.477   4.305  49.073  1.00  0.00     0.008 A 
HETATM    6  C7  UNL     1      27.410   5.562  48.512  1.00  0.00     0.007 A 
HETATM    7  C8  UNL     1      26.226   6.293  48.517  1.00  0.00    -0.062 A 
HETATM    8  C9  UNL     1      26.133   7.649  47.918  1.00  0.00     0.048 C 
HETATM    9  C10 UNL     1      25.123   5.708  49.104  1.00  0.00     0.007 A 
HETATM   10  C11 UNL     1      25.210   4.439  49.665  1.00  0.00     0.008 A 
ENDBRANCH   3   4
ENDBRANCH   2   3
BRANCH   2  11
HETATM   11  C12 UNL     1      25.055   1.868  52.185  1.00  0.00    -0.009 A 
HETATM   12  C13 UNL     1      24.019   2.769  52.339  1.00  0.00     0.013 A 
HETATM   13  C14 UNL     1      22.821   2.275  52.798  1.00  0.00     0.001 A 
HETATM   14  C15 UNL     1      22.562   0.963  53.115  1.00  0.00     0.000 A 
HETATM   15  C16 UNL     1      23.611   0.075  52.953  1.00  0.00     0.001 A 
HETATM   16  C17 UNL     1      24.830   0.542  52.495  1.00  0.00     0.013 A 
ENDBRANCH   2  11
BRANCH   1  17
HETATM   17  N1  UNL     1      27.772   2.523  53.639  1.00  0.00    -0.272 N 
HETATM   18  H4  UNL     1      27.805   3.175  54.472  1.00  0.00     0.190 HD
BRANCH  17  19
HETATM   19  C2  UNL     1      28.114   1.192  54.022  1.00  0.00     0.090 C 
HETATM   20  C1  UNL     1      27.361   0.243  54.851  1.00  0.00     0.083 C 
HETATM   21  S1  UNL     1      29.482   0.367  53.614  1.00  0.00    -0.064 SA
ENDBRANCH  17  19
ENDBRANCH   1  17
TORSDOF 5
ENDMDL
MODEL 3
REMARK VINA RESULT:      -7.5      1.737      5.821
REMARK  5 active torsions:
REMARK  status: ('A' for Active; 'I' for Inactive)
REMARK    1  A    between atoms: C2_2  and  N1_4 
REMARK    2  A    between atoms: N1_4  and  N2_5 
REMARK    3  A    between atoms: C3_6  and  C4_7 
REMARK    4  A    between atoms: C3_6  and  C12_15 
REMARK    5  A    between atoms: C4_7  and  C5_8 
ROOT
HETATM    1  N2  UNL     1      25.846   2.823  51.104  1.00  0.00    -0.177 NA
HETATM    2  C3  UNL     1      26.028   2.175  52.197  1.00  0.00     0.069 C 
ENDROOT
BRANCH   2   3
HETATM    3  C4  UNL     1      24.922   2.410  53.153  1.00  0.00     0.100 C 
BRANCH   3   4
HETATM    4  C5  UNL     1      23.648   1.801  52.855  1.00  0.00    -0.052 A 
HETATM    5  C6  UNL     1      22.608   2.596  52.427  1.00  0.00     0.008 A 
HETATM    6  C7  UNL     1      21.367   2.077  52.127  1.00  0.00     0.007 A 
HETATM    7  C8  UNL     1      21.107   0.716  52.244  1.00  0.00    -0.062 A 
HETATM    8  C9  UNL     1      19.776   0.137  51.925  1.00  0.00     0.048 C 
HETATM    9  C10 UNL     1      22.139  -0.094  52.671  1.00  0.00     0.007 A 
HETATM   10  C11 UNL     1      23.384   0.448  52.969  1.00  0.00     0.008 A 
ENDBRANCH   3   4
ENDBRANCH   2   3
BRANCH   2  11
HETATM   11  C12 UNL     1      27.093   1.266  52.677  1.00  0.00    -0.009 A 
HETATM   12  C13 UNL     1      28.255   1.723  53.269  1.00  0.00     0.013 A 
HETATM   13  C14 UNL     1      29.168   0.777  53.673  1.00  0.00     0.001 A 
HETATM   14  C15 UNL     1      29.026  -0.584  53.540  1.00  0.00     0.000 A 
HETATM   15  C16 UNL     1      27.856  -1.023  52.945  1.00  0.00     0.001 A 
HETATM   16  C17 UNL     1      26.919  -0.095  52.528  1.00  0.00     0.013 A 
ENDBRANCH   2  11
BRANCH   1  17
HETATM   17  N1  UNL     1      26.654   2.853  49.992  1.00  0.00    -0.272 N 
HETATM   18  H4  UNL     1      27.296   2.229  49.429  1.00  0.00     0.190 HD
BRANCH  17  19
HETATM   19  C2  UNL     1      26.595   4.162  49.427  1.00  0.00     0.090 C 
HETATM   20  C1  UNL     1      27.605   4.878  48.639  1.00  0.00     0.083 C 
HETATM   21  S1  UNL     1      25.338   5.225  49.525  1.00  0.00    -0.064 SA
ENDBRANCH  17  19
ENDBRANCH   1  17
TORSDOF 5
ENDMDL
MODEL 4
REMARK VINA RESULT:      -7.5      1.671      2.326
REMARK  5 active torsions:
REMARK  status: ('A' for Active; 'I' for Inactive)
REMARK    1  A    between atoms: C2_2  and  N1_4 
REMARK    2  A    between atoms: N1_4  and  N2_5 
REMARK    3  A    between atoms: C3_6  and  C4_7 
REMARK    4  A    between atoms: C3_6  and  C12_15 
REMARK    5  A    between atoms: C4_7  and  C5_8 
ROOT
HETATM    1  N2  UNL     1      24.707   2.990  52.595  1.00  0.00    -0.177 NA
HETATM    2  C3  UNL     1      24.398   1.747  52.516  1.00  0.00     0.069 C 
ENDROOT
BRANCH   2   3
HETATM    3  C4  UNL     1      25.338   1.012  51.640  1.00  0.00     0.100 C 
BRANCH   3   4
HETATM    4  C5  UNL     1      26.547   0.504  52.243  1.00  0.00    -0.052 A 
HETATM    5  C6  UNL     1      26.734  -0.858  52.326  1.00  0.00     0.008 A 
HETATM    6  C7  UNL     1      27.866  -1.406  52.889  1.00  0.00     0.007 A 
HETATM    7  C8  UNL     1      28.878  -0.603  53.403  1.00  0.00    -0.062 A 
HETATM    8  C9  UNL     1      30.106  -1.175  54.014  1.00  0.00     0.048 C 
HETATM    9  C10 UNL     1      28.705   0.763  53.326  1.00  0.00     0.007 A 
HETATM   10  C11 UNL     1      27.557   1.298  52.754  1.00  0.00     0.008 A 
ENDBRANCH   3   4
ENDBRANCH   2   3
BRANCH   2  11
HETATM   11  C12 UNL     1      23.318   0.926  53.111  1.00  0.00    -0.009 A 
HETATM   12  C13 UNL     1      21.978   1.174  52.880  1.00  0.00     0.013 A 
HETATM   13  C14 UNL     1      21.072   0.340  53.491  1.00  0.00     0.001 A 
HETATM   14  C15 UNL     1      21.381  -0.720  54.310  1.00  0.00     0.000 A 
HETATM   15  C16 UNL     1      22.728  -0.952  54.529  1.00  0.00     0.001 A 
HETATM   16  C17 UNL     1      23.664  -0.129  53.929  1.00  0.00     0.013 A 
ENDBRANCH   2  11
BRANCH   1  17
HETATM   17  N1  UNL     1      24.072   3.978  53.308  1.00  0.00    -0.272 N 
HETATM   18  H4  UNL     1      23.975   4.341  54.298  1.00  0.00     0.190 HD
BRANCH  17  19
HETATM   19  C2  UNL     1      23.295   4.760  52.403  1.00  0.00     0.090 C 
HETATM   20  C1  UNL     1      21.845   4.746  52.175  1.00  0.00     0.083 C 
HETATM   21  S1  UNL     1      23.852   5.907  51.357  1.00  0.00    -0.064 SA
ENDBRANCH  17  19
ENDBRANCH   1  17
TORSDOF 5
ENDMDL
MODEL 5
REMARK VINA RESULT:      -7.4      2.462      4.970
REMARK  5 active torsions:
REMARK  status: ('A' for Active; 'I' for Inactive)
REMARK    1  A    between atoms: C2_2  and  N1_4 
REMARK    2  A    between atoms: N1_4  and  N2_5 
REMARK    3  A    between atoms: C3_6  and  C4_7 
REMARK    4  A    between atoms: C3_6  and  C12_15 
REMARK    5  A    between atoms: C4_7  and  C5_8 
ROOT
HETATM    1  N2  UNL     1      25.614   2.523  52.632  1.00  0.00    -0.177 NA
HETATM    2  C3  UNL     1      24.574   1.914  52.191  1.00  0.00     0.069 C 
ENDROOT
BRANCH   2   3
HETATM    3  C4  UNL     1      24.391   2.142  50.740  1.00  0.00     0.100 C 
BRANCH   3   4
HETATM    4  C5  UNL     1      25.071   3.273  50.155  1.00  0.00    -0.052 A 
HETATM    5  C6  UNL     1      26.350   3.109  49.672  1.00  0.00     0.008 A 
HETATM    6  C7  UNL     1      27.053   4.148  49.101  1.00  0.00     0.007 A 
HETATM    7  C8  UNL     1      26.500   5.418  48.988  1.00  0.00    -0.062 A 
HETATM    8  C9  UNL     1      27.242   6.550  48.376  1.00  0.00     0.048 C 
HETATM    9  C10 UNL     1      25.218   5.597  49.467  1.00  0.00     0.007 A 
HETATM   10  C11 UNL     1      24.524   4.537  50.039  1.00  0.00     0.008 A 
ENDBRANCH   3   4
ENDBRANCH   2   3
BRANCH   2  11
HETATM   11  C12 UNL     1      23.552   1.053  52.827  1.00  0.00    -0.009 A 
HETATM   12  C13 UNL     1      23.860  -0.150  53.435  1.00  0.00     0.013 A 
HETATM   13  C14 UNL     1      22.820  -0.857  53.991  1.00  0.00     0.001 A 
HETATM   14  C15 UNL     1      21.500  -0.474  53.996  1.00  0.00     0.000 A 
HETATM   15  C16 UNL     1      21.211   0.733  53.383  1.00  0.00     0.001 A 
HETATM   16  C17 UNL     1      22.236   1.468  52.814  1.00  0.00     0.013 A 
ENDBRANCH   2  11
BRANCH   1  17
HETATM   17  N1  UNL     1      26.102   2.546  53.917  1.00  0.00    -0.272 N 
HETATM   18  H4  UNL     1      25.848   2.893  54.883  1.00  0.00     0.190 HD
BRANCH  17  19
HETATM   19  C2  UNL     1      27.365   1.881  53.932  1.00  0.00     0.090 C 
HETATM   20  C1  UNL     1      28.691   2.400  53.579  1.00  0.00     0.083 C 
HETATM   21  S1  UNL     1      27.651   0.315  54.364  1.00  0.00    -0.064 SA
ENDBRANCH  17  19
ENDBRANCH   1  17
TORSDOF 5
ENDMDL
MODEL 6
REMARK VINA RESULT:      -7.4      0.969      5.846
REMARK  5 active torsions:
REMARK  status: ('A' for Active; 'I' for Inactive)
REMARK    1  A    between atoms: C2_2  and  N1_4 
REMARK    2  A    between atoms: N1_4  and  N2_5 
REMARK    3  A    between atoms: C3_6  and  C4_7 
REMARK    4  A    between atoms: C3_6  and  C12_15 
REMARK    5  A    between atoms: C4_7  and  C5_8 
ROOT
HETATM    1  N2  UNL     1      24.576   1.613  53.418  1.00  0.00    -0.177 NA
HETATM    2  C3  UNL     1      25.103   0.472  53.680  1.00  0.00     0.069 C 
ENDROOT
BRANCH   2   3
HETATM    3  C4  UNL     1      24.075  -0.524  54.055  1.00  0.00     0.100 C 
BRANCH   3   4
HETATM    4  C5  UNL     1      22.732  -0.304  53.573  1.00  0.00    -0.052 A 
HETATM    5  C6  UNL     1      22.523  -0.143  52.221  1.00  0.00     0.008 A 
HETATM    6  C7  UNL     1      21.266   0.069  51.697  1.00  0.00     0.007 A 
HETATM    7  C8  UNL     1      20.144   0.131  52.515  1.00  0.00    -0.062 A 
HETATM    8  C9  UNL     1      18.781   0.358  51.968  1.00  0.00     0.048 C 
HETATM    9  C10 UNL     1      20.337  -0.030  53.871  1.00  0.00     0.007 A 
HETATM   10  C11 UNL     1      21.612  -0.243  54.382  1.00  0.00     0.008 A 
ENDBRANCH   3   4
ENDBRANCH   2   3
BRANCH   2  11
HETATM   11  C12 UNL     1      26.496  -0.030  53.682  1.00  0.00    -0.009 A 
HETATM   12  C13 UNL     1      26.942  -0.998  52.802  1.00  0.00     0.013 A 
HETATM   13  C14 UNL     1      28.259  -1.380  52.905  1.00  0.00     0.001 A 
HETATM   14  C15 UNL     1      29.172  -0.883  53.805  1.00  0.00     0.000 A 
HETATM   15  C16 UNL     1      28.706   0.085  54.677  1.00  0.00     0.001 A 
HETATM   16  C17 UNL     1      27.386   0.490  54.599  1.00  0.00     0.013 A 
ENDBRANCH   2  11
BRANCH   1  17
HETATM   17  N1  UNL     1      25.209   2.772  53.037  1.00  0.00    -0.272 N 
HETATM   18  H4  UNL     1      25.616   3.657  53.450  1.00  0.00     0.190 HD
BRANCH  17  19
HETATM   19  C2  UNL     1      25.356   2.760  51.618  1.00  0.00     0.090 C 
HETATM   20  C1  UNL     1      26.556   2.506  50.812  1.00  0.00     0.083 C 
HETATM   21  S1  UNL     1      24.177   3.040  50.500  1.00  0.00    -0.064 SA
ENDBRANCH  17  19
ENDBRANCH   1  17
TORSDOF 5
ENDMDL
MODEL 7
REMARK VINA RESULT:      -7.3      1.823      2.650
REMARK  5 active torsions:
REMARK  status: ('A' for Active; 'I' for Inactive)
REMARK    1  A    between atoms: C2_2  and  N1_4 
REMARK    2  A    between atoms: N1_4  and  N2_5 
REMARK    3  A    between atoms: C3_6  and  C4_7 
REMARK    4  A    between atoms: C3_6  and  C12_15 
REMARK    5  A    between atoms: C4_7  and  C5_8 
ROOT
HETATM    1  N2  UNL     1      24.198   3.876  52.057  1.00  0.00    -0.177 NA
HETATM    2  C3  UNL     1      24.162   2.616  51.815  1.00  0.00     0.069 C 
ENDROOT
BRANCH   2   3
HETATM    3  C4  UNL     1      25.374   2.171  51.091  1.00  0.00     0.100 C 
BRANCH   3   4
HETATM    4  C5  UNL     1      26.370   1.448  51.846  1.00  0.00    -0.052 A 
HETATM    5  C6  UNL     1      27.357   2.152  52.499  1.00  0.00     0.008 A 
HETATM    6  C7  UNL     1      28.337   1.522  53.237  1.00  0.00     0.007 A 
HETATM    7  C8  UNL     1      28.373   0.137  53.354  1.00  0.00    -0.062 A 
HETATM    8  C9  UNL     1      29.421  -0.560  54.144  1.00  0.00     0.048 C 
HETATM    9  C10 UNL     1      27.390  -0.581  52.706  1.00  0.00     0.007 A 
HETATM   10  C11 UNL     1      26.410   0.072  51.967  1.00  0.00     0.008 A 
ENDBRANCH   3   4
ENDBRANCH   2   3
BRANCH   2  11
HETATM   11  C12 UNL     1      23.177   1.550  52.109  1.00  0.00    -0.009 A 
HETATM   12  C13 UNL     1      22.236   1.127  51.190  1.00  0.00     0.013 A 
HETATM   13  C14 UNL     1      21.377   0.129  51.584  1.00  0.00     0.001 A 
HETATM   14  C15 UNL     1      21.372  -0.487  52.813  1.00  0.00     0.000 A 
HETATM   15  C16 UNL     1      22.322  -0.051  53.721  1.00  0.00     0.001 A 
HETATM   16  C17 UNL     1      23.200   0.953  53.353  1.00  0.00     0.013 A 
ENDBRANCH   2  11
BRANCH   1  17
HETATM   17  N1  UNL     1      23.258   4.642  52.705  1.00  0.00    -0.272 N 
HETATM   18  H4  UNL     1      22.998   4.970  53.677  1.00  0.00     0.190 HD
BRANCH  17  19
HETATM   19  C2  UNL     1      22.344   5.152  51.735  1.00  0.00     0.090 C 
HETATM   20  C1  UNL     1      21.018   4.651  51.357  1.00  0.00     0.083 C 
HETATM   21  S1  UNL     1      22.562   6.471  50.770  1.00  0.00    -0.064 SA
ENDBRANCH  17  19
ENDBRANCH   1  17
TORSDOF 5
ENDMDL
MODEL 8
REMARK VINA RESULT:      -7.2      2.020      4.346
REMARK  5 active torsions:
REMARK  status: ('A' for Active; 'I' for Inactive)
REMARK    1  A    between atoms: C2_2  and  N1_4 
REMARK    2  A    between atoms: N1_4  and  N2_5 
REMARK    3  A    between atoms: C3_6  and  C4_7 
REMARK    4  A    between atoms: C3_6  and  C12_15 
REMARK    5  A    between atoms: C4_7  and  C5_8 
ROOT
HETATM    1  N2  UNL     1      23.539   1.643  51.511  1.00  0.00    -0.177 NA
HETATM    2  C3  UNL     1      24.560   2.411  51.640  1.00  0.00     0.069 C 
ENDROOT
BRANCH   2   3
HETATM    3  C4  UNL     1      25.139   2.315  52.998  1.00  0.00     0.100 C 
BRANCH   3   4
HETATM    4  C5  UNL     1      26.367   1.571  53.144  1.00  0.00    -0.052 A 
HETATM    5  C6  UNL     1      26.371   0.221  52.869  1.00  0.00     0.008 A 
HETATM    6  C7  UNL     1      27.510  -0.546  52.988  1.00  0.00     0.007 A 
HETATM    7  C8  UNL     1      28.716   0.013  53.396  1.00  0.00    -0.062 A 
HETATM    8  C9  UNL     1      29.954  -0.797  53.531  1.00  0.00     0.048 C 
HETATM    9  C10 UNL     1      28.728   1.364  53.675  1.00  0.00     0.007 A 
HETATM   10  C11 UNL     1      27.570   2.121  53.548  1.00  0.00     0.008 A 
ENDBRANCH   3   4
ENDBRANCH   2   3
BRANCH   2  11
HETATM   11  C12 UNL     1      25.252   3.346  50.724  1.00  0.00    -0.009 A 
HETATM   12  C13 UNL     1      26.412   3.012  50.051  1.00  0.00     0.013 A 
HETATM   13  C14 UNL     1      26.959   3.969  49.229  1.00  0.00     0.001 A 
HETATM   14  C15 UNL     1      26.452   5.229  49.016  1.00  0.00     0.000 A 
HETATM   15  C16 UNL     1      25.290   5.545  49.698  1.00  0.00     0.001 A 
HETATM   16  C17 UNL     1      24.716   4.603  50.533  1.00  0.00     0.013 A 
ENDBRANCH   2  11
BRANCH   1  17
HETATM   17  N1  UNL     1      22.746   1.464  50.403  1.00  0.00    -0.272 N 
HETATM   18  H4  UNL     1      22.820   1.271  49.365  1.00  0.00     0.190 HD
BRANCH  17  19
HETATM   19  C2  UNL     1      21.381   1.581  50.801  1.00  0.00     0.090 C 
HETATM   20  C1  UNL     1      20.390   0.524  51.039  1.00  0.00     0.083 C 
HETATM   21  S1  UNL     1      20.554   2.976  51.099  1.00  0.00    -0.064 SA
ENDBRANCH  17  19
ENDBRANCH   1  17
TORSDOF 5
ENDMDL
MODEL 9
REMARK VINA RESULT:      -7.1      2.210      3.083
REMARK  5 active torsions:
REMARK  status: ('A' for Active; 'I' for Inactive)
REMARK    1  A    between atoms: C2_2  and  N1_4 
REMARK    2  A    between atoms: N1_4  and  N2_5 
REMARK    3  A    between atoms: C3_6  and  C4_7 
REMARK    4  A    between atoms: C3_6  and  C12_15 
REMARK    5  A    between atoms: C4_7  and  C5_8 
ROOT
HETATM    1  N2  UNL     1      24.621   4.686  50.885  1.00  0.00    -0.177 NA
HETATM    2  C3  UNL     1      23.977   3.585  51.033  1.00  0.00     0.069 C 
ENDROOT
BRANCH   2   3
HETATM    3  C4  UNL     1      24.215   2.998  52.371  1.00  0.00     0.100 C 
BRANCH   3   4
HETATM    4  C5  UNL     1      24.931   1.745  52.427  1.00  0.00    -0.052 A 
HETATM    5  C6  UNL     1      24.383   0.691  53.124  1.00  0.00     0.008 A 
HETATM    6  C7  UNL     1      25.015  -0.530  53.216  1.00  0.00     0.007 A 
HETATM    7  C8  UNL     1      26.244  -0.755  52.606  1.00  0.00    -0.062 A 
HETATM    8  C9  UNL     1      26.941  -2.064  52.694  1.00  0.00     0.048 C 
HETATM    9  C10 UNL     1      26.805   0.293  51.904  1.00  0.00     0.007 A 
HETATM   10  C11 UNL     1      26.152   1.517  51.822  1.00  0.00     0.008 A 
ENDBRANCH   3   4
ENDBRANCH   2   3
BRANCH   2  11
HETATM   11  C12 UNL     1      23.070   2.810  50.157  1.00  0.00    -0.009 A 
HETATM   12  C13 UNL     1      23.220   2.760  48.783  1.00  0.00     0.013 A 
HETATM   13  C14 UNL     1      22.312   2.005  48.080  1.00  0.00     0.001 A 
HETATM   14  C15 UNL     1      21.268   1.293  48.622  1.00  0.00     0.000 A 
HETATM   15  C16 UNL     1      21.134   1.355  49.999  1.00  0.00     0.001 A 
HETATM   16  C17 UNL     1      22.032   2.107  50.734  1.00  0.00     0.013 A 
ENDBRANCH   2  11
BRANCH   1  17
HETATM   17  N1  UNL     1      24.647   5.512  49.786  1.00  0.00    -0.272 N 
HETATM   18  H4  UNL     1      24.011   6.132  49.213  1.00  0.00     0.190 HD
BRANCH  17  19
HETATM   19  C2  UNL     1      25.974   5.521  49.261  1.00  0.00     0.090 C 
HETATM   20  C1  UNL     1      26.944   4.424  49.172  1.00  0.00     0.083 C 
HETATM   21  S1  UNL     1      26.768   6.809  48.605  1.00  0.00    -0.064 SA
ENDBRANCH  17  19
ENDBRANCH   1  17
TORSDOF 5
ENDMDL
