MODEL 1
REMARK VINA RESULT:      -8.5      0.000      0.000
REMARK  2 active torsions:
REMARK  status: ('A' for Active; 'I' for Inactive)
REMARK    1  A    between atoms: C2_4  and  O1_5 
REMARK    2  A    between atoms: O1_5  and  C3_6 
ROOT
HETATM    1  C3  UNL     1      24.852  -0.794  54.070  1.00  0.00     0.169 C 
HETATM    2  N1  UNL     1      24.171  -0.634  53.013  1.00  0.00    -0.218 NA
HETATM    3  C4  UNL     1      22.774  -0.728  52.894  1.00  0.00     0.236 C 
HETATM    4  N2  UNL     1      21.965   0.274  53.057  1.00  0.00    -0.240 NA
HETATM    5  C5  UNL     1      20.585  -0.028  52.893  1.00  0.00     0.086 A 
HETATM    6  C6  UNL     1      19.730   0.744  52.145  1.00  0.00     0.034 A 
HETATM    7  C7  UNL     1      18.393   0.449  51.986  1.00  0.00     0.002 A 
HETATM    8  C8  UNL     1      17.859  -0.668  52.598  1.00  0.00     0.002 A 
HETATM    9  C9  UNL     1      18.725  -1.455  53.358  1.00  0.00     0.034 A 
HETATM   10  C10 UNL     1      20.076  -1.146  53.510  1.00  0.00     0.083 A 
HETATM   11  N3  UNL     1      20.913  -2.000  54.309  1.00  0.00    -0.260 N 
HETATM   12  O2  UNL     1      21.553  -1.333  55.337  1.00  0.00    -0.250 OA
HETATM   13  C11 UNL     1      22.928  -1.239  55.447  1.00  0.00     0.172 C 
HETATM   14  C12 UNL     1      24.239  -1.109  55.349  1.00  0.00     0.084 C 
HETATM   15  H8  UNL     1      20.807  -2.962  53.872  1.00  0.00     0.195 HD
ENDROOT
BRANCH   1  16
HETATM   16  O1  UNL     1      26.216  -0.659  53.977  1.00  0.00    -0.293 OA
BRANCH  16  17
HETATM   17  C2  UNL     1      26.958   0.254  54.758  1.00  0.00     0.396 C 
HETATM   18  C1  UNL     1      26.623   1.651  54.057  1.00  0.00     0.117 C 
HETATM   19  S1  UNL     1      26.850   1.344  51.948  1.00  0.00     0.063 SA
HETATM   20  F1  UNL     1      26.469   2.859  51.744  1.00  0.00    -0.159 F 
HETATM   21  C15 UNL     1      27.697   0.365  52.633  1.00  0.00    -0.007 C 
HETATM   22  C14 UNL     1      28.198  -0.216  53.067  1.00  0.00    -0.063 C 
HETATM   23  C13 UNL     1      28.922  -1.058  53.735  1.00  0.00     0.367 C 
HETATM   24  N4  UNL     1      28.282  -0.092  55.070  1.00  0.00     0.127 N 
HETATM   25  H11 UNL     1      28.444  -0.813  55.744  1.00  0.00     0.320 HD
ENDBRANCH  16  17
ENDBRANCH   1  16
TORSDOF 2
ENDMDL
MODEL 2
REMARK VINA RESULT:      -8.5      3.619      7.437
REMARK  2 active torsions:
REMARK  status: ('A' for Active; 'I' for Inactive)
REMARK    1  A    between atoms: C2_4  and  O1_5 
REMARK    2  A    between atoms: O1_5  and  C3_6 
ROOT
HETATM    1  C3  UNL     1      24.116   2.238  52.166  1.00  0.00     0.169 C 
HETATM    2  N1  UNL     1      24.784   1.341  51.572  1.00  0.00    -0.218 NA
HETATM    3  C4  UNL     1      26.018   0.804  51.980  1.00  0.00     0.236 C 
HETATM    4  N2  UNL     1      26.136  -0.225  52.760  1.00  0.00    -0.240 NA
HETATM    5  C5  UNL     1      27.472  -0.612  53.056  1.00  0.00     0.086 A 
HETATM    6  C6  UNL     1      27.910  -1.913  52.994  1.00  0.00     0.034 A 
HETATM    7  C7  UNL     1      29.205  -2.286  53.280  1.00  0.00     0.002 A 
HETATM    8  C8  UNL     1      30.129  -1.330  53.649  1.00  0.00     0.002 A 
HETATM    9  C9  UNL     1      29.689  -0.007  53.713  1.00  0.00     0.034 A 
HETATM   10  C10 UNL     1      28.375   0.358  53.421  1.00  0.00     0.083 A 
HETATM   11  N3  UNL     1      27.988   1.740  53.507  1.00  0.00    -0.260 N 
HETATM   12  O2  UNL     1      26.924   1.958  54.362  1.00  0.00    -0.250 OA
HETATM   13  C11 UNL     1      25.710   2.481  53.954  1.00  0.00     0.172 C 
HETATM   14  C12 UNL     1      24.568   2.850  53.404  1.00  0.00     0.084 C 
HETATM   15  H8  UNL     1      28.658   2.246  52.858  1.00  0.00     0.195 HD
ENDROOT
BRANCH   1  16
HETATM   16  O1  UNL     1      22.926   2.628  51.601  1.00  0.00    -0.293 OA
BRANCH  16  17
HETATM   17  C2  UNL     1      21.676   2.098  51.989  1.00  0.00     0.396 C 
HETATM   18  C1  UNL     1      21.417   0.985  50.869  1.00  0.00     0.117 C 
HETATM   19  S1  UNL     1      21.849   1.907  48.984  1.00  0.00     0.063 SA
HETATM   20  F1  UNL     1      21.461   0.545  48.293  1.00  0.00    -0.159 F 
HETATM   21  C15 UNL     1      21.475   2.968  49.921  1.00  0.00    -0.007 C 
HETATM   22  C14 UNL     1      21.247   3.590  50.503  1.00  0.00    -0.063 C 
HETATM   23  C13 UNL     1      20.911   4.480  51.382  1.00  0.00     0.367 C 
HETATM   24  N4  UNL     1      20.669   3.012  52.337  1.00  0.00     0.127 N 
HETATM   25  H11 UNL     1      20.742   3.497  53.208  1.00  0.00     0.320 HD
ENDBRANCH  16  17
ENDBRANCH   1  16
TORSDOF 2
ENDMDL
MODEL 3
REMARK VINA RESULT:      -8.4      1.772      2.132
REMARK  2 active torsions:
REMARK  status: ('A' for Active; 'I' for Inactive)
REMARK    1  A    between atoms: C2_4  and  O1_5 
REMARK    2  A    between atoms: O1_5  and  C3_6 
ROOT
HETATM    1  C3  UNL     1      24.511  -0.489  53.807  1.00  0.00     0.169 C 
HETATM    2  N1  UNL     1      23.772  -0.384  52.783  1.00  0.00    -0.218 NA
HETATM    3  C4  UNL     1      22.380  -0.571  52.729  1.00  0.00     0.236 C 
HETATM    4  N2  UNL     1      21.515   0.375  52.924  1.00  0.00    -0.240 NA
HETATM    5  C5  UNL     1      20.152  -0.019  52.828  1.00  0.00     0.086 A 
HETATM    6  C6  UNL     1      19.213   0.687  52.116  1.00  0.00     0.034 A 
HETATM    7  C7  UNL     1      17.893   0.303  52.022  1.00  0.00     0.002 A 
HETATM    8  C8  UNL     1      17.464  -0.841  52.664  1.00  0.00     0.002 A 
HETATM    9  C9  UNL     1      18.415  -1.563  53.387  1.00  0.00     0.034 A 
HETATM   10  C10 UNL     1      19.748  -1.163  53.474  1.00  0.00     0.083 A 
HETATM   11  N3  UNL     1      20.676  -1.953  54.238  1.00  0.00    -0.260 N 
HETATM   12  O2  UNL     1      21.317  -1.235  55.231  1.00  0.00    -0.250 OA
HETATM   13  C11 UNL     1      22.687  -1.049  55.275  1.00  0.00     0.172 C 
HETATM   14  C12 UNL     1      23.980  -0.833  55.115  1.00  0.00     0.084 C 
HETATM   15  H8  UNL     1      20.614  -2.923  53.812  1.00  0.00     0.195 HD
ENDROOT
BRANCH   1  16
HETATM   16  O1  UNL     1      25.857  -0.265  53.649  1.00  0.00    -0.293 OA
BRANCH  16  17
HETATM   17  C2  UNL     1      26.524  -0.402  52.412  1.00  0.00     0.396 C 
HETATM   18  C1  UNL     1      27.903  -1.087  52.843  1.00  0.00     0.117 C 
HETATM   19  S1  UNL     1      28.627   0.013  54.534  1.00  0.00     0.063 SA
HETATM   20  F1  UNL     1      29.876  -0.948  54.552  1.00  0.00    -0.159 F 
HETATM   21  C15 UNL     1      27.769   0.909  53.755  1.00  0.00    -0.007 C 
HETATM   22  C14 UNL     1      27.248   1.430  53.271  1.00  0.00    -0.063 C 
HETATM   23  C13 UNL     1      26.476   2.169  52.539  1.00  0.00     0.367 C 
HETATM   24  N4  UNL     1      26.513   0.705  51.549  1.00  0.00     0.127 N 
HETATM   25  H11 UNL     1      25.663   0.935  51.075  1.00  0.00     0.320 HD
ENDBRANCH  16  17
ENDBRANCH   1  16
TORSDOF 2
ENDMDL
MODEL 4
REMARK VINA RESULT:      -8.4      3.811      7.539
REMARK  2 active torsions:
REMARK  status: ('A' for Active; 'I' for Inactive)
REMARK    1  A    between atoms: C2_4  and  O1_5 
REMARK    2  A    between atoms: O1_5  and  C3_6 
ROOT
HETATM    1  C3  UNL     1      23.787   2.328  51.904  1.00  0.00     0.169 C 
HETATM    2  N1  UNL     1      24.552   1.477  51.360  1.00  0.00    -0.218 NA
HETATM    3  C4  UNL     1      25.816   1.069  51.821  1.00  0.00     0.236 C 
HETATM    4  N2  UNL     1      26.003   0.082  52.641  1.00  0.00    -0.240 NA
HETATM    5  C5  UNL     1      27.359  -0.171  52.987  1.00  0.00     0.086 A 
HETATM    6  C6  UNL     1      27.915  -1.428  52.984  1.00  0.00     0.034 A 
HETATM    7  C7  UNL     1      29.230  -1.671  53.318  1.00  0.00     0.002 A 
HETATM    8  C8  UNL     1      30.051  -0.622  53.678  1.00  0.00     0.002 A 
HETATM    9  C9  UNL     1      29.491   0.657  53.682  1.00  0.00     0.034 A 
HETATM   10  C10 UNL     1      28.159   0.889  53.341  1.00  0.00     0.083 A 
HETATM   11  N3  UNL     1      27.646   2.232  53.366  1.00  0.00    -0.260 N 
HETATM   12  O2  UNL     1      26.541   2.380  54.184  1.00  0.00    -0.250 OA
HETATM   13  C11 UNL     1      25.298   2.776  53.724  1.00  0.00     0.172 C 
HETATM   14  C12 UNL     1      24.144   3.020  53.131  1.00  0.00     0.084 C 
HETATM   15  H8  UNL     1      28.287   2.775  52.718  1.00  0.00     0.195 HD
ENDROOT
BRANCH   1  16
HETATM   16  O1  UNL     1      22.585   2.589  51.293  1.00  0.00    -0.293 OA
BRANCH  16  17
HETATM   17  C2  UNL     1      22.392   2.501  49.896  1.00  0.00     0.396 C 
HETATM   18  C1  UNL     1      21.681   3.894  49.563  1.00  0.00     0.117 C 
HETATM   19  S1  UNL     1      20.132   4.151  51.021  1.00  0.00     0.063 SA
HETATM   20  F1  UNL     1      19.768   5.510  50.311  1.00  0.00    -0.159 F 
HETATM   21  C15 UNL     1      20.379   2.714  50.885  1.00  0.00    -0.007 C 
HETATM   22  C14 UNL     1      20.546   1.854  50.787  1.00  0.00    -0.063 C 
HETATM   23  C13 UNL     1      20.817   0.598  50.621  1.00  0.00     0.367 C 
HETATM   24  N4  UNL     1      21.879   1.296  49.392  1.00  0.00     0.127 N 
HETATM   25  H11 UNL     1      22.475   0.493  49.368  1.00  0.00     0.320 HD
ENDBRANCH  16  17
ENDBRANCH   1  16
TORSDOF 2
ENDMDL
MODEL 5
REMARK VINA RESULT:      -8.2      4.455      5.801
REMARK  2 active torsions:
REMARK  status: ('A' for Active; 'I' for Inactive)
REMARK    1  A    between atoms: C2_4  and  O1_5 
REMARK    2  A    between atoms: O1_5  and  C3_6 
ROOT
HETATM    1  C3  UNL     1      25.959   1.846  51.849  1.00  0.00     0.169 C 
HETATM    2  N1  UNL     1      24.933   2.366  52.381  1.00  0.00    -0.218 NA
HETATM    3  C4  UNL     1      24.328   3.583  52.023  1.00  0.00     0.236 C 
HETATM    4  N2  UNL     1      23.394   3.691  51.128  1.00  0.00    -0.240 NA
HETATM    5  C5  UNL     1      22.913   5.011  50.910  1.00  0.00     0.086 A 
HETATM    6  C6  UNL     1      21.576   5.323  50.842  1.00  0.00     0.034 A 
HETATM    7  C7  UNL     1      21.111   6.603  50.632  1.00  0.00     0.002 A 
HETATM    8  C8  UNL     1      22.008   7.642  50.479  1.00  0.00     0.002 A 
HETATM    9  C9  UNL     1      23.366   7.330  50.549  1.00  0.00     0.034 A 
HETATM   10  C10 UNL     1      23.823   6.030  50.762  1.00  0.00     0.083 A 
HETATM   11  N3  UNL     1      25.238   5.778  50.823  1.00  0.00    -0.260 N 
HETATM   12  O2  UNL     1      25.665   4.834  49.907  1.00  0.00    -0.250 OA
HETATM   13  C11 UNL     1      26.255   3.635  50.265  1.00  0.00     0.172 C 
HETATM   14  C12 UNL     1      26.668   2.478  50.750  1.00  0.00     0.084 C 
HETATM   15  H8  UNL     1      25.590   6.418  51.592  1.00  0.00     0.195 HD
ENDROOT
BRANCH   1  16
HETATM   16  O1  UNL     1      26.396   0.642  52.347  1.00  0.00    -0.293 OA
BRANCH  16  17
HETATM   17  C2  UNL     1      26.001   0.136  53.605  1.00  0.00     0.396 C 
HETATM   18  C1  UNL     1      27.014   0.871  54.600  1.00  0.00     0.117 C 
HETATM   19  S1  UNL     1      28.965   0.675  53.736  1.00  0.00     0.063 SA
HETATM   20  F1  UNL     1      29.532   1.461  54.978  1.00  0.00    -0.159 F 
HETATM   21  C15 UNL     1      28.149  -0.438  53.245  1.00  0.00    -0.007 C 
HETATM   22  C14 UNL     1      27.638  -1.098  52.962  1.00  0.00    -0.063 C 
HETATM   23  C13 UNL     1      26.862  -2.055  52.563  1.00  0.00     0.367 C 
HETATM   24  N4  UNL     1      25.777  -1.246  53.701  1.00  0.00     0.127 N 
HETATM   25  H11 UNL     1      24.955  -1.629  53.279  1.00  0.00     0.320 HD
ENDBRANCH  16  17
ENDBRANCH   1  16
TORSDOF 2
ENDMDL
MODEL 6
REMARK VINA RESULT:      -8.0      4.947      6.163
REMARK  2 active torsions:
REMARK  status: ('A' for Active; 'I' for Inactive)
REMARK    1  A    between atoms: C2_4  and  O1_5 
REMARK    2  A    between atoms: O1_5  and  C3_6 
ROOT
HETATM    1  C3  UNL     1      25.755   1.579  51.664  1.00  0.00     0.169 C 
HETATM    2  N1  UNL     1      26.338   2.240  50.754  1.00  0.00    -0.218 NA
HETATM    3  C4  UNL     1      25.767   3.238  49.945  1.00  0.00     0.236 C 
HETATM    4  N2  UNL     1      25.747   4.497  50.255  1.00  0.00    -0.240 NA
HETATM    5  C5  UNL     1      25.121   5.347  49.302  1.00  0.00     0.086 A 
HETATM    6  C6  UNL     1      25.674   6.528  48.869  1.00  0.00     0.034 A 
HETATM    7  C7  UNL     1      25.067   7.350  47.945  1.00  0.00     0.002 A 
HETATM    8  C8  UNL     1      23.844   6.996  47.411  1.00  0.00     0.002 A 
HETATM    9  C9  UNL     1      23.279   5.797  47.847  1.00  0.00     0.034 A 
HETATM   10  C10 UNL     1      23.905   4.974  48.783  1.00  0.00     0.083 A 
HETATM   11  N3  UNL     1      23.266   3.751  49.189  1.00  0.00    -0.260 N 
HETATM   12  O2  UNL     1      23.070   3.664  50.555  1.00  0.00    -0.250 OA
HETATM   13  C11 UNL     1      23.639   2.683  51.347  1.00  0.00     0.172 C 
HETATM   14  C12 UNL     1      24.355   1.784  51.998  1.00  0.00     0.084 C 
HETATM   15  H8  UNL     1      23.109   3.219  48.285  1.00  0.00     0.195 HD
ENDROOT
BRANCH   1  16
HETATM   16  O1  UNL     1      26.493   0.642  52.346  1.00  0.00    -0.293 OA
BRANCH  16  17
HETATM   17  C2  UNL     1      26.129   0.147  53.618  1.00  0.00     0.396 C 
HETATM   18  C1  UNL     1      27.102   0.962  54.590  1.00  0.00     0.117 C 
HETATM   19  S1  UNL     1      29.059   0.854  53.724  1.00  0.00     0.063 SA
HETATM   20  F1  UNL     1      29.584   1.702  54.944  1.00  0.00    -0.159 F 
HETATM   21  C15 UNL     1      28.305  -0.315  53.265  1.00  0.00    -0.007 C 
HETATM   22  C14 UNL     1      27.832  -1.010  53.001  1.00  0.00    -0.063 C 
HETATM   23  C13 UNL     1      27.109  -2.018  52.630  1.00  0.00     0.367 C 
HETATM   24  N4  UNL     1      25.983  -1.243  53.750  1.00  0.00     0.127 N 
HETATM   25  H11 UNL     1      25.183  -1.682  53.341  1.00  0.00     0.320 HD
ENDBRANCH  16  17
ENDBRANCH   1  16
TORSDOF 2
ENDMDL
MODEL 7
REMARK VINA RESULT:      -7.9      2.475      3.213
REMARK  2 active torsions:
REMARK  status: ('A' for Active; 'I' for Inactive)
REMARK    1  A    between atoms: C2_4  and  O1_5 
REMARK    2  A    between atoms: O1_5  and  C3_6 
ROOT
HETATM    1  C3  UNL     1      24.590   1.155  52.585  1.00  0.00     0.169 C 
HETATM    2  N1  UNL     1      23.551   0.631  53.085  1.00  0.00    -0.218 NA
HETATM    3  C4  UNL     1      22.218   0.962  52.787  1.00  0.00     0.236 C 
HETATM    4  N2  UNL     1      21.528   0.401  51.842  1.00  0.00    -0.240 NA
HETATM    5  C5  UNL     1      20.195   0.878  51.700  1.00  0.00     0.086 A 
HETATM    6  C6  UNL     1      19.109   0.046  51.566  1.00  0.00     0.034 A 
HETATM    7  C7  UNL     1      17.818   0.509  51.429  1.00  0.00     0.002 A 
HETATM    8  C8  UNL     1      17.574   1.868  51.424  1.00  0.00     0.002 A 
HETATM    9  C9  UNL     1      18.674   2.716  51.561  1.00  0.00     0.034 A 
HETATM   10  C10 UNL     1      19.975   2.234  51.699  1.00  0.00     0.083 A 
HETATM   11  N3  UNL     1      21.064   3.164  51.836  1.00  0.00    -0.260 N 
HETATM   12  O2  UNL     1      22.047   3.000  50.878  1.00  0.00    -0.250 OA
HETATM   13  C11 UNL     1      23.356   2.669  51.177  1.00  0.00     0.172 C 
HETATM   14  C12 UNL     1      24.525   2.215  51.593  1.00  0.00     0.084 C 
HETATM   15  H8  UNL     1      20.805   3.756  52.677  1.00  0.00     0.195 HD
ENDROOT
BRANCH   1  16
HETATM   16  O1  UNL     1      25.810   0.689  53.012  1.00  0.00    -0.293 OA
BRANCH  16  17
HETATM   17  C2  UNL     1      25.976  -0.084  54.183  1.00  0.00     0.396 C 
HETATM   18  C1  UNL     1      27.117   0.720  54.962  1.00  0.00     0.117 C 
HETATM   19  S1  UNL     1      28.649   1.149  53.525  1.00  0.00     0.063 SA
HETATM   20  F1  UNL     1      29.455   1.854  54.681  1.00  0.00    -0.159 F 
HETATM   21  C15 UNL     1      27.933  -0.044  53.068  1.00  0.00    -0.007 C 
HETATM   22  C14 UNL     1      27.487  -0.761  52.813  1.00  0.00    -0.063 C 
HETATM   23  C13 UNL     1      26.811  -1.808  52.463  1.00  0.00     0.367 C 
HETATM   24  N4  UNL     1      26.058  -1.477  54.028  1.00  0.00     0.127 N 
HETATM   25  H11 UNL     1      25.227  -1.984  53.801  1.00  0.00     0.320 HD
ENDBRANCH  16  17
ENDBRANCH   1  16
TORSDOF 2
ENDMDL
MODEL 8
REMARK VINA RESULT:      -7.9      4.138      4.954
REMARK  2 active torsions:
REMARK  status: ('A' for Active; 'I' for Inactive)
REMARK    1  A    between atoms: C2_4  and  O1_5 
REMARK    2  A    between atoms: O1_5  and  C3_6 
ROOT
HETATM    1  C3  UNL     1      24.302   1.484  52.235  1.00  0.00     0.169 C 
HETATM    2  N1  UNL     1      24.602   2.456  51.480  1.00  0.00    -0.218 NA
HETATM    3  C4  UNL     1      23.743   3.483  51.052  1.00  0.00     0.236 C 
HETATM    4  N2  UNL     1      23.565   4.594  51.699  1.00  0.00    -0.240 NA
HETATM    5  C5  UNL     1      22.653   5.505  51.099  1.00  0.00     0.086 A 
HETATM    6  C6  UNL     1      22.918   6.845  50.948  1.00  0.00     0.034 A 
HETATM    7  C7  UNL     1      22.034   7.727  50.366  1.00  0.00     0.002 A 
HETATM    8  C8  UNL     1      20.815   7.272  49.904  1.00  0.00     0.002 A 
HETATM    9  C9  UNL     1      20.542   5.912  50.055  1.00  0.00     0.034 A 
HETATM   10  C10 UNL     1      21.446   5.030  50.646  1.00  0.00     0.083 A 
HETATM   11  N3  UNL     1      21.100   3.639  50.771  1.00  0.00    -0.260 N 
HETATM   12  O2  UNL     1      21.156   3.177  52.072  1.00  0.00    -0.250 OA
HETATM   13  C11 UNL     1      22.008   2.170  52.489  1.00  0.00     0.172 C 
HETATM   14  C12 UNL     1      22.964   1.306  52.775  1.00  0.00     0.084 C 
HETATM   15  H8  UNL     1      20.884   3.328  49.779  1.00  0.00     0.195 HD
ENDROOT
BRANCH   1  16
HETATM   16  O1  UNL     1      25.291   0.581  52.538  1.00  0.00    -0.293 OA
BRANCH  16  17
HETATM   17  C2  UNL     1      25.515   0.088  53.843  1.00  0.00     0.396 C 
HETATM   18  C1  UNL     1      26.418   1.238  54.489  1.00  0.00     0.117 C 
HETATM   19  S1  UNL     1      27.941   1.697  53.053  1.00  0.00     0.063 SA
HETATM   20  F1  UNL     1      28.507   2.753  54.076  1.00  0.00    -0.159 F 
HETATM   21  C15 UNL     1      27.505   0.319  52.813  1.00  0.00    -0.007 C 
HETATM   22  C14 UNL     1      27.226  -0.508  52.687  1.00  0.00    -0.063 C 
HETATM   23  C13 UNL     1      26.793  -1.717  52.526  1.00  0.00     0.367 C 
HETATM   24  N4  UNL     1      25.876  -1.263  53.967  1.00  0.00     0.127 N 
HETATM   25  H11 UNL     1      25.178  -1.962  53.814  1.00  0.00     0.320 HD
ENDBRANCH  16  17
ENDBRANCH   1  16
TORSDOF 2
ENDMDL
MODEL 9
REMARK VINA RESULT:      -7.7      5.464      6.467
REMARK  2 active torsions:
REMARK  status: ('A' for Active; 'I' for Inactive)
REMARK    1  A    between atoms: C2_4  and  O1_5 
REMARK    2  A    between atoms: O1_5  and  C3_6 
ROOT
HETATM    1  C3  UNL     1      23.116   4.741  50.525  1.00  0.00     0.169 C 
HETATM    2  N1  UNL     1      23.639   4.216  51.552  1.00  0.00    -0.218 NA
HETATM    3  C4  UNL     1      23.117   3.154  52.310  1.00  0.00     0.236 C 
HETATM    4  N2  UNL     1      23.363   1.903  52.070  1.00  0.00    -0.240 NA
HETATM    5  C5  UNL     1      22.737   0.981  52.953  1.00  0.00     0.086 A 
HETATM    6  C6  UNL     1      23.400  -0.074  53.533  1.00  0.00     0.034 A 
HETATM    7  C7  UNL     1      22.792  -0.966  54.390  1.00  0.00     0.002 A 
HETATM    8  C8  UNL     1      21.455  -0.819  54.698  1.00  0.00     0.002 A 
HETATM    9  C9  UNL     1      20.778   0.252  54.112  1.00  0.00     0.034 A 
HETATM   10  C10 UNL     1      21.405   1.148  53.246  1.00  0.00     0.083 A 
HETATM   11  N3  UNL     1      20.647   2.229  52.676  1.00  0.00    -0.260 N 
HETATM   12  O2  UNL     1      20.673   2.246  51.294  1.00  0.00    -0.250 OA
HETATM   13  C11 UNL     1      21.195   3.291  50.553  1.00  0.00     0.172 C 
HETATM   14  C12 UNL     1      21.848   4.285  49.980  1.00  0.00     0.084 C 
HETATM   15  H8  UNL     1      20.252   2.748  53.513  1.00  0.00     0.195 HD
ENDROOT
BRANCH   1  16
HETATM   16  O1  UNL     1      23.790   5.776  49.922  1.00  0.00    -0.293 OA
BRANCH  16  17
HETATM   17  C2  UNL     1      24.690   6.617  50.612  1.00  0.00     0.396 C 
HETATM   18  C1  UNL     1      24.036   8.061  50.402  1.00  0.00     0.117 C 
HETATM   19  S1  UNL     1      23.539   8.207  48.323  1.00  0.00     0.063 SA
HETATM   20  F1  UNL     1      23.004   9.661  48.611  1.00  0.00    -0.159 F 
HETATM   21  C15 UNL     1      24.637   7.246  48.450  1.00  0.00    -0.007 C 
HETATM   22  C14 UNL     1      25.297   6.671  48.551  1.00  0.00    -0.063 C 
HETATM   23  C13 UNL     1      26.264   5.829  48.734  1.00  0.00     0.367 C 
HETATM   24  N4  UNL     1      26.062   6.412  50.390  1.00  0.00     0.127 N 
HETATM   25  H11 UNL     1      26.497   5.606  50.789  1.00  0.00     0.320 HD
ENDBRANCH  16  17
ENDBRANCH   1  16
TORSDOF 2
ENDMDL
