MODEL 1
REMARK VINA RESULT:      -7.3      0.000      0.000
REMARK  6 active torsions:
REMARK  status: ('A' for Active; 'I' for Inactive)
REMARK    1  A    between atoms: O1_2  and  C2_3 
REMARK    2  A    between atoms: C2_3  and  C8_11 
REMARK    3  A    between atoms: C3_4  and  C4_5 
REMARK    4  A    between atoms: C8_11  and  O2_21 
REMARK    5  A    between atoms: C9_12  and  N3_13 
REMARK    6  A    between atoms: N3_13  and  C11_15 
ROOT
HETATM    1  C8  UNL     1      24.479   2.646  51.745  1.00  0.00     0.117 C 
HETATM    2  C9  UNL     1      23.621   1.674  51.505  1.00  0.00     0.130 C 
ENDROOT
BRANCH   1   3
HETATM    3  C2  UNL     1      25.746   2.622  51.025  1.00  0.00     0.103 C 
HETATM    4  C3  UNL     1      26.834   2.083  51.509  1.00  0.00     0.054 C 
BRANCH   3   5
HETATM    5  O1  UNL     1      25.785   3.205  49.744  1.00  0.00    -0.353 OA
HETATM    6  C1  UNL     1      25.998   4.625  49.741  1.00  0.00     0.210 C 
ENDBRANCH   3   5
BRANCH   4   7
HETATM    7  C4  UNL     1      27.373   1.389  52.676  1.00  0.00     0.002 A 
HETATM    8  C5  UNL     1      27.085   0.081  53.046  1.00  0.00     0.131 A 
HETATM    9  N1  UNL     1      27.686  -0.405  54.142  1.00  0.00    -0.253 NA
HETATM   10  C6  UNL     1      28.548   0.339  54.876  1.00  0.00     0.232 A 
HETATM   11  N2  UNL     1      28.846   1.619  54.537  1.00  0.00    -0.253 NA
HETATM   12  C7  UNL     1      28.254   2.149  53.428  1.00  0.00     0.131 A 
ENDBRANCH   4   7
ENDBRANCH   1   3
BRANCH   1  13
HETATM   13  O2  UNL     1      24.101   3.607  52.661  1.00  0.00    -0.352 OA
HETATM   14  C17 UNL     1      23.230   4.661  52.316  1.00  0.00     0.210 C 
ENDBRANCH   1  13
BRANCH   2  15
HETATM   15  N3  UNL     1      22.376   1.058  51.743  1.00  0.00    -0.358 N 
HETATM   16  C10 UNL     1      21.183   1.315  50.928  1.00  0.00     0.156 C 
BRANCH  15  17
HETATM   17  C11 UNL     1      22.245   0.139  52.823  1.00  0.00     0.033 A 
HETATM   18  C12 UNL     1      21.073  -0.498  53.148  1.00  0.00     0.029 A 
HETATM   19  C13 UNL     1      20.937  -1.389  54.192  1.00  0.00     0.002 A 
HETATM   20  C14 UNL     1      22.071  -1.636  54.942  1.00  0.00     0.000 A 
HETATM   21  C15 UNL     1      23.294  -1.039  54.686  1.00  0.00     0.002 A 
HETATM   22  C16 UNL     1      23.350  -0.161  53.628  1.00  0.00     0.029 A 
ENDBRANCH  15  17
ENDBRANCH   2  15
TORSDOF 6
ENDMDL
MODEL 2
REMARK VINA RESULT:      -7.0      0.970      2.378
REMARK  6 active torsions:
REMARK  status: ('A' for Active; 'I' for Inactive)
REMARK    1  A    between atoms: O1_2  and  C2_3 
REMARK    2  A    between atoms: C2_3  and  C8_11 
REMARK    3  A    between atoms: C3_4  and  C4_5 
REMARK    4  A    between atoms: C8_11  and  O2_21 
REMARK    5  A    between atoms: C9_12  and  N3_13 
REMARK    6  A    between atoms: N3_13  and  C11_15 
ROOT
HETATM    1  C8  UNL     1      24.396   2.271  52.196  1.00  0.00     0.117 C 
HETATM    2  C9  UNL     1      23.883   1.067  52.359  1.00  0.00     0.130 C 
ENDROOT
BRANCH   1   3
HETATM    3  C2  UNL     1      25.561   2.397  51.328  1.00  0.00     0.103 C 
HETATM    4  C3  UNL     1      26.763   2.025  51.685  1.00  0.00     0.054 C 
BRANCH   3   5
HETATM    5  O1  UNL     1      25.369   2.941  50.044  1.00  0.00    -0.353 OA
HETATM    6  C1  UNL     1      26.484   3.694  49.543  1.00  0.00     0.210 C 
ENDBRANCH   3   5
BRANCH   4   7
HETATM    7  C4  UNL     1      27.526   1.447  52.789  1.00  0.00     0.002 A 
HETATM    8  C5  UNL     1      28.366   2.146  53.647  1.00  0.00     0.131 A 
HETATM    9  N1  UNL     1      28.977   1.456  54.621  1.00  0.00    -0.253 NA
HETATM   10  C6  UNL     1      28.792   0.124  54.780  1.00  0.00     0.232 A 
HETATM   11  N2  UNL     1      27.976  -0.582  53.957  1.00  0.00    -0.253 NA
HETATM   12  C7  UNL     1      27.338   0.084  52.952  1.00  0.00     0.131 A 
ENDBRANCH   4   7
ENDBRANCH   1   3
BRANCH   1  13
HETATM   13  O2  UNL     1      23.783   3.313  52.863  1.00  0.00    -0.352 OA
HETATM   14  C17 UNL     1      22.888   4.187  52.212  1.00  0.00     0.210 C 
ENDBRANCH   1  13
BRANCH   2  15
HETATM   15  N3  UNL     1      22.917   0.221  52.936  1.00  0.00    -0.358 N 
HETATM   16  C10 UNL     1      23.201  -0.673  54.064  1.00  0.00     0.156 C 
BRANCH  15  17
HETATM   17  C11 UNL     1      21.590   0.215  52.415  1.00  0.00     0.033 A 
HETATM   18  C12 UNL     1      21.264   0.635  51.150  1.00  0.00     0.029 A 
HETATM   19  C13 UNL     1      19.983   0.633  50.638  1.00  0.00     0.002 A 
HETATM   20  C14 UNL     1      18.986   0.173  51.476  1.00  0.00     0.000 A 
HETATM   21  C15 UNL     1      19.224  -0.270  52.766  1.00  0.00     0.002 A 
HETATM   22  C16 UNL     1      20.528  -0.237  53.205  1.00  0.00     0.029 A 
ENDBRANCH  15  17
ENDBRANCH   2  15
TORSDOF 6
ENDMDL
MODEL 3
REMARK VINA RESULT:      -6.8      2.699      4.608
REMARK  6 active torsions:
REMARK  status: ('A' for Active; 'I' for Inactive)
REMARK    1  A    between atoms: O1_2  and  C2_3 
REMARK    2  A    between atoms: C2_3  and  C8_11 
REMARK    3  A    between atoms: C3_4  and  C4_5 
REMARK    4  A    between atoms: C8_11  and  O2_21 
REMARK    5  A    between atoms: C9_12  and  N3_13 
REMARK    6  A    between atoms: N3_13  and  C11_15 
ROOT
HETATM    1  C8  UNL     1      25.677  -0.321  54.041  1.00  0.00     0.117 C 
HETATM    2  C9  UNL     1      24.383  -0.199  54.263  1.00  0.00     0.130 C 
ENDROOT
BRANCH   1   3
HETATM    3  C2  UNL     1      26.496   0.880  54.146  1.00  0.00     0.103 C 
HETATM    4  C3  UNL     1      26.214   1.996  53.525  1.00  0.00     0.054 C 
BRANCH   3   5
HETATM    5  O1  UNL     1      27.641   0.826  54.964  1.00  0.00    -0.353 OA
HETATM    6  C1  UNL     1      28.884   0.970  54.261  1.00  0.00     0.210 C 
ENDBRANCH   3   5
BRANCH   4   7
HETATM    7  C4  UNL     1      25.252   2.613  52.615  1.00  0.00     0.002 A 
HETATM    8  C5  UNL     1      24.139   3.355  52.993  1.00  0.00     0.131 A 
HETATM    9  N1  UNL     1      23.370   3.867  52.021  1.00  0.00    -0.253 NA
HETATM   10  C6  UNL     1      23.653   3.680  50.710  1.00  0.00     0.232 A 
HETATM   11  N2  UNL     1      24.733   2.960  50.314  1.00  0.00    -0.253 NA
HETATM   12  C7  UNL     1      25.540   2.422  51.274  1.00  0.00     0.131 A 
ENDBRANCH   4   7
ENDBRANCH   1   3
BRANCH   1  13
HETATM   13  O2  UNL     1      26.146  -1.581  53.727  1.00  0.00    -0.352 OA
HETATM   14  C17 UNL     1      26.944  -1.813  52.588  1.00  0.00     0.210 C 
ENDBRANCH   1  13
BRANCH   2  15
HETATM   15  N3  UNL     1      23.100  -0.775  54.350  1.00  0.00    -0.358 N 
HETATM   16  C10 UNL     1      22.733  -1.773  55.361  1.00  0.00     0.156 C 
BRANCH  15  17
HETATM   17  C11 UNL     1      22.093  -0.385  53.420  1.00  0.00     0.033 A 
HETATM   18  C12 UNL     1      20.748  -0.552  53.634  1.00  0.00     0.029 A 
HETATM   19  C13 UNL     1      19.767  -0.178  52.739  1.00  0.00     0.002 A 
HETATM   20  C14 UNL     1      20.198   0.399  51.560  1.00  0.00     0.000 A 
HETATM   21  C15 UNL     1      21.534   0.606  51.261  1.00  0.00     0.002 A 
HETATM   22  C16 UNL     1      22.453   0.206  52.204  1.00  0.00     0.029 A 
ENDBRANCH  15  17
ENDBRANCH   2  15
TORSDOF 6
ENDMDL
MODEL 4
REMARK VINA RESULT:      -6.7      1.988      5.466
REMARK  6 active torsions:
REMARK  status: ('A' for Active; 'I' for Inactive)
REMARK    1  A    between atoms: O1_2  and  C2_3 
REMARK    2  A    between atoms: C2_3  and  C8_11 
REMARK    3  A    between atoms: C3_4  and  C4_5 
REMARK    4  A    between atoms: C8_11  and  O2_21 
REMARK    5  A    between atoms: C9_12  and  N3_13 
REMARK    6  A    between atoms: N3_13  and  C11_15 
ROOT
HETATM    1  C8  UNL     1      23.421   2.823  51.677  1.00  0.00     0.117 C 
HETATM    2  C9  UNL     1      23.710   3.195  50.445  1.00  0.00     0.130 C 
ENDROOT
BRANCH   1   3
HETATM    3  C2  UNL     1      23.649   1.427  52.031  1.00  0.00     0.103 C 
HETATM    4  C3  UNL     1      24.787   0.985  52.499  1.00  0.00     0.054 C 
BRANCH   3   5
HETATM    5  O1  UNL     1      22.582   0.524  51.865  1.00  0.00    -0.353 OA
HETATM    6  C1  UNL     1      21.699   0.430  52.992  1.00  0.00     0.210 C 
ENDBRANCH   3   5
BRANCH   4   7
HETATM    7  C4  UNL     1      26.141   1.399  52.857  1.00  0.00     0.002 A 
HETATM    8  C5  UNL     1      27.019   2.099  52.038  1.00  0.00     0.131 A 
HETATM    9  N1  UNL     1      28.222   2.415  52.538  1.00  0.00    -0.253 NA
HETATM   10  C6  UNL     1      28.588   2.072  53.796  1.00  0.00     0.232 A 
HETATM   11  N2  UNL     1      27.751   1.389  54.616  1.00  0.00    -0.253 NA
HETATM   12  C7  UNL     1      26.517   1.048  54.144  1.00  0.00     0.131 A 
ENDBRANCH   4   7
ENDBRANCH   1   3
BRANCH   1  13
HETATM   13  O2  UNL     1      22.926   3.791  52.527  1.00  0.00    -0.352 OA
HETATM   14  C17 UNL     1      21.641   4.344  52.355  1.00  0.00     0.210 C 
ENDBRANCH   1  13
BRANCH   2  15
HETATM   15  N3  UNL     1      23.773   4.196  49.456  1.00  0.00    -0.358 N 
HETATM   16  C10 UNL     1      22.596   4.685  48.730  1.00  0.00     0.156 C 
BRANCH  15  17
HETATM   17  C11 UNL     1      25.032   4.777  49.127  1.00  0.00     0.033 A 
HETATM   18  C12 UNL     1      25.188   6.069  48.692  1.00  0.00     0.029 A 
HETATM   19  C13 UNL     1      26.403   6.638  48.371  1.00  0.00     0.002 A 
HETATM   20  C14 UNL     1      27.516   5.831  48.506  1.00  0.00     0.000 A 
HETATM   21  C15 UNL     1      27.452   4.517  48.938  1.00  0.00     0.002 A 
HETATM   22  C16 UNL     1      26.204   4.021  49.239  1.00  0.00     0.029 A 
ENDBRANCH  15  17
ENDBRANCH   2  15
TORSDOF 6
ENDMDL
MODEL 5
REMARK VINA RESULT:      -6.7      2.362      6.208
REMARK  6 active torsions:
REMARK  status: ('A' for Active; 'I' for Inactive)
REMARK    1  A    between atoms: O1_2  and  C2_3 
REMARK    2  A    between atoms: C2_3  and  C8_11 
REMARK    3  A    between atoms: C3_4  and  C4_5 
REMARK    4  A    between atoms: C8_11  and  O2_21 
REMARK    5  A    between atoms: C9_12  and  N3_13 
REMARK    6  A    between atoms: N3_13  and  C11_15 
ROOT
HETATM    1  C8  UNL     1      25.838   1.511  52.710  1.00  0.00     0.117 C 
HETATM    2  C9  UNL     1      25.104   2.211  51.867  1.00  0.00     0.130 C 
ENDROOT
BRANCH   1   3
HETATM    3  C2  UNL     1      25.789   0.058  52.603  1.00  0.00     0.103 C 
HETATM    4  C3  UNL     1      24.756  -0.652  52.976  1.00  0.00     0.054 C 
BRANCH   3   5
HETATM    5  O1  UNL     1      26.910  -0.601  52.065  1.00  0.00    -0.353 OA
HETATM    6  C1  UNL     1      27.107  -1.937  52.550  1.00  0.00     0.210 C 
ENDBRANCH   3   5
BRANCH   4   7
HETATM    7  C4  UNL     1      23.419  -0.551  53.558  1.00  0.00     0.002 A 
HETATM    8  C5  UNL     1      23.045  -1.015  54.814  1.00  0.00     0.131 A 
HETATM    9  N1  UNL     1      21.775  -0.822  55.198  1.00  0.00    -0.253 NA
HETATM   10  C6  UNL     1      20.874  -0.198  54.403  1.00  0.00     0.232 A 
HETATM   11  N2  UNL     1      21.213   0.264  53.173  1.00  0.00    -0.253 NA
HETATM   12  C7  UNL     1      22.496   0.085  52.746  1.00  0.00     0.131 A 
ENDBRANCH   4   7
ENDBRANCH   1   3
BRANCH   1  13
HETATM   13  O2  UNL     1      26.594   2.218  53.623  1.00  0.00    -0.352 OA
HETATM   14  C17 UNL     1      27.995   2.322  53.505  1.00  0.00     0.210 C 
ENDBRANCH   1  13
BRANCH   2  15
HETATM   15  N3  UNL     1      24.656   3.455  51.381  1.00  0.00    -0.358 N 
HETATM   16  C10 UNL     1      23.382   4.064  51.779  1.00  0.00     0.156 C 
BRANCH  15  17
HETATM   17  C11 UNL     1      25.464   4.176  50.454  1.00  0.00     0.033 A 
HETATM   18  C12 UNL     1      26.557   3.643  49.816  1.00  0.00     0.029 A 
HETATM   19  C13 UNL     1      27.344   4.333  48.918  1.00  0.00     0.002 A 
HETATM   20  C14 UNL     1      26.986   5.644  48.666  1.00  0.00     0.000 A 
HETATM   21  C15 UNL     1      25.901   6.262  49.264  1.00  0.00     0.002 A 
HETATM   22  C16 UNL     1      25.163   5.507  50.148  1.00  0.00     0.029 A 
ENDBRANCH  15  17
ENDBRANCH   2  15
TORSDOF 6
ENDMDL
MODEL 6
REMARK VINA RESULT:      -6.5      1.990      5.002
REMARK  6 active torsions:
REMARK  status: ('A' for Active; 'I' for Inactive)
REMARK    1  A    between atoms: O1_2  and  C2_3 
REMARK    2  A    between atoms: C2_3  and  C8_11 
REMARK    3  A    between atoms: C3_4  and  C4_5 
REMARK    4  A    between atoms: C8_11  and  O2_21 
REMARK    5  A    between atoms: C9_12  and  N3_13 
REMARK    6  A    between atoms: N3_13  and  C11_15 
ROOT
HETATM    1  C8  UNL     1      23.155   2.398  51.185  1.00  0.00     0.117 C 
HETATM    2  C9  UNL     1      24.409   2.009  51.059  1.00  0.00     0.130 C 
ENDROOT
BRANCH   1   3
HETATM    3  C2  UNL     1      22.113   1.403  50.956  1.00  0.00     0.103 C 
HETATM    4  C3  UNL     1      21.887   0.405  51.770  1.00  0.00     0.054 C 
BRANCH   3   5
HETATM    5  O1  UNL     1      21.315   1.540  49.805  1.00  0.00    -0.353 OA
HETATM    6  C1  UNL     1      22.052   1.666  48.580  1.00  0.00     0.210 C 
ENDBRANCH   3   5
BRANCH   4   7
HETATM    7  C4  UNL     1      22.342  -0.214  53.013  1.00  0.00     0.002 A 
HETATM    8  C5  UNL     1      23.666  -0.345  53.416  1.00  0.00     0.131 A 
HETATM    9  N1  UNL     1      23.902  -0.925  54.601  1.00  0.00    -0.253 NA
HETATM   10  C6  UNL     1      22.899  -1.374  55.393  1.00  0.00     0.232 A 
HETATM   11  N2  UNL     1      21.599  -1.258  55.023  1.00  0.00    -0.253 NA
HETATM   12  C7  UNL     1      21.317  -0.674  53.822  1.00  0.00     0.131 A 
ENDBRANCH   4   7
ENDBRANCH   1   3
BRANCH   1  13
HETATM   13  O2  UNL     1      22.936   3.718  51.523  1.00  0.00    -0.352 OA
HETATM   14  C17 UNL     1      23.417   4.265  52.730  1.00  0.00     0.210 C 
ENDBRANCH   1  13
BRANCH   2  15
HETATM   15  N3  UNL     1      25.787   2.300  51.103  1.00  0.00    -0.358 N 
HETATM   16  C10 UNL     1      26.405   3.387  50.337  1.00  0.00     0.156 C 
BRANCH  15  17
HETATM   17  C11 UNL     1      26.642   1.510  51.925  1.00  0.00     0.033 A 
HETATM   18  C12 UNL     1      26.624   0.138  51.953  1.00  0.00     0.029 A 
HETATM   19  C13 UNL     1      27.448  -0.633  52.745  1.00  0.00     0.002 A 
HETATM   20  C14 UNL     1      28.339   0.047  53.552  1.00  0.00     0.000 A 
HETATM   21  C15 UNL     1      28.427   1.429  53.588  1.00  0.00     0.002 A 
HETATM   22  C16 UNL     1      27.571   2.129  52.769  1.00  0.00     0.029 A 
ENDBRANCH  15  17
ENDBRANCH   2  15
TORSDOF 6
ENDMDL
MODEL 7
REMARK VINA RESULT:      -6.5      2.533      5.156
REMARK  6 active torsions:
REMARK  status: ('A' for Active; 'I' for Inactive)
REMARK    1  A    between atoms: O1_2  and  C2_3 
REMARK    2  A    between atoms: C2_3  and  C8_11 
REMARK    3  A    between atoms: C3_4  and  C4_5 
REMARK    4  A    between atoms: C8_11  and  O2_21 
REMARK    5  A    between atoms: C9_12  and  N3_13 
REMARK    6  A    between atoms: N3_13  and  C11_15 
ROOT
HETATM    1  C8  UNL     1      23.385   2.263  51.659  1.00  0.00     0.117 C 
HETATM    2  C9  UNL     1      24.138   1.232  51.987  1.00  0.00     0.130 C 
ENDROOT
BRANCH   1   3
HETATM    3  C2  UNL     1      23.020   2.413  50.255  1.00  0.00     0.103 C 
HETATM    4  C3  UNL     1      23.750   3.070  49.392  1.00  0.00     0.054 C 
BRANCH   3   5
HETATM    5  O1  UNL     1      21.824   1.812  49.819  1.00  0.00    -0.353 OA
HETATM    6  C1  UNL     1      21.850   1.351  48.460  1.00  0.00     0.210 C 
ENDBRANCH   3   5
BRANCH   4   7
HETATM    7  C4  UNL     1      24.982   3.844  49.255  1.00  0.00     0.002 A 
HETATM    8  C5  UNL     1      26.271   3.354  49.429  1.00  0.00     0.131 A 
HETATM    9  N1  UNL     1      27.292   4.203  49.245  1.00  0.00    -0.253 NA
HETATM   10  C6  UNL     1      27.093   5.498  48.901  1.00  0.00     0.232 A 
HETATM   11  N2  UNL     1      25.846   6.002  48.725  1.00  0.00    -0.253 NA
HETATM   12  C7  UNL     1      24.780   5.168  48.904  1.00  0.00     0.131 A 
ENDBRANCH   4   7
ENDBRANCH   1   3
BRANCH   1  13
HETATM   13  O2  UNL     1      23.005   3.115  52.676  1.00  0.00    -0.352 OA
HETATM   14  C17 UNL     1      23.678   4.330  52.917  1.00  0.00     0.210 C 
ENDBRANCH   1  13
BRANCH   2  15
HETATM   15  N3  UNL     1      24.823   0.483  52.964  1.00  0.00    -0.358 N 
HETATM   16  C10 UNL     1      24.169  -0.509  53.824  1.00  0.00     0.156 C 
BRANCH  15  17
HETATM   17  C11 UNL     1      26.223   0.684  53.146  1.00  0.00     0.033 A 
HETATM   18  C12 UNL     1      27.139  -0.336  53.213  1.00  0.00     0.029 A 
HETATM   19  C13 UNL     1      28.495  -0.150  53.389  1.00  0.00     0.002 A 
HETATM   20  C14 UNL     1      28.928   1.157  53.501  1.00  0.00     0.000 A 
HETATM   21  C15 UNL     1      28.074   2.246  53.444  1.00  0.00     0.002 A 
HETATM   22  C16 UNL     1      26.735   1.980  53.267  1.00  0.00     0.029 A 
ENDBRANCH  15  17
ENDBRANCH   2  15
TORSDOF 6
ENDMDL
MODEL 8
REMARK VINA RESULT:      -6.5      2.298      6.008
REMARK  6 active torsions:
REMARK  status: ('A' for Active; 'I' for Inactive)
REMARK    1  A    between atoms: O1_2  and  C2_3 
REMARK    2  A    between atoms: C2_3  and  C8_11 
REMARK    3  A    between atoms: C3_4  and  C4_5 
REMARK    4  A    between atoms: C8_11  and  O2_21 
REMARK    5  A    between atoms: C9_12  and  N3_13 
REMARK    6  A    between atoms: N3_13  and  C11_15 
ROOT
HETATM    1  C8  UNL     1      25.202   2.558  51.523  1.00  0.00     0.117 C 
HETATM    2  C9  UNL     1      25.826   1.433  51.815  1.00  0.00     0.130 C 
ENDROOT
BRANCH   1   3
HETATM    3  C2  UNL     1      25.570   3.233  50.284  1.00  0.00     0.103 C 
HETATM    4  C3  UNL     1      24.696   3.620  49.393  1.00  0.00     0.054 C 
BRANCH   3   5
HETATM    5  O1  UNL     1      26.937   3.480  50.051  1.00  0.00    -0.353 OA
HETATM    6  C1  UNL     1      27.201   4.437  49.014  1.00  0.00     0.210 C 
ENDBRANCH   3   5
BRANCH   4   7
HETATM    7  C4  UNL     1      23.266   3.641  49.093  1.00  0.00     0.002 A 
HETATM    8  C5  UNL     1      22.408   4.712  49.314  1.00  0.00     0.131 A 
HETATM    9  N1  UNL     1      21.122   4.565  48.961  1.00  0.00    -0.253 NA
HETATM   10  C6  UNL     1      20.658   3.420  48.407  1.00  0.00     0.232 A 
HETATM   11  N2  UNL     1      21.475   2.360  48.181  1.00  0.00    -0.253 NA
HETATM   12  C7  UNL     1      22.790   2.471  48.527  1.00  0.00     0.131 A 
ENDBRANCH   4   7
ENDBRANCH   1   3
BRANCH   1  13
HETATM   13  O2  UNL     1      24.249   3.000  52.418  1.00  0.00    -0.352 OA
HETATM   14  C17 UNL     1      22.951   2.449  52.453  1.00  0.00     0.210 C 
ENDBRANCH   1  13
BRANCH   2  15
HETATM   15  N3  UNL     1      26.029   0.339  52.678  1.00  0.00    -0.358 N 
HETATM   16  C10 UNL     1      24.930  -0.428  53.276  1.00  0.00     0.156 C 
BRANCH  15  17
HETATM   17  C11 UNL     1      27.358  -0.061  53.003  1.00  0.00     0.033 A 
HETATM   18  C12 UNL     1      28.339   0.808  53.411  1.00  0.00     0.029 A 
HETATM   19  C13 UNL     1      29.627   0.430  53.726  1.00  0.00     0.002 A 
HETATM   20  C14 UNL     1      29.919  -0.916  53.614  1.00  0.00     0.000 A 
HETATM   21  C15 UNL     1      28.992  -1.862  53.211  1.00  0.00     0.002 A 
HETATM   22  C16 UNL     1      27.727  -1.407  52.913  1.00  0.00     0.029 A 
ENDBRANCH  15  17
ENDBRANCH   2  15
TORSDOF 6
ENDMDL
MODEL 9
REMARK VINA RESULT:      -6.3      1.613      2.055
REMARK  6 active torsions:
REMARK  status: ('A' for Active; 'I' for Inactive)
REMARK    1  A    between atoms: O1_2  and  C2_3 
REMARK    2  A    between atoms: C2_3  and  C8_11 
REMARK    3  A    between atoms: C3_4  and  C4_5 
REMARK    4  A    between atoms: C8_11  and  O2_21 
REMARK    5  A    between atoms: C9_12  and  N3_13 
REMARK    6  A    between atoms: N3_13  and  C11_15 
ROOT
HETATM    1  C8  UNL     1      23.143   2.908  50.837  1.00  0.00     0.117 C 
HETATM    2  C9  UNL     1      22.458   2.554  51.907  1.00  0.00     0.130 C 
ENDROOT
BRANCH   1   3
HETATM    3  C2  UNL     1      24.404   3.610  51.044  1.00  0.00     0.103 C 
HETATM    4  C3  UNL     1      25.407   3.098  51.707  1.00  0.00     0.054 C 
BRANCH   3   5
HETATM    5  O1  UNL     1      24.537   4.899  50.492  1.00  0.00    -0.353 OA
HETATM    6  C1  UNL     1      23.953   5.947  51.280  1.00  0.00     0.210 C 
ENDBRANCH   3   5
BRANCH   4   7
HETATM    7  C4  UNL     1      25.834   1.914  52.449  1.00  0.00     0.002 A 
HETATM    8  C5  UNL     1      26.057   0.654  51.905  1.00  0.00     0.131 A 
HETATM    9  N1  UNL     1      26.464  -0.319  52.733  1.00  0.00    -0.253 NA
HETATM   10  C6  UNL     1      26.659  -0.101  54.055  1.00  0.00     0.232 A 
HETATM   11  N2  UNL     1      26.449   1.119  54.610  1.00  0.00    -0.253 NA
HETATM   12  C7  UNL     1      26.032   2.136  53.801  1.00  0.00     0.131 A 
ENDBRANCH   4   7
ENDBRANCH   1   3
BRANCH   1  13
HETATM   13  O2  UNL     1      22.605   2.580  49.608  1.00  0.00    -0.352 OA
HETATM   14  C17 UNL     1      22.003   1.327  49.372  1.00  0.00     0.210 C 
ENDBRANCH   1  13
BRANCH   2  15
HETATM   15  N3  UNL     1      21.329   1.942  52.486  1.00  0.00    -0.358 N 
HETATM   16  C10 UNL     1      19.981   2.517  52.422  1.00  0.00     0.156 C 
BRANCH  15  17
HETATM   17  C11 UNL     1      21.479   0.704  53.174  1.00  0.00     0.033 A 
HETATM   18  C12 UNL     1      20.437  -0.139  53.470  1.00  0.00     0.029 A 
HETATM   19  C13 UNL     1      20.574  -1.339  54.135  1.00  0.00     0.002 A 
HETATM   20  C14 UNL     1      21.855  -1.689  54.516  1.00  0.00     0.000 A 
HETATM   21  C15 UNL     1      22.964  -0.901  54.259  1.00  0.00     0.002 A 
HETATM   22  C16 UNL     1      22.747   0.282  53.591  1.00  0.00     0.029 A 
ENDBRANCH  15  17
ENDBRANCH   2  15
TORSDOF 6
ENDMDL
