MODEL 1
REMARK VINA RESULT:      -8.4      0.000      0.000
REMARK  6 active torsions:
REMARK  status: ('A' for Active; 'I' for Inactive)
REMARK    1  A    between atoms: C9_12  and  C10_13 
REMARK    2  A    between atoms: C11_14  and  N3_15 
REMARK    3  A    between atoms: N3_15  and  C12_16 
REMARK    4  A    between atoms: C12_16  and  C13_17 
REMARK    5  A    between atoms: C14_18  and  C15_19 
REMARK    6  A    between atoms: C15_19  and  N4_20 
ROOT
HETATM    1  F1  UNL     1      20.176  -0.144  52.005  1.00  0.00    -0.205 F 
HETATM    2  C1  UNL     1      21.455   0.227  52.225  1.00  0.00     0.134 A 
HETATM    3  C2  UNL     1      22.040   0.923  51.287  1.00  0.00     0.022 A 
HETATM    4  C3  UNL     1      23.425   1.489  51.205  1.00  0.00     0.070 A 
HETATM    5  C4  UNL     1      24.225   1.181  52.404  1.00  0.00    -0.039 A 
HETATM    6  C5  UNL     1      25.457   1.480  52.713  1.00  0.00     0.017 A 
HETATM    7  C6  UNL     1      26.057   1.113  53.887  1.00  0.00     0.132 A 
HETATM    8  N1  UNL     1      27.324   1.416  54.195  1.00  0.00    -0.253 NA
HETATM    9  C7  UNL     1      28.099   2.114  53.353  1.00  0.00     0.233 A 
HETATM   10  N2  UNL     1      27.545   2.490  52.197  1.00  0.00    -0.241 NA
HETATM   11  C8  UNL     1      26.275   2.182  51.898  1.00  0.00     0.070 A 
HETATM   12  C9  UNL     1      25.890   2.636  50.734  1.00  0.00     0.034 C 
HETATM   13  C20 UNL     1      23.524   0.412  53.405  1.00  0.00     0.035 A 
HETATM   14  C21 UNL     1      22.287  -0.042  53.379  1.00  0.00     0.072 A 
HETATM   15 CL1  UNL     1      21.480  -0.972  54.615  1.00  0.00    -0.081 Cl
ENDROOT
BRANCH  12  16
HETATM   16  C10 UNL     1      26.779   3.405  49.840  1.00  0.00     0.019 C 
HETATM   17  C11 UNL     1      26.737   4.560  49.218  1.00  0.00     0.084 C 
BRANCH  17  18
HETATM   18  N3  UNL     1      27.799   4.994  48.421  1.00  0.00    -0.389 N 
HETATM   19  H9  UNL     1      28.537   4.417  47.942  1.00  0.00     0.159 HD
BRANCH  18  20
HETATM   20  C12 UNL     1      27.805   6.442  48.292  1.00  0.00     0.213 C 
BRANCH  20  21
HETATM   21  C13 UNL     1      26.595   7.005  48.916  1.00  0.00    -0.085 C 
HETATM   22  C14 UNL     1      25.602   7.470  49.408  1.00  0.00    -0.086 C 
BRANCH  22  23
HETATM   23  C15 UNL     1      24.399   8.035  49.986  1.00  0.00     0.211 C 
BRANCH  23  24
HETATM   24  N4  UNL     1      23.484   7.101  50.531  1.00  0.00    -0.399 N 
HETATM   25  C16 UNL     1      23.959   6.266  51.582  1.00  0.00     0.144 C 
HETATM   26  C17 UNL     1      23.090   5.026  51.635  1.00  0.00     0.187 C 
HETATM   27  O1  UNL     1      22.082   5.045  50.653  1.00  0.00    -0.388 OA
HETATM   28  C18 UNL     1      21.309   6.196  50.759  1.00  0.00     0.187 C 
HETATM   29  C19 UNL     1      22.114   7.467  50.581  1.00  0.00     0.144 C 
ENDBRANCH  23  24
ENDBRANCH  22  23
ENDBRANCH  20  21
ENDBRANCH  18  20
ENDBRANCH  17  18
ENDBRANCH  12  16
TORSDOF 6
ENDMDL
MODEL 2
REMARK VINA RESULT:      -8.4      3.469      5.532
REMARK  6 active torsions:
REMARK  status: ('A' for Active; 'I' for Inactive)
REMARK    1  A    between atoms: C9_12  and  C10_13 
REMARK    2  A    between atoms: C11_14  and  N3_15 
REMARK    3  A    between atoms: N3_15  and  C12_16 
REMARK    4  A    between atoms: C12_16  and  C13_17 
REMARK    5  A    between atoms: C14_18  and  C15_19 
REMARK    6  A    between atoms: C15_19  and  N4_20 
ROOT
HETATM    1  F1  UNL     1      20.178  -0.214  51.984  1.00  0.00    -0.205 F 
HETATM    2  C1  UNL     1      21.454   0.153  52.224  1.00  0.00     0.134 A 
HETATM    3  C2  UNL     1      22.046   0.874  51.310  1.00  0.00     0.022 A 
HETATM    4  C3  UNL     1      23.430   1.443  51.254  1.00  0.00     0.070 A 
HETATM    5  C4  UNL     1      24.221   1.105  52.451  1.00  0.00    -0.039 A 
HETATM    6  C5  UNL     1      25.449   1.397  52.777  1.00  0.00     0.017 A 
HETATM    7  C6  UNL     1      26.041   1.000  53.946  1.00  0.00     0.132 A 
HETATM    8  N1  UNL     1      27.305   1.297  54.273  1.00  0.00    -0.253 NA
HETATM    9  C7  UNL     1      28.086   2.018  53.455  1.00  0.00     0.233 A 
HETATM   10  N2  UNL     1      27.541   2.423  52.305  1.00  0.00    -0.241 NA
HETATM   11  C8  UNL     1      26.274   2.121  51.988  1.00  0.00     0.070 A 
HETATM   12  C9  UNL     1      25.897   2.605  50.833  1.00  0.00     0.034 C 
HETATM   13  C20 UNL     1      23.513   0.309  53.425  1.00  0.00     0.035 A 
HETATM   14  C21 UNL     1      22.276  -0.146  53.377  1.00  0.00     0.072 A 
HETATM   15 CL1  UNL     1      21.461  -1.109  54.583  1.00  0.00    -0.081 Cl
ENDROOT
BRANCH  12  16
HETATM   16  C10 UNL     1      26.792   3.399  49.966  1.00  0.00     0.019 C 
HETATM   17  C11 UNL     1      26.735   4.548  49.336  1.00  0.00     0.084 C 
BRANCH  17  18
HETATM   18  N3  UNL     1      27.810   5.013  48.575  1.00  0.00    -0.389 N 
HETATM   19  H9  UNL     1      28.638   4.473  48.212  1.00  0.00     0.159 HD
BRANCH  18  20
HETATM   20  C12 UNL     1      27.685   6.434  48.297  1.00  0.00     0.213 C 
BRANCH  20  21
HETATM   21  C13 UNL     1      29.021   7.046  48.208  1.00  0.00    -0.085 C 
HETATM   22  C14 UNL     1      30.118   7.532  48.124  1.00  0.00    -0.086 C 
BRANCH  22  23
HETATM   23  C15 UNL     1      31.444   8.105  48.014  1.00  0.00     0.211 C 
BRANCH  23  24
HETATM   24  N4  UNL     1      32.509   7.175  47.922  1.00  0.00    -0.399 N 
HETATM   25  C16 UNL     1      32.467   6.247  46.842  1.00  0.00     0.144 C 
HETATM   26  C17 UNL     1      33.311   5.045  47.214  1.00  0.00     0.187 C 
HETATM   27  O1  UNL     1      33.884   5.177  48.492  1.00  0.00    -0.388 OA
HETATM   28  C18 UNL     1      34.626   6.350  48.584  1.00  0.00     0.187 C 
HETATM   29  C19 UNL     1      33.794   7.594  48.348  1.00  0.00     0.144 C 
ENDBRANCH  23  24
ENDBRANCH  22  23
ENDBRANCH  20  21
ENDBRANCH  18  20
ENDBRANCH  17  18
ENDBRANCH  12  16
TORSDOF 6
ENDMDL
MODEL 3
REMARK VINA RESULT:      -8.0      3.434      5.596
REMARK  6 active torsions:
REMARK  status: ('A' for Active; 'I' for Inactive)
REMARK    1  A    between atoms: C9_12  and  C10_13 
REMARK    2  A    between atoms: C11_14  and  N3_15 
REMARK    3  A    between atoms: N3_15  and  C12_16 
REMARK    4  A    between atoms: C12_16  and  C13_17 
REMARK    5  A    between atoms: C14_18  and  C15_19 
REMARK    6  A    between atoms: C15_19  and  N4_20 
ROOT
HETATM    1  F1  UNL     1      28.563   1.756  52.743  1.00  0.00    -0.205 F 
HETATM    2  C1  UNL     1      27.350   1.226  53.006  1.00  0.00     0.134 A 
HETATM    3  C2  UNL     1      26.392   1.490  52.159  1.00  0.00     0.022 A 
HETATM    4  C3  UNL     1      24.954   1.071  52.143  1.00  0.00     0.070 A 
HETATM    5  C4  UNL     1      24.607   0.223  53.298  1.00  0.00    -0.039 A 
HETATM    6  C5  UNL     1      23.479  -0.329  53.648  1.00  0.00     0.017 A 
HETATM    7  C6  UNL     1      23.325  -1.101  54.768  1.00  0.00     0.132 A 
HETATM    8  N1  UNL     1      22.162  -1.659  55.127  1.00  0.00    -0.253 NA
HETATM    9  C7  UNL     1      21.052  -1.492  54.393  1.00  0.00     0.233 A 
HETATM   10  N2  UNL     1      21.166  -0.745  53.293  1.00  0.00    -0.241 NA
HETATM   11  C8  UNL     1      22.335  -0.191  52.942  1.00  0.00     0.070 A 
HETATM   12  C9  UNL     1      22.272   0.499  51.832  1.00  0.00     0.034 C 
HETATM   13  C20 UNL     1      25.707  -0.035  54.197  1.00  0.00     0.035 A 
HETATM   14  C21 UNL     1      26.954   0.387  54.117  1.00  0.00     0.072 A 
HETATM   15 CL1  UNL     1      28.253   0.050  55.233  1.00  0.00    -0.081 Cl
ENDROOT
BRANCH  12  16
HETATM   16  C10 UNL     1      21.026   0.652  51.054  1.00  0.00     0.019 C 
HETATM   17  C11 UNL     1      20.676   1.200  49.914  1.00  0.00     0.084 C 
BRANCH  17  18
HETATM   18  N3  UNL     1      19.355   1.157  49.464  1.00  0.00    -0.389 N 
HETATM   19  H9  UNL     1      18.928   0.515  48.747  1.00  0.00     0.159 HD
BRANCH  18  20
HETATM   20  C12 UNL     1      18.539   2.162  50.124  1.00  0.00     0.213 C 
BRANCH  20  21
HETATM   21  C13 UNL     1      19.279   3.433  50.206  1.00  0.00    -0.085 C 
HETATM   22  C14 UNL     1      19.898   4.462  50.265  1.00  0.00    -0.086 C 
BRANCH  22  23
HETATM   23  C15 UNL     1      20.656   5.695  50.328  1.00  0.00     0.211 C 
BRANCH  23  24
HETATM   24  N4  UNL     1      21.939   5.596  50.921  1.00  0.00    -0.399 N 
HETATM   25  C16 UNL     1      22.823   6.697  50.740  1.00  0.00     0.144 C 
HETATM   26  C17 UNL     1      24.244   6.204  50.928  1.00  0.00     0.187 C 
HETATM   27  O1  UNL     1      24.291   4.828  51.220  1.00  0.00    -0.388 OA
HETATM   28  C18 UNL     1      23.512   4.531  52.334  1.00  0.00     0.187 C 
HETATM   29  C19 UNL     1      22.052   4.887  52.144  1.00  0.00     0.144 C 
ENDBRANCH  23  24
ENDBRANCH  22  23
ENDBRANCH  20  21
ENDBRANCH  18  20
ENDBRANCH  17  18
ENDBRANCH  12  16
TORSDOF 6
ENDMDL
MODEL 4
REMARK VINA RESULT:      -7.8      6.136      8.943
REMARK  6 active torsions:
REMARK  status: ('A' for Active; 'I' for Inactive)
REMARK    1  A    between atoms: C9_12  and  C10_13 
REMARK    2  A    between atoms: C11_14  and  N3_15 
REMARK    3  A    between atoms: N3_15  and  C12_16 
REMARK    4  A    between atoms: C12_16  and  C13_17 
REMARK    5  A    between atoms: C14_18  and  C15_19 
REMARK    6  A    between atoms: C15_19  and  N4_20 
ROOT
HETATM    1  F1  UNL     1      27.195  -0.973  53.084  1.00  0.00    -0.205 F 
HETATM    2  C1  UNL     1      26.063  -0.251  52.941  1.00  0.00     0.134 A 
HETATM    3  C2  UNL     1      24.933  -0.877  53.135  1.00  0.00     0.022 A 
HETATM    4  C3  UNL     1      23.518  -0.391  53.060  1.00  0.00     0.070 A 
HETATM    5  C4  UNL     1      23.436   1.037  52.703  1.00  0.00    -0.039 A 
HETATM    6  C5  UNL     1      22.408   1.820  52.532  1.00  0.00     0.017 A 
HETATM    7  C6  UNL     1      22.508   3.144  52.198  1.00  0.00     0.132 A 
HETATM    8  N1  UNL     1      21.448   3.942  52.016  1.00  0.00    -0.253 NA
HETATM    9  C7  UNL     1      20.196   3.482  52.154  1.00  0.00     0.233 A 
HETATM   10  N2  UNL     1      20.062   2.194  52.481  1.00  0.00    -0.241 NA
HETATM   11  C8  UNL     1      21.129   1.404  52.661  1.00  0.00     0.070 A 
HETATM   12  C9  UNL     1      20.818   0.176  52.988  1.00  0.00     0.034 C 
HETATM   13  C20 UNL     1      24.717   1.673  52.504  1.00  0.00     0.035 A 
HETATM   14  C21 UNL     1      25.922   1.147  52.596  1.00  0.00     0.072 A 
HETATM   15 CL1  UNL     1      27.447   1.958  52.343  1.00  0.00    -0.081 Cl
ENDROOT
BRANCH  12  16
HETATM   16  C10 UNL     1      19.423  -0.286  53.133  1.00  0.00     0.019 C 
HETATM   17  C11 UNL     1      18.813  -1.332  53.638  1.00  0.00     0.084 C 
BRANCH  17  18
HETATM   18  N3  UNL     1      17.421  -1.448  53.603  1.00  0.00    -0.389 N 
HETATM   19  H9  UNL     1      16.793  -1.983  54.256  1.00  0.00     0.159 HD
BRANCH  18  20
HETATM   20  C12 UNL     1      16.857  -0.703  52.491  1.00  0.00     0.213 C 
BRANCH  20  21
HETATM   21  C13 UNL     1      15.541  -0.160  52.868  1.00  0.00    -0.085 C 
HETATM   22  C14 UNL     1      14.459   0.265  53.175  1.00  0.00    -0.086 C 
BRANCH  22  23
HETATM   23  C15 UNL     1      13.150   0.763  53.546  1.00  0.00     0.211 C 
BRANCH  23  24
HETATM   24  N4  UNL     1      13.006   2.172  53.544  1.00  0.00    -0.399 N 
HETATM   25  C16 UNL     1      13.411   2.864  52.367  1.00  0.00     0.144 C 
HETATM   26  C17 UNL     1      13.713   4.302  52.739  1.00  0.00     0.187 C 
HETATM   27  O1  UNL     1      13.516   4.545  54.111  1.00  0.00    -0.388 OA
HETATM   28  C18 UNL     1      12.225   4.194  54.496  1.00  0.00     0.187 C 
HETATM   29  C19 UNL     1      11.919   2.729  54.264  1.00  0.00     0.144 C 
ENDBRANCH  23  24
ENDBRANCH  22  23
ENDBRANCH  20  21
ENDBRANCH  18  20
ENDBRANCH  17  18
ENDBRANCH  12  16
TORSDOF 6
ENDMDL
MODEL 5
REMARK VINA RESULT:      -7.8      5.902      8.769
REMARK  6 active torsions:
REMARK  status: ('A' for Active; 'I' for Inactive)
REMARK    1  A    between atoms: C9_12  and  C10_13 
REMARK    2  A    between atoms: C11_14  and  N3_15 
REMARK    3  A    between atoms: N3_15  and  C12_16 
REMARK    4  A    between atoms: C12_16  and  C13_17 
REMARK    5  A    between atoms: C14_18  and  C15_19 
REMARK    6  A    between atoms: C15_19  and  N4_20 
ROOT
HETATM    1  F1  UNL     1      28.499  -0.306  54.543  1.00  0.00    -0.205 F 
HETATM    2  C1  UNL     1      27.367   0.310  54.141  1.00  0.00     0.134 A 
HETATM    3  C2  UNL     1      26.257  -0.374  54.228  1.00  0.00     0.022 A 
HETATM    4  C3  UNL     1      24.848  -0.006  53.877  1.00  0.00     0.070 A 
HETATM    5  C4  UNL     1      24.745   1.366  53.348  1.00  0.00    -0.039 A 
HETATM    6  C5  UNL     1      23.716   2.048  52.928  1.00  0.00     0.017 A 
HETATM    7  C6  UNL     1      23.794   3.332  52.461  1.00  0.00     0.132 A 
HETATM    8  N1  UNL     1      22.734   4.025  52.024  1.00  0.00    -0.253 NA
HETATM    9  C7  UNL     1      21.505   3.490  52.018  1.00  0.00     0.233 A 
HETATM   10  N2  UNL     1      21.392   2.237  52.468  1.00  0.00    -0.241 NA
HETATM   11  C8  UNL     1      22.459   1.552  52.904  1.00  0.00     0.070 A 
HETATM   12  C9  UNL     1      22.169   0.347  53.319  1.00  0.00     0.034 C 
HETATM   13  C20 UNL     1      26.003   2.071  53.278  1.00  0.00     0.035 A 
HETATM   14  C21 UNL     1      27.205   1.650  53.617  1.00  0.00     0.072 A 
HETATM   15 CL1  UNL     1      28.702   2.541  53.513  1.00  0.00    -0.081 Cl
ENDROOT
BRANCH  12  16
HETATM   16  C10 UNL     1      20.797  -0.200  53.297  1.00  0.00     0.019 C 
HETATM   17  C11 UNL     1      20.140  -1.151  53.918  1.00  0.00     0.084 C 
BRANCH  17  18
HETATM   18  N3  UNL     1      18.796  -1.406  53.640  1.00  0.00    -0.389 N 
HETATM   19  H9  UNL     1      18.126  -2.030  54.160  1.00  0.00     0.159 HD
BRANCH  18  20
HETATM   20  C12 UNL     1      18.351  -0.674  52.466  1.00  0.00     0.213 C 
BRANCH  20  21
HETATM   21  C13 UNL     1      16.881  -0.583  52.459  1.00  0.00    -0.085 C 
HETATM   22  C14 UNL     1      15.681  -0.521  52.439  1.00  0.00    -0.086 C 
BRANCH  22  23
HETATM   23  C15 UNL     1      14.234  -0.458  52.404  1.00  0.00     0.211 C 
BRANCH  23  24
HETATM   24  N4  UNL     1      13.655   0.687  53.004  1.00  0.00    -0.399 N 
HETATM   25  C16 UNL     1      12.883   0.483  54.183  1.00  0.00     0.144 C 
HETATM   26  C17 UNL     1      11.930   1.650  54.337  1.00  0.00     0.187 C 
HETATM   27  O1  UNL     1      12.069   2.587  53.296  1.00  0.00    -0.388 OA
HETATM   28  C18 UNL     1      13.385   3.031  53.202  1.00  0.00     0.187 C 
HETATM   29  C19 UNL     1      14.365   1.912  52.915  1.00  0.00     0.144 C 
ENDBRANCH  23  24
ENDBRANCH  22  23
ENDBRANCH  20  21
ENDBRANCH  18  20
ENDBRANCH  17  18
ENDBRANCH  12  16
TORSDOF 6
ENDMDL
MODEL 6
REMARK VINA RESULT:      -7.7      5.884      8.016
REMARK  6 active torsions:
REMARK  status: ('A' for Active; 'I' for Inactive)
REMARK    1  A    between atoms: C9_12  and  C10_13 
REMARK    2  A    between atoms: C11_14  and  N3_15 
REMARK    3  A    between atoms: N3_15  and  C12_16 
REMARK    4  A    between atoms: C12_16  and  C13_17 
REMARK    5  A    between atoms: C14_18  and  C15_19 
REMARK    6  A    between atoms: C15_19  and  N4_20 
ROOT
HETATM    1  F1  UNL     1      27.969   2.176  52.462  1.00  0.00    -0.205 F 
HETATM    2  C1  UNL     1      26.802   1.562  52.750  1.00  0.00     0.134 A 
HETATM    3  C2  UNL     1      25.812   1.751  51.919  1.00  0.00     0.022 A 
HETATM    4  C3  UNL     1      24.408   1.230  51.932  1.00  0.00     0.070 A 
HETATM    5  C4  UNL     1      24.144   0.367  53.097  1.00  0.00    -0.039 A 
HETATM    6  C5  UNL     1      23.064  -0.261  53.472  1.00  0.00     0.017 A 
HETATM    7  C6  UNL     1      22.987  -1.034  54.599  1.00  0.00     0.132 A 
HETATM    8  N1  UNL     1      21.873  -1.672  54.982  1.00  0.00    -0.253 NA
HETATM    9  C7  UNL     1      20.741  -1.590  54.268  1.00  0.00     0.233 A 
HETATM   10  N2  UNL     1      20.781  -0.844  53.161  1.00  0.00    -0.241 NA
HETATM   11  C8  UNL     1      21.901  -0.210  52.785  1.00  0.00     0.070 A 
HETATM   12  C9  UNL     1      21.769   0.465  51.673  1.00  0.00     0.034 C 
HETATM   13  C20 UNL     1      25.275   0.196  53.978  1.00  0.00     0.035 A 
HETATM   14  C21 UNL     1      26.487   0.706  53.873  1.00  0.00     0.072 A 
HETATM   15 CL1  UNL     1      27.827   0.470  54.966  1.00  0.00    -0.081 Cl
ENDROOT
BRANCH  12  16
HETATM   16  C10 UNL     1      20.502   0.523  50.917  1.00  0.00     0.019 C 
HETATM   17  C11 UNL     1      19.613   1.440  50.617  1.00  0.00     0.084 C 
BRANCH  17  18
HETATM   18  N3  UNL     1      18.485   1.135  49.851  1.00  0.00    -0.389 N 
HETATM   19  H9  UNL     1      18.359   1.221  48.810  1.00  0.00     0.159 HD
BRANCH  18  20
HETATM   20  C12 UNL     1      17.399   0.646  50.682  1.00  0.00     0.213 C 
BRANCH  20  21
HETATM   21  C13 UNL     1      16.687   1.780  51.296  1.00  0.00    -0.085 C 
HETATM   22  C14 UNL     1      16.120   2.706  51.811  1.00  0.00    -0.086 C 
BRANCH  22  23
HETATM   23  C15 UNL     1      15.448   3.824  52.442  1.00  0.00     0.211 C 
BRANCH  23  24
HETATM   24  N4  UNL     1      14.094   3.605  52.795  1.00  0.00    -0.399 N 
HETATM   25  C16 UNL     1      13.529   4.476  53.770  1.00  0.00     0.144 C 
HETATM   26  C17 UNL     1      12.344   3.777  54.404  1.00  0.00     0.187 C 
HETATM   27  O1  UNL     1      12.138   2.493  53.866  1.00  0.00    -0.388 OA
HETATM   28  C18 UNL     1      11.997   2.552  52.483  1.00  0.00     0.187 C 
HETATM   29  C19 UNL     1      13.216   3.125  51.790  1.00  0.00     0.144 C 
ENDBRANCH  23  24
ENDBRANCH  22  23
ENDBRANCH  20  21
ENDBRANCH  18  20
ENDBRANCH  17  18
ENDBRANCH  12  16
TORSDOF 6
ENDMDL
MODEL 7
REMARK VINA RESULT:      -7.7      2.528      4.075
REMARK  6 active torsions:
REMARK  status: ('A' for Active; 'I' for Inactive)
REMARK    1  A    between atoms: C9_12  and  C10_13 
REMARK    2  A    between atoms: C11_14  and  N3_15 
REMARK    3  A    between atoms: N3_15  and  C12_16 
REMARK    4  A    between atoms: C12_16  and  C13_17 
REMARK    5  A    between atoms: C14_18  and  C15_19 
REMARK    6  A    between atoms: C15_19  and  N4_20 
ROOT
HETATM    1  F1  UNL     1      20.638  -1.722  54.530  1.00  0.00    -0.205 F 
HETATM    2  C1  UNL     1      21.578  -0.955  53.937  1.00  0.00     0.134 A 
HETATM    3  C2  UNL     1      21.218  -0.296  52.869  1.00  0.00     0.022 A 
HETATM    4  C3  UNL     1      21.991   0.630  51.981  1.00  0.00     0.070 A 
HETATM    5  C4  UNL     1      23.387   0.793  52.425  1.00  0.00    -0.039 A 
HETATM    6  C5  UNL     1      24.369   1.493  51.929  1.00  0.00     0.017 A 
HETATM    7  C6  UNL     1      25.624   1.536  52.473  1.00  0.00     0.132 A 
HETATM    8  N1  UNL     1      26.630   2.251  51.954  1.00  0.00    -0.253 NA
HETATM    9  C7  UNL     1      26.465   2.986  50.845  1.00  0.00     0.233 A 
HETATM   10  N2  UNL     1      25.251   2.968  50.287  1.00  0.00    -0.241 NA
HETATM   11  C8  UNL     1      24.250   2.249  50.815  1.00  0.00     0.070 A 
HETATM   12  C9  UNL     1      23.128   2.354  50.151  1.00  0.00     0.034 C 
HETATM   13  C20 UNL     1      23.724   0.042  53.611  1.00  0.00     0.035 A 
HETATM   14  C21 UNL     1      22.957  -0.756  54.328  1.00  0.00     0.072 A 
HETATM   15 CL1  UNL     1      23.411  -1.647  55.758  1.00  0.00    -0.081 Cl
ENDROOT
BRANCH  12  16
HETATM   16  C10 UNL     1      22.992   3.180  48.934  1.00  0.00     0.019 C 
HETATM   17  C11 UNL     1      22.230   4.172  48.537  1.00  0.00     0.084 C 
BRANCH  17  18
HETATM   18  N3  UNL     1      22.379   4.739  47.269  1.00  0.00    -0.389 N 
HETATM   19  H9  UNL     1      22.316   4.269  46.330  1.00  0.00     0.159 HD
BRANCH  18  20
HETATM   20  C12 UNL     1      22.655   6.163  47.357  1.00  0.00     0.213 C 
BRANCH  20  21
HETATM   21  C13 UNL     1      23.931   6.384  48.057  1.00  0.00    -0.085 C 
HETATM   22  C14 UNL     1      24.968   6.552  48.643  1.00  0.00    -0.086 C 
BRANCH  22  23
HETATM   23  C15 UNL     1      26.213   6.745  49.359  1.00  0.00     0.211 C 
BRANCH  23  24
HETATM   24  N4  UNL     1      27.390   6.660  48.576  1.00  0.00    -0.399 N 
HETATM   25  C16 UNL     1      28.004   5.380  48.464  1.00  0.00     0.144 C 
HETATM   26  C17 UNL     1      29.462   5.581  48.103  1.00  0.00     0.187 C 
HETATM   27  O1  UNL     1      29.795   6.943  47.985  1.00  0.00    -0.388 OA
HETATM   28  C18 UNL     1      28.965   7.577  47.065  1.00  0.00     0.187 C 
HETATM   29  C19 UNL     1      27.502   7.518  47.451  1.00  0.00     0.144 C 
ENDBRANCH  23  24
ENDBRANCH  22  23
ENDBRANCH  20  21
ENDBRANCH  18  20
ENDBRANCH  17  18
ENDBRANCH  12  16
TORSDOF 6
ENDMDL
MODEL 8
REMARK VINA RESULT:      -7.7      4.473      7.059
REMARK  6 active torsions:
REMARK  status: ('A' for Active; 'I' for Inactive)
REMARK    1  A    between atoms: C9_12  and  C10_13 
REMARK    2  A    between atoms: C11_14  and  N3_15 
REMARK    3  A    between atoms: N3_15  and  C12_16 
REMARK    4  A    between atoms: C12_16  and  C13_17 
REMARK    5  A    between atoms: C14_18  and  C15_19 
REMARK    6  A    between atoms: C15_19  and  N4_20 
ROOT
HETATM    1  F1  UNL     1      26.495  -0.774  53.810  1.00  0.00    -0.205 F 
HETATM    2  C1  UNL     1      25.963   0.146  52.978  1.00  0.00     0.134 A 
HETATM    3  C2  UNL     1      26.796   0.948  52.371  1.00  0.00     0.022 A 
HETATM    4  C3  UNL     1      26.553   2.062  51.400  1.00  0.00     0.070 A 
HETATM    5  C4  UNL     1      25.120   2.248  51.112  1.00  0.00    -0.039 A 
HETATM    6  C5  UNL     1      24.504   3.101  50.341  1.00  0.00     0.017 A 
HETATM    7  C6  UNL     1      23.144   3.140  50.184  1.00  0.00     0.132 A 
HETATM    8  N1  UNL     1      22.517   4.022  49.396  1.00  0.00    -0.253 NA
HETATM    9  C7  UNL     1      23.198   4.942  48.698  1.00  0.00     0.233 A 
HETATM   10  N2  UNL     1      24.527   4.933  48.828  1.00  0.00    -0.241 NA
HETATM   11  C8  UNL     1      25.146   4.045  49.618  1.00  0.00     0.070 A 
HETATM   12  C9  UNL     1      26.448   4.168  49.621  1.00  0.00     0.034 C 
HETATM   13  C20 UNL     1      24.250   1.332  51.811  1.00  0.00     0.035 A 
HETATM   14  C21 UNL     1      24.570   0.373  52.657  1.00  0.00     0.072 A 
HETATM   15 CL1  UNL     1      23.480  -0.713  53.481  1.00  0.00    -0.081 Cl
ENDROOT
BRANCH  12  16
HETATM   16  C10 UNL     1      27.156   5.196  48.831  1.00  0.00     0.019 C 
HETATM   17  C11 UNL     1      28.382   5.395  48.407  1.00  0.00     0.084 C 
BRANCH  17  18
HETATM   18  N3  UNL     1      28.716   6.521  47.652  1.00  0.00    -0.389 N 
HETATM   19  H9  UNL     1      28.474   6.732  46.649  1.00  0.00     0.159 HD
BRANCH  18  20
HETATM   20  C12 UNL     1      29.495   7.468  48.431  1.00  0.00     0.213 C 
BRANCH  20  21
HETATM   21  C13 UNL     1      30.933   7.232  48.214  1.00  0.00    -0.085 C 
HETATM   22  C14 UNL     1      32.108   7.057  48.030  1.00  0.00    -0.086 C 
BRANCH  22  23
HETATM   23  C15 UNL     1      33.526   6.861  47.805  1.00  0.00     0.211 C 
BRANCH  23  24
HETATM   24  N4  UNL     1      33.910   5.554  47.415  1.00  0.00    -0.399 N 
HETATM   25  C16 UNL     1      34.027   5.302  46.019  1.00  0.00     0.144 C 
HETATM   26  C17 UNL     1      33.884   3.811  45.790  1.00  0.00     0.187 C 
HETATM   27  O1  UNL     1      33.678   3.110  46.992  1.00  0.00    -0.388 OA
HETATM   28  C18 UNL     1      34.697   3.376  47.902  1.00  0.00     0.187 C 
HETATM   29  C19 UNL     1      34.796   4.843  48.265  1.00  0.00     0.144 C 
ENDBRANCH  23  24
ENDBRANCH  22  23
ENDBRANCH  20  21
ENDBRANCH  18  20
ENDBRANCH  17  18
ENDBRANCH  12  16
TORSDOF 6
ENDMDL
MODEL 9
REMARK VINA RESULT:      -7.6      4.351      6.739
REMARK  6 active torsions:
REMARK  status: ('A' for Active; 'I' for Inactive)
REMARK    1  A    between atoms: C9_12  and  C10_13 
REMARK    2  A    between atoms: C11_14  and  N3_15 
REMARK    3  A    between atoms: N3_15  and  C12_16 
REMARK    4  A    between atoms: C12_16  and  C13_17 
REMARK    5  A    between atoms: C14_18  and  C15_19 
REMARK    6  A    between atoms: C15_19  and  N4_20 
ROOT
HETATM    1  F1  UNL     1      26.643  -1.845  53.285  1.00  0.00    -0.205 F 
HETATM    2  C1  UNL     1      26.078  -0.663  52.962  1.00  0.00     0.134 A 
HETATM    3  C2  UNL     1      26.650   0.029  52.014  1.00  0.00     0.022 A 
HETATM    4  C3  UNL     1      26.294   1.355  51.416  1.00  0.00     0.070 A 
HETATM    5  C4  UNL     1      25.091   1.941  52.035  1.00  0.00    -0.039 A 
HETATM    6  C5  UNL     1      24.472   3.066  51.808  1.00  0.00     0.017 A 
HETATM    7  C6  UNL     1      23.349   3.465  52.482  1.00  0.00     0.132 A 
HETATM    8  N1  UNL     1      22.721   4.625  52.250  1.00  0.00    -0.253 NA
HETATM    9  C7  UNL     1      23.165   5.485  51.322  1.00  0.00     0.233 A 
HETATM   10  N2  UNL     1      24.259   5.128  50.645  1.00  0.00    -0.241 NA
HETATM   11  C8  UNL     1      24.880   3.964  50.884  1.00  0.00     0.070 A 
HETATM   12  C9  UNL     1      25.926   3.766  50.125  1.00  0.00     0.034 C 
HETATM   13  C20 UNL     1      24.503   1.129  53.074  1.00  0.00     0.035 A 
HETATM   14  C21 UNL     1      24.900  -0.042  53.531  1.00  0.00     0.072 A 
HETATM   15 CL1  UNL     1      24.156  -0.988  54.794  1.00  0.00    -0.081 Cl
ENDROOT
BRANCH  12  16
HETATM   16  C10 UNL     1      26.377   4.742  49.112  1.00  0.00     0.019 C 
HETATM   17  C11 UNL     1      27.394   5.556  48.959  1.00  0.00     0.084 C 
BRANCH  17  18
HETATM   18  N3  UNL     1      27.509   6.371  47.831  1.00  0.00    -0.389 N 
HETATM   19  H9  UNL     1      26.887   6.406  46.982  1.00  0.00     0.159 HD
BRANCH  18  20
HETATM   20  C12 UNL     1      28.662   7.250  47.929  1.00  0.00     0.213 C 
BRANCH  20  21
HETATM   21  C13 UNL     1      29.902   6.457  47.873  1.00  0.00    -0.085 C 
HETATM   22  C14 UNL     1      30.924   5.826  47.827  1.00  0.00    -0.086 C 
BRANCH  22  23
HETATM   23  C15 UNL     1      32.164   5.079  47.771  1.00  0.00     0.211 C 
BRANCH  23  24
HETATM   24  N4  UNL     1      33.349   5.853  47.815  1.00  0.00    -0.399 N 
HETATM   25  C16 UNL     1      34.515   5.227  48.341  1.00  0.00     0.144 C 
HETATM   26  C17 UNL     1      35.463   6.308  48.819  1.00  0.00     0.187 C 
HETATM   27  O1  UNL     1      34.939   7.598  48.615  1.00  0.00    -0.388 OA
HETATM   28  C18 UNL     1      34.601   7.790  47.279  1.00  0.00     0.187 C 
HETATM   29  C19 UNL     1      33.553   6.811  46.789  1.00  0.00     0.144 C 
ENDBRANCH  23  24
ENDBRANCH  22  23
ENDBRANCH  20  21
ENDBRANCH  18  20
ENDBRANCH  17  18
ENDBRANCH  12  16
TORSDOF 6
ENDMDL
