MODEL 1
REMARK VINA RESULT:      -8.5      0.000      0.000
REMARK  5 active torsions:
REMARK  status: ('A' for Active; 'I' for Inactive)
REMARK    1  A    between atoms: C2_2  and  C3_3 
REMARK    2  A    between atoms: C2_2  and  N1_5 
REMARK    3  A    between atoms: N1_5  and  C4_6 
REMARK    4  A    between atoms: C10_13  and  N3_14 
REMARK    5  A    between atoms: N3_14  and  C11_15 
ROOT
HETATM    1  C4  UNL     1      26.209  -0.138  53.864  1.00  0.00     0.029 A 
HETATM    2  C5  UNL     1      25.109  -0.749  54.424  1.00  0.00     0.031 A 
HETATM    3  C6  UNL     1      23.859  -0.462  53.904  1.00  0.00     0.035 A 
HETATM    4  C7  UNL     1      23.725   0.417  52.849  1.00  0.00     0.069 A 
HETATM    5  N2  UNL     1      22.437   0.611  52.434  1.00  0.00    -0.260 NA
HETATM    6  C8  UNL     1      22.205   1.466  51.392  1.00  0.00     0.119 A 
HETATM    7  C9  UNL     1      23.315   2.071  50.841  1.00  0.00     0.049 A 
HETATM    8  C10 UNL     1      24.623   1.917  51.211  1.00  0.00     0.046 A 
HETATM    9  C17 UNL     1      24.808   1.050  52.260  1.00  0.00     0.021 A 
HETATM   10  C18 UNL     1      26.017   0.717  52.828  1.00  0.00     0.045 A 
ENDROOT
BRANCH   8  11
HETATM   11  N3  UNL     1      25.721   2.558  50.638  1.00  0.00    -0.355 N 
HETATM   12  H11 UNL     1      26.643   2.095  50.534  1.00  0.00     0.166 HD
BRANCH  11  13
HETATM   13  C11 UNL     1      25.895   3.841  50.107  1.00  0.00     0.033 A 
HETATM   14  C12 UNL     1      26.876   4.190  49.202  1.00  0.00     0.029 A 
HETATM   15  C13 UNL     1      27.092   5.447  48.680  1.00  0.00     0.004 A 
HETATM   16  C14 UNL     1      26.267   6.464  49.083  1.00  0.00     0.019 A 
HETATM   17  C15 UNL     1      25.250   6.238  49.983  1.00  0.00     0.013 A 
HETATM   18 BR1  UNL     1      24.110   7.630  50.543  1.00  0.00    -0.051 Br
HETATM   19  C16 UNL     1      25.112   4.951  50.448  1.00  0.00     0.048 A 
ENDBRANCH  11  13
ENDBRANCH   8  11
BRANCH   1  20
HETATM   20  N1  UNL     1      27.518  -0.408  54.380  1.00  0.00    -0.379 N 
HETATM   21  H6  UNL     1      27.584  -0.949  55.291  1.00  0.00     0.160 HD
BRANCH  20  22
HETATM   22  C2  UNL     1      28.723   0.025  53.709  1.00  0.00     0.139 C 
HETATM   23  C1  UNL     1      29.745  -1.082  53.579  1.00  0.00     0.039 C 
BRANCH  22  24
HETATM   24  C3  UNL     1      29.255   1.204  54.411  1.00  0.00     0.255 C 
HETATM   25  O1  UNL     1      29.514   2.302  54.866  1.00  0.00    -0.305 OA
ENDBRANCH  22  24
ENDBRANCH  20  22
ENDBRANCH   1  20
TORSDOF 5
ENDMDL
MODEL 2
REMARK VINA RESULT:      -8.3      1.848      2.835
REMARK  5 active torsions:
REMARK  status: ('A' for Active; 'I' for Inactive)
REMARK    1  A    between atoms: C2_2  and  C3_3 
REMARK    2  A    between atoms: C2_2  and  N1_5 
REMARK    3  A    between atoms: N1_5  and  C4_6 
REMARK    4  A    between atoms: C10_13  and  N3_14 
REMARK    5  A    between atoms: N3_14  and  C11_15 
ROOT
HETATM    1  C4  UNL     1      25.417  -0.467  54.729  1.00  0.00     0.029 A 
HETATM    2  C5  UNL     1      24.836  -1.217  55.726  1.00  0.00     0.031 A 
HETATM    3  C6  UNL     1      23.473  -1.456  55.664  1.00  0.00     0.035 A 
HETATM    4  C7  UNL     1      22.722  -0.952  54.624  1.00  0.00     0.069 A 
HETATM    5  N2  UNL     1      21.391  -1.260  54.684  1.00  0.00    -0.260 NA
HETATM    6  C8  UNL     1      20.565  -0.803  53.694  1.00  0.00     0.119 A 
HETATM    7  C9  UNL     1      21.160  -0.054  52.702  1.00  0.00     0.049 A 
HETATM    8  C10 UNL     1      22.480   0.288  52.588  1.00  0.00     0.046 A 
HETATM    9  C17 UNL     1      23.271  -0.193  53.602  1.00  0.00     0.021 A 
HETATM   10  C18 UNL     1      24.627   0.004  53.730  1.00  0.00     0.045 A 
ENDROOT
BRANCH   8  11
HETATM   11  N3  UNL     1      23.045   1.062  51.575  1.00  0.00    -0.355 N 
HETATM   12  H11 UNL     1      23.343   0.659  50.667  1.00  0.00     0.166 HD
BRANCH  11  13
HETATM   13  C11 UNL     1      23.345   2.426  51.483  1.00  0.00     0.033 A 
HETATM   14  C12 UNL     1      22.686   3.423  52.171  1.00  0.00     0.029 A 
HETATM   15  C13 UNL     1      22.937   4.775  52.084  1.00  0.00     0.004 A 
HETATM   16  C14 UNL     1      23.932   5.194  51.241  1.00  0.00     0.019 A 
HETATM   17  C15 UNL     1      24.662   4.291  50.501  1.00  0.00     0.013 A 
HETATM   18 BR1  UNL     1      26.033   4.856  49.339  1.00  0.00    -0.051 Br
HETATM   19  C16 UNL     1      24.339   2.963  50.655  1.00  0.00     0.048 A 
ENDBRANCH  11  13
ENDBRANCH   8  11
BRANCH   1  20
HETATM   20  N1  UNL     1      26.823  -0.196  54.763  1.00  0.00    -0.379 N 
HETATM   21  H6  UNL     1      27.312  -0.262  55.704  1.00  0.00     0.160 HD
BRANCH  20  22
HETATM   22  C2  UNL     1      27.577   0.157  53.581  1.00  0.00     0.139 C 
HETATM   23  C1  UNL     1      28.692  -0.821  53.290  1.00  0.00     0.039 C 
BRANCH  22  24
HETATM   24  C3  UNL     1      28.062   1.540  53.728  1.00  0.00     0.255 C 
HETATM   25  O1  UNL     1      28.485   2.620  54.092  1.00  0.00    -0.305 OA
ENDBRANCH  22  24
ENDBRANCH  20  22
ENDBRANCH   1  20
TORSDOF 5
ENDMDL
MODEL 3
REMARK VINA RESULT:      -7.8      1.727      2.552
REMARK  5 active torsions:
REMARK  status: ('A' for Active; 'I' for Inactive)
REMARK    1  A    between atoms: C2_2  and  C3_3 
REMARK    2  A    between atoms: C2_2  and  N1_5 
REMARK    3  A    between atoms: N1_5  and  C4_6 
REMARK    4  A    between atoms: C10_13  and  N3_14 
REMARK    5  A    between atoms: N3_14  and  C11_15 
ROOT
HETATM    1  C4  UNL     1      24.190  -0.691  54.297  1.00  0.00     0.029 A 
HETATM    2  C5  UNL     1      23.269  -1.216  55.175  1.00  0.00     0.031 A 
HETATM    3  C6  UNL     1      21.923  -1.061  54.890  1.00  0.00     0.035 A 
HETATM    4  C7  UNL     1      21.521  -0.397  53.750  1.00  0.00     0.069 A 
HETATM    5  N2  UNL     1      20.166  -0.315  53.590  1.00  0.00    -0.260 NA
HETATM    6  C8  UNL     1      19.672   0.326  52.487  1.00  0.00     0.119 A 
HETATM    7  C9  UNL     1      20.606   0.846  51.616  1.00  0.00     0.049 A 
HETATM    8  C10 UNL     1      21.969   0.798  51.722  1.00  0.00     0.046 A 
HETATM    9  C17 UNL     1      22.419   0.144  52.843  1.00  0.00     0.021 A 
HETATM   10  C18 UNL     1      23.736  -0.047  53.191  1.00  0.00     0.045 A 
ENDROOT
BRANCH   8  11
HETATM   11  N3  UNL     1      22.883   1.349  50.826  1.00  0.00    -0.355 N 
HETATM   12  H11 UNL     1      23.334   0.791  50.077  1.00  0.00     0.166 HD
BRANCH  11  13
HETATM   13  C11 UNL     1      23.406   2.639  50.683  1.00  0.00     0.033 A 
HETATM   14  C12 UNL     1      24.736   2.928  50.461  1.00  0.00     0.029 A 
HETATM   15  C13 UNL     1      25.288   4.185  50.343  1.00  0.00     0.004 A 
HETATM   16  C14 UNL     1      24.457   5.268  50.453  1.00  0.00     0.019 A 
HETATM   17  C15 UNL     1      23.107   5.107  50.674  1.00  0.00     0.013 A 
HETATM   18 BR1  UNL     1      21.955   6.589  50.827  1.00  0.00    -0.051 Br
HETATM   19  C16 UNL     1      22.649   3.814  50.778  1.00  0.00     0.048 A 
ENDBRANCH  11  13
ENDBRANCH   8  11
BRANCH   1  20
HETATM   20  N1  UNL     1      25.591  -0.828  54.562  1.00  0.00    -0.379 N 
HETATM   21  H6  UNL     1      25.874  -1.239  55.499  1.00  0.00     0.160 HD
BRANCH  20  22
HETATM   22  C2  UNL     1      26.605  -0.430  53.612  1.00  0.00     0.139 C 
HETATM   23  C1  UNL     1      27.106  -1.588  52.779  1.00  0.00     0.039 C 
BRANCH  22  24
HETATM   24  C3  UNL     1      27.689   0.253  54.339  1.00  0.00     0.255 C 
HETATM   25  O1  UNL     1      28.461   0.737  55.143  1.00  0.00    -0.305 OA
ENDBRANCH  22  24
ENDBRANCH  20  22
ENDBRANCH   1  20
TORSDOF 5
ENDMDL
MODEL 4
REMARK VINA RESULT:      -7.8      1.320      1.582
REMARK  5 active torsions:
REMARK  status: ('A' for Active; 'I' for Inactive)
REMARK    1  A    between atoms: C2_2  and  C3_3 
REMARK    2  A    between atoms: C2_2  and  N1_5 
REMARK    3  A    between atoms: N1_5  and  C4_6 
REMARK    4  A    between atoms: C10_13  and  N3_14 
REMARK    5  A    between atoms: N3_14  and  C11_15 
ROOT
HETATM    1  C4  UNL     1      25.501   1.168  53.501  1.00  0.00     0.029 A 
HETATM    2  C5  UNL     1      24.639   0.094  53.527  1.00  0.00     0.031 A 
HETATM    3  C6  UNL     1      23.493   0.150  52.753  1.00  0.00     0.035 A 
HETATM    4  C7  UNL     1      23.227   1.257  51.975  1.00  0.00     0.069 A 
HETATM    5  N2  UNL     1      22.063   1.183  51.261  1.00  0.00    -0.260 NA
HETATM    6  C8  UNL     1      21.715   2.235  50.460  1.00  0.00     0.119 A 
HETATM    7  C9  UNL     1      22.587   3.303  50.444  1.00  0.00     0.049 A 
HETATM    8  C10 UNL     1      23.762   3.436  51.133  1.00  0.00     0.046 A 
HETATM    9  C17 UNL     1      24.071   2.356  51.923  1.00  0.00     0.021 A 
HETATM   10  C18 UNL     1      25.188   2.230  52.718  1.00  0.00     0.045 A 
ENDROOT
BRANCH   8  11
HETATM   11  N3  UNL     1      24.613   4.540  51.103  1.00  0.00    -0.355 N 
HETATM   12  H11 UNL     1      24.643   5.241  51.866  1.00  0.00     0.166 HD
BRANCH  11  13
HETATM   13  C11 UNL     1      25.553   4.983  50.165  1.00  0.00     0.033 A 
HETATM   14  C12 UNL     1      26.564   4.206  49.640  1.00  0.00     0.029 A 
HETATM   15  C13 UNL     1      27.521   4.618  48.737  1.00  0.00     0.004 A 
HETATM   16  C14 UNL     1      27.485   5.917  48.305  1.00  0.00     0.019 A 
HETATM   17  C15 UNL     1      26.520   6.789  48.757  1.00  0.00     0.013 A 
HETATM   18 BR1  UNL     1      26.462   8.577  48.169  1.00  0.00    -0.051 Br
HETATM   19  C16 UNL     1      25.608   6.287  49.657  1.00  0.00     0.048 A 
ENDBRANCH  11  13
ENDBRANCH   8  11
BRANCH   1  20
HETATM   20  N1  UNL     1      26.694   1.147  54.294  1.00  0.00    -0.379 N 
HETATM   21  H6  UNL     1      26.587   1.257  55.344  1.00  0.00     0.160 HD
BRANCH  20  22
HETATM   22  C2  UNL     1      28.009   0.984  53.716  1.00  0.00     0.139 C 
HETATM   23  C1  UNL     1      28.400  -0.468  53.562  1.00  0.00     0.039 C 
BRANCH  22  24
HETATM   24  C3  UNL     1      28.976   1.747  54.523  1.00  0.00     0.255 C 
HETATM   25  O1  UNL     1      29.900   2.396  54.974  1.00  0.00    -0.305 OA
ENDBRANCH  22  24
ENDBRANCH  20  22
ENDBRANCH   1  20
TORSDOF 5
ENDMDL
MODEL 5
REMARK VINA RESULT:      -7.6      2.390      3.509
REMARK  5 active torsions:
REMARK  status: ('A' for Active; 'I' for Inactive)
REMARK    1  A    between atoms: C2_2  and  C3_3 
REMARK    2  A    between atoms: C2_2  and  N1_5 
REMARK    3  A    between atoms: N1_5  and  C4_6 
REMARK    4  A    between atoms: C10_13  and  N3_14 
REMARK    5  A    between atoms: N3_14  and  C11_15 
ROOT
HETATM    1  C4  UNL     1      23.782  -0.442  53.629  1.00  0.00     0.029 A 
HETATM    2  C5  UNL     1      23.049  -0.894  54.704  1.00  0.00     0.031 A 
HETATM    3  C6  UNL     1      21.667  -0.891  54.608  1.00  0.00     0.035 A 
HETATM    4  C7  UNL     1      21.047  -0.445  53.460  1.00  0.00     0.069 A 
HETATM    5  N2  UNL     1      19.682  -0.495  53.497  1.00  0.00    -0.260 NA
HETATM    6  C8  UNL     1      18.978  -0.073  52.403  1.00  0.00     0.119 A 
HETATM    7  C9  UNL     1      19.725   0.376  51.335  1.00  0.00     0.049 A 
HETATM    8  C10 UNL     1      21.087   0.451  51.238  1.00  0.00     0.046 A 
HETATM    9  C17 UNL     1      21.752   0.016  52.359  1.00  0.00     0.021 A 
HETATM   10  C18 UNL     1      23.117  -0.015  52.526  1.00  0.00     0.045 A 
ENDROOT
BRANCH   8  11
HETATM   11  N3  UNL     1      21.809   0.926  50.144  1.00  0.00    -0.355 N 
HETATM   12  H11 UNL     1      22.080   0.317  49.349  1.00  0.00     0.166 HD
BRANCH  11  13
HETATM   13  C11 UNL     1      22.323   2.188  49.827  1.00  0.00     0.033 A 
HETATM   14  C12 UNL     1      21.567   3.259  49.398  1.00  0.00     0.029 A 
HETATM   15  C13 UNL     1      22.042   4.505  49.051  1.00  0.00     0.004 A 
HETATM   16  C14 UNL     1      23.392   4.727  49.133  1.00  0.00     0.019 A 
HETATM   17  C15 UNL     1      24.250   3.734  49.550  1.00  0.00     0.013 A 
HETATM   18 BR1  UNL     1      26.107   4.029  49.666  1.00  0.00    -0.051 Br
HETATM   19  C16 UNL     1      23.682   2.524  49.874  1.00  0.00     0.048 A 
ENDBRANCH  11  13
ENDBRANCH   8  11
BRANCH   1  20
HETATM   20  N1  UNL     1      25.213  -0.426  53.695  1.00  0.00    -0.379 N 
HETATM   21  H6  UNL     1      25.734  -1.217  53.215  1.00  0.00     0.160 HD
BRANCH  20  22
HETATM   22  C2  UNL     1      25.949   0.612  54.382  1.00  0.00     0.139 C 
HETATM   23  C1  UNL     1      25.913   1.932  53.646  1.00  0.00     0.039 C 
BRANCH  22  24
HETATM   24  C3  UNL     1      27.322   0.136  54.620  1.00  0.00     0.255 C 
HETATM   25  O1  UNL     1      28.370  -0.308  55.048  1.00  0.00    -0.305 OA
ENDBRANCH  22  24
ENDBRANCH  20  22
ENDBRANCH   1  20
TORSDOF 5
ENDMDL
MODEL 6
REMARK VINA RESULT:      -7.6      3.230      5.400
REMARK  5 active torsions:
REMARK  status: ('A' for Active; 'I' for Inactive)
REMARK    1  A    between atoms: C2_2  and  C3_3 
REMARK    2  A    between atoms: C2_2  and  N1_5 
REMARK    3  A    between atoms: N1_5  and  C4_6 
REMARK    4  A    between atoms: C10_13  and  N3_14 
REMARK    5  A    between atoms: N3_14  and  C11_15 
ROOT
HETATM    1  C4  UNL     1      21.571   0.234  53.379  1.00  0.00     0.029 A 
HETATM    2  C5  UNL     1      21.973  -0.665  54.342  1.00  0.00     0.031 A 
HETATM    3  C6  UNL     1      23.328  -0.915  54.485  1.00  0.00     0.035 A 
HETATM    4  C7  UNL     1      24.246  -0.275  53.680  1.00  0.00     0.069 A 
HETATM    5  N2  UNL     1      25.548  -0.613  53.926  1.00  0.00    -0.260 NA
HETATM    6  C8  UNL     1      26.531  -0.029  53.176  1.00  0.00     0.119 A 
HETATM    7  C9  UNL     1      26.114   0.869  52.217  1.00  0.00     0.049 A 
HETATM    8  C10 UNL     1      24.832   1.246  51.924  1.00  0.00     0.046 A 
HETATM    9  C17 UNL     1      23.878   0.635  52.701  1.00  0.00     0.021 A 
HETATM   10  C18 UNL     1      22.519   0.833  52.616  1.00  0.00     0.045 A 
ENDROOT
BRANCH   8  11
HETATM   11  N3  UNL     1      24.446   2.149  50.934  1.00  0.00    -0.355 N 
HETATM   12  H11 UNL     1      23.546   2.066  50.425  1.00  0.00     0.166 HD
BRANCH  11  13
HETATM   13  C11 UNL     1      25.066   3.281  50.394  1.00  0.00     0.033 A 
HETATM   14  C12 UNL     1      26.202   3.258  49.612  1.00  0.00     0.029 A 
HETATM   15  C13 UNL     1      26.852   4.354  49.088  1.00  0.00     0.004 A 
HETATM   16  C14 UNL     1      26.341   5.597  49.354  1.00  0.00     0.019 A 
HETATM   17  C15 UNL     1      25.209   5.748  50.123  1.00  0.00     0.013 A 
HETATM   18 BR1  UNL     1      24.497   7.453  50.494  1.00  0.00    -0.051 Br
HETATM   19  C16 UNL     1      24.629   4.596  50.602  1.00  0.00     0.048 A 
ENDBRANCH  11  13
ENDBRANCH   8  11
BRANCH   1  20
HETATM   20  N1  UNL     1      20.177   0.514  53.199  1.00  0.00    -0.379 N 
HETATM   21  H6  UNL     1      19.747   1.270  53.808  1.00  0.00     0.160 HD
BRANCH  20  22
HETATM   22  C2  UNL     1      19.360  -0.189  52.235  1.00  0.00     0.139 C 
HETATM   23  C1  UNL     1      18.961   0.683  51.067  1.00  0.00     0.039 C 
BRANCH  22  24
HETATM   24  C3  UNL     1      18.199  -0.765  52.934  1.00  0.00     0.255 C 
HETATM   25  O1  UNL     1      17.144  -1.010  53.487  1.00  0.00    -0.305 OA
ENDBRANCH  22  24
ENDBRANCH  20  22
ENDBRANCH   1  20
TORSDOF 5
ENDMDL
MODEL 7
REMARK VINA RESULT:      -7.3      3.032      3.713
REMARK  5 active torsions:
REMARK  status: ('A' for Active; 'I' for Inactive)
REMARK    1  A    between atoms: C2_2  and  C3_3 
REMARK    2  A    between atoms: C2_2  and  N1_5 
REMARK    3  A    between atoms: N1_5  and  C4_6 
REMARK    4  A    between atoms: C10_13  and  N3_14 
REMARK    5  A    between atoms: N3_14  and  C11_15 
ROOT
HETATM    1  C4  UNL     1      25.236  -0.220  54.423  1.00  0.00     0.029 A 
HETATM    2  C5  UNL     1      24.894  -1.099  55.425  1.00  0.00     0.031 A 
HETATM    3  C6  UNL     1      23.574  -1.506  55.523  1.00  0.00     0.035 A 
HETATM    4  C7  UNL     1      22.630  -1.037  54.634  1.00  0.00     0.069 A 
HETATM    5  N2  UNL     1      21.367  -1.517  54.844  1.00  0.00    -0.260 NA
HETATM    6  C8  UNL     1      20.362  -1.108  54.011  1.00  0.00     0.119 A 
HETATM    7  C9  UNL     1      20.719  -0.228  53.012  1.00  0.00     0.049 A 
HETATM    8  C10 UNL     1      21.960   0.287  52.753  1.00  0.00     0.046 A 
HETATM    9  C17 UNL     1      22.937  -0.152  53.613  1.00  0.00     0.021 A 
HETATM   10  C18 UNL     1      24.265   0.208  53.577  1.00  0.00     0.045 A 
ENDROOT
BRANCH   8  11
HETATM   11  N3  UNL     1      22.282   1.188  51.740  1.00  0.00    -0.355 N 
HETATM   12  H11 UNL     1      22.643   0.883  50.817  1.00  0.00     0.166 HD
BRANCH  11  13
HETATM   13  C11 UNL     1      22.229   2.585  51.666  1.00  0.00     0.033 A 
HETATM   14  C12 UNL     1      23.070   3.440  52.346  1.00  0.00     0.029 A 
HETATM   15  C13 UNL     1      23.029   4.818  52.317  1.00  0.00     0.004 A 
HETATM   16  C14 UNL     1      22.069   5.419  51.546  1.00  0.00     0.019 A 
HETATM   17  C15 UNL     1      21.171   4.670  50.820  1.00  0.00     0.013 A 
HETATM   18 BR1  UNL     1      19.847   5.486  49.757  1.00  0.00    -0.051 Br
HETATM   19  C16 UNL     1      21.291   3.302  50.912  1.00  0.00     0.048 A 
ENDBRANCH  11  13
ENDBRANCH   8  11
BRANCH   1  20
HETATM   20  N1  UNL     1      26.592   0.226  54.294  1.00  0.00    -0.379 N 
HETATM   21  H6  UNL     1      27.012   0.759  55.110  1.00  0.00     0.160 HD
BRANCH  20  22
HETATM   22  C2  UNL     1      27.384  -0.023  53.110  1.00  0.00     0.139 C 
HETATM   23  C1  UNL     1      26.911   0.777  51.917  1.00  0.00     0.039 C 
BRANCH  22  24
HETATM   24  C3  UNL     1      27.397  -1.472  52.849  1.00  0.00     0.255 C 
HETATM   25  O1  UNL     1      27.545  -2.679  52.844  1.00  0.00    -0.305 OA
ENDBRANCH  22  24
ENDBRANCH  20  22
ENDBRANCH   1  20
TORSDOF 5
ENDMDL
MODEL 8
REMARK VINA RESULT:      -7.2      3.017      4.292
REMARK  5 active torsions:
REMARK  status: ('A' for Active; 'I' for Inactive)
REMARK    1  A    between atoms: C2_2  and  C3_3 
REMARK    2  A    between atoms: C2_2  and  N1_5 
REMARK    3  A    between atoms: N1_5  and  C4_6 
REMARK    4  A    between atoms: C10_13  and  N3_14 
REMARK    5  A    between atoms: N3_14  and  C11_15 
ROOT
HETATM    1  C4  UNL     1      26.015   1.666  51.567  1.00  0.00     0.029 A 
HETATM    2  C5  UNL     1      24.655   1.525  51.729  1.00  0.00     0.031 A 
HETATM    3  C6  UNL     1      23.820   2.439  51.109  1.00  0.00     0.035 A 
HETATM    4  C7  UNL     1      24.344   3.463  50.349  1.00  0.00     0.069 A 
HETATM    5  N2  UNL     1      23.411   4.293  49.794  1.00  0.00    -0.260 NA
HETATM    6  C8  UNL     1      23.836   5.339  49.023  1.00  0.00     0.119 A 
HETATM    7  C9  UNL     1      25.200   5.467  48.870  1.00  0.00     0.049 A 
HETATM    8  C10 UNL     1      26.181   4.673  49.397  1.00  0.00     0.046 A 
HETATM    9  C17 UNL     1      25.707   3.636  50.164  1.00  0.00     0.021 A 
HETATM   10  C18 UNL     1      26.475   2.692  50.808  1.00  0.00     0.045 A 
ENDROOT
BRANCH   8  11
HETATM   11  N3  UNL     1      27.555   4.842  49.232  1.00  0.00    -0.355 N 
HETATM   12  H11 UNL     1      28.252   4.258  49.731  1.00  0.00     0.166 HD
BRANCH  11  13
HETATM   13  C11 UNL     1      28.311   5.729  48.457  1.00  0.00     0.033 A 
HETATM   14  C12 UNL     1      27.817   6.871  47.862  1.00  0.00     0.029 A 
HETATM   15  C13 UNL     1      28.526   7.749  47.072  1.00  0.00     0.004 A 
HETATM   16  C14 UNL     1      29.851   7.485  46.841  1.00  0.00     0.019 A 
HETATM   17  C15 UNL     1      30.458   6.375  47.383  1.00  0.00     0.013 A 
HETATM   18 BR1  UNL     1      32.278   6.003  47.071  1.00  0.00    -0.051 Br
HETATM   19  C16 UNL     1      29.669   5.556  48.157  1.00  0.00     0.048 A 
ENDBRANCH  11  13
ENDBRANCH   8  11
BRANCH   1  20
HETATM   20  N1  UNL     1      26.910   0.741  52.198  1.00  0.00    -0.379 N 
HETATM   21  H6  UNL     1      27.936   0.789  51.927  1.00  0.00     0.160 HD
BRANCH  20  22
HETATM   22  C2  UNL     1      26.465  -0.232  53.170  1.00  0.00     0.139 C 
HETATM   23  C1  UNL     1      26.712   0.214  54.593  1.00  0.00     0.039 C 
BRANCH  22  24
HETATM   24  C3  UNL     1      27.100  -1.525  52.865  1.00  0.00     0.255 C 
HETATM   25  O1  UNL     1      27.631  -2.619  52.863  1.00  0.00    -0.305 OA
ENDBRANCH  22  24
ENDBRANCH  20  22
ENDBRANCH   1  20
TORSDOF 5
ENDMDL
MODEL 9
REMARK VINA RESULT:      -7.1      3.145      6.317
REMARK  5 active torsions:
REMARK  status: ('A' for Active; 'I' for Inactive)
REMARK    1  A    between atoms: C2_2  and  C3_3 
REMARK    2  A    between atoms: C2_2  and  N1_5 
REMARK    3  A    between atoms: N1_5  and  C4_6 
REMARK    4  A    between atoms: C10_13  and  N3_14 
REMARK    5  A    between atoms: N3_14  and  C11_15 
ROOT
HETATM    1  C4  UNL     1      24.450   1.660  51.574  1.00  0.00     0.029 A 
HETATM    2  C5  UNL     1      25.506   0.918  52.053  1.00  0.00     0.031 A 
HETATM    3  C6  UNL     1      25.269   0.023  53.082  1.00  0.00     0.035 A 
HETATM    4  C7  UNL     1      24.003  -0.119  53.609  1.00  0.00     0.069 A 
HETATM    5  N2  UNL     1      23.908  -1.035  54.619  1.00  0.00    -0.260 NA
HETATM    6  C8  UNL     1      22.690  -1.245  55.204  1.00  0.00     0.119 A 
HETATM    7  C9  UNL     1      21.642  -0.495  54.714  1.00  0.00     0.049 A 
HETATM    8  C10 UNL     1      21.673   0.434  53.710  1.00  0.00     0.046 A 
HETATM    9  C17 UNL     1      22.916   0.610  53.152  1.00  0.00     0.021 A 
HETATM   10  C18 UNL     1      23.226   1.479  52.131  1.00  0.00     0.045 A 
ENDROOT
BRANCH   8  11
HETATM   11  N3  UNL     1      20.593   1.185  53.250  1.00  0.00    -0.355 N 
HETATM   12  H11 UNL     1      20.350   2.112  53.646  1.00  0.00     0.166 HD
BRANCH  11  13
HETATM   13  C11 UNL     1      19.636   0.952  52.256  1.00  0.00     0.033 A 
HETATM   14  C12 UNL     1      18.778  -0.128  52.228  1.00  0.00     0.029 A 
HETATM   15  C13 UNL     1      17.844  -0.402  51.252  1.00  0.00     0.004 A 
HETATM   16  C14 UNL     1      17.738   0.467  50.199  1.00  0.00     0.019 A 
HETATM   17  C15 UNL     1      18.540   1.583  50.116  1.00  0.00     0.013 A 
HETATM   18 BR1  UNL     1      18.401   2.785  48.671  1.00  0.00    -0.051 Br
HETATM   19  C16 UNL     1      19.442   1.772  51.137  1.00  0.00     0.048 A 
ENDBRANCH  11  13
ENDBRANCH   8  11
BRANCH   1  20
HETATM   20  N1  UNL     1      24.659   2.601  50.513  1.00  0.00    -0.379 N 
HETATM   21  H6  UNL     1      24.275   2.351  49.554  1.00  0.00     0.160 HD
BRANCH  20  22
HETATM   22  C2  UNL     1      25.360   3.850  50.707  1.00  0.00     0.139 C 
HETATM   23  C1  UNL     1      24.430   5.040  50.731  1.00  0.00     0.039 C 
BRANCH  22  24
HETATM   24  C3  UNL     1      26.403   3.968  49.674  1.00  0.00     0.255 C 
HETATM   25  O1  UNL     1      27.413   4.126  49.015  1.00  0.00    -0.305 OA
ENDBRANCH  22  24
ENDBRANCH  20  22
ENDBRANCH   1  20
TORSDOF 5
ENDMDL
