MODEL 1
REMARK VINA RESULT:      -7.4      0.000      0.000
REMARK  5 active torsions:
REMARK  status: ('A' for Active; 'I' for Inactive)
REMARK    1  A    between atoms: C1_2  and  C2_3 
REMARK    2  A    between atoms: C2_3  and  C3_4 
REMARK    3  A    between atoms: C3_4  and  C4_5 
REMARK       I    between atoms: C4_5  and  N1_7 
REMARK    4  A    between atoms: N1_7  and  C5_8 
REMARK    5  A    between atoms: C5_8  and  C6_9 
ROOT
HETATM    1  C3  UNL     1      27.074   0.408  51.960  1.00  0.00     0.140 C 
ENDROOT
BRANCH   1   2
HETATM    2  C2  UNL     1      26.551  -0.432  53.089  1.00  0.00     0.083 C 
HETATM    3  C12 UNL     1      26.782  -1.884  52.856  1.00  0.00     0.007 C 
HETATM    4  C13 UNL     1      28.004  -2.440  52.895  1.00  0.00    -0.002 C 
HETATM    5  C14 UNL     1      29.291  -1.752  53.166  1.00  0.00    -0.003 C 
HETATM    6  C15 UNL     1      29.338  -0.670  53.973  1.00  0.00    -0.008 C 
HETATM    7  C16 UNL     1      28.315   0.083  54.739  1.00  0.00     0.142 C 
HETATM    8  N2  UNL     1      27.011   0.102  54.296  1.00  0.00    -0.404 N 
HETATM    9  H18 UNL     1      26.325  -0.001  55.048  1.00  0.00     0.154 HD
BRANCH   2  10
HETATM   10  C1  UNL     1      25.072  -0.253  53.084  1.00  0.00     0.426 C 
HETATM   11  O1  UNL     1      23.929   0.144  53.016  1.00  0.00    -0.427 OA
ENDBRANCH   2  10
ENDBRANCH   1   2
BRANCH   1  12
HETATM   12  C4  UNL     1      26.533   1.751  51.867  1.00  0.00     0.220 C 
HETATM   13  O2  UNL     1      27.157   2.460  52.699  1.00  0.00    -0.274 OA
HETATM   14  N1  UNL     1      25.497   2.129  50.984  1.00  0.00    -0.357 N 
HETATM   15  H4  UNL     1      25.140   1.360  50.390  1.00  0.00     0.162 HD
BRANCH  14  16
HETATM   16  C5  UNL     1      25.013   3.487  50.952  1.00  0.00     0.161 C 
BRANCH  16  17
HETATM   17  C6  UNL     1      25.813   4.380  50.077  1.00  0.00    -0.041 A 
HETATM   18  C7  UNL     1      25.435   5.707  50.012  1.00  0.00     0.009 A 
HETATM   19  C8  UNL     1      26.052   6.683  49.263  1.00  0.00     0.001 A 
HETATM   20  C9  UNL     1      27.142   6.296  48.515  1.00  0.00     0.000 A 
HETATM   21  C10 UNL     1      27.560   4.980  48.546  1.00  0.00     0.001 A 
HETATM   22  C11 UNL     1      26.909   4.021  49.317  1.00  0.00     0.009 A 
ENDBRANCH  16  17
ENDBRANCH  14  16
ENDBRANCH   1  12
TORSDOF 5
ENDMDL
MODEL 2
REMARK VINA RESULT:      -7.2      3.225      5.761
REMARK  5 active torsions:
REMARK  status: ('A' for Active; 'I' for Inactive)
REMARK    1  A    between atoms: C1_2  and  C2_3 
REMARK    2  A    between atoms: C2_3  and  C3_4 
REMARK    3  A    between atoms: C3_4  and  C4_5 
REMARK       I    between atoms: C4_5  and  N1_7 
REMARK    4  A    between atoms: N1_7  and  C5_8 
REMARK    5  A    between atoms: C5_8  and  C6_9 
ROOT
HETATM    1  C3  UNL     1      26.015   0.816  54.246  1.00  0.00     0.140 C 
ENDROOT
BRANCH   1   2
HETATM    2  C2  UNL     1      26.710   1.000  52.927  1.00  0.00     0.083 C 
HETATM    3  C12 UNL     1      27.590   2.201  52.926  1.00  0.00     0.007 C 
HETATM    4  C13 UNL     1      28.730   2.266  53.632  1.00  0.00    -0.002 C 
HETATM    5  C14 UNL     1      29.304   1.210  54.504  1.00  0.00    -0.003 C 
HETATM    6  C15 UNL     1      29.099  -0.096  54.230  1.00  0.00    -0.008 C 
HETATM    7  C16 UNL     1      28.366  -0.817  53.160  1.00  0.00     0.142 C 
HETATM    8  N2  UNL     1      27.287  -0.216  52.551  1.00  0.00    -0.404 N 
HETATM    9  H18 UNL     1      27.264  -0.354  51.537  1.00  0.00     0.154 HD
BRANCH   2  10
HETATM   10  C1  UNL     1      25.637   1.285  51.934  1.00  0.00     0.426 C 
HETATM   11  O1  UNL     1      24.605   1.509  51.339  1.00  0.00    -0.427 OA
ENDBRANCH   2  10
ENDBRANCH   1   2
BRANCH   1  12
HETATM   12  C4  UNL     1      24.961  -0.180  54.272  1.00  0.00     0.220 C 
HETATM   13  O2  UNL     1      25.449  -1.223  54.779  1.00  0.00    -0.274 OA
HETATM   14  N1  UNL     1      23.649   0.043  53.799  1.00  0.00    -0.357 N 
HETATM   15  H4  UNL     1      23.485   0.992  53.422  1.00  0.00     0.162 HD
BRANCH  14  16
HETATM   16  C5  UNL     1      22.656  -1.001  53.859  1.00  0.00     0.161 C 
BRANCH  16  17
HETATM   17  C6  UNL     1      21.378  -0.641  53.195  1.00  0.00    -0.041 A 
HETATM   18  C7  UNL     1      21.458   0.047  51.999  1.00  0.00     0.009 A 
HETATM   19  C8  UNL     1      20.389   0.463  51.238  1.00  0.00     0.001 A 
HETATM   20  C9  UNL     1      19.133   0.162  51.714  1.00  0.00     0.000 A 
HETATM   21  C10 UNL     1      18.999  -0.526  52.905  1.00  0.00     0.001 A 
HETATM   22  C11 UNL     1      20.105  -0.929  53.647  1.00  0.00     0.009 A 
ENDBRANCH  16  17
ENDBRANCH  14  16
ENDBRANCH   1  12
TORSDOF 5
ENDMDL
MODEL 3
REMARK VINA RESULT:      -7.0      1.968      6.714
REMARK  5 active torsions:
REMARK  status: ('A' for Active; 'I' for Inactive)
REMARK    1  A    between atoms: C1_2  and  C2_3 
REMARK    2  A    between atoms: C2_3  and  C3_4 
REMARK    3  A    between atoms: C3_4  and  C4_5 
REMARK       I    between atoms: C4_5  and  N1_7 
REMARK    4  A    between atoms: N1_7  and  C5_8 
REMARK    5  A    between atoms: C5_8  and  C6_9 
ROOT
HETATM    1  C3  UNL     1      23.908   2.203  51.176  1.00  0.00     0.140 C 
ENDROOT
BRANCH   1   2
HETATM    2  C2  UNL     1      24.724   3.394  50.762  1.00  0.00     0.083 C 
HETATM    3  C12 UNL     1      24.544   3.718  49.321  1.00  0.00     0.007 C 
HETATM    4  C13 UNL     1      23.402   4.224  48.828  1.00  0.00    -0.002 C 
HETATM    5  C14 UNL     1      22.165   4.542  49.584  1.00  0.00    -0.003 C 
HETATM    6  C15 UNL     1      22.228   4.930  50.877  1.00  0.00    -0.008 C 
HETATM    7  C16 UNL     1      23.344   5.140  51.831  1.00  0.00     0.142 C 
HETATM    8  N2  UNL     1      24.511   4.425  51.681  1.00  0.00    -0.404 N 
HETATM    9  H18 UNL     1      25.354   4.986  51.830  1.00  0.00     0.154 HD
BRANCH   2  10
HETATM   10  C1  UNL     1      26.149   2.984  50.908  1.00  0.00     0.426 C 
HETATM   11  O1  UNL     1      27.280   2.745  51.274  1.00  0.00    -0.427 OA
ENDBRANCH   2  10
ENDBRANCH   1   2
BRANCH   1  12
HETATM   12  C4  UNL     1      24.413   1.452  52.308  1.00  0.00     0.220 C 
HETATM   13  O2  UNL     1      24.002   2.027  53.349  1.00  0.00    -0.274 OA
HETATM   14  N1  UNL     1      25.215   0.294  52.197  1.00  0.00    -0.357 N 
HETATM   15  H4  UNL     1      25.424   0.011  51.224  1.00  0.00     0.162 HD
BRANCH  14  16
HETATM   16  C5  UNL     1      25.680  -0.398  53.373  1.00  0.00     0.161 C 
BRANCH  16  17
HETATM   17  C6  UNL     1      27.156  -0.370  53.531  1.00  0.00    -0.041 A 
HETATM   18  C7  UNL     1      27.859  -1.481  53.106  1.00  0.00     0.009 A 
HETATM   19  C8  UNL     1      29.226  -1.639  53.167  1.00  0.00     0.001 A 
HETATM   20  C9  UNL     1      29.949  -0.595  53.698  1.00  0.00     0.000 A 
HETATM   21  C10 UNL     1      29.292   0.538  54.138  1.00  0.00     0.001 A 
HETATM   22  C11 UNL     1      27.908   0.661  54.060  1.00  0.00     0.009 A 
ENDBRANCH  16  17
ENDBRANCH  14  16
ENDBRANCH   1  12
TORSDOF 5
ENDMDL
MODEL 4
REMARK VINA RESULT:      -6.9      2.575      4.053
REMARK  5 active torsions:
REMARK  status: ('A' for Active; 'I' for Inactive)
REMARK    1  A    between atoms: C1_2  and  C2_3 
REMARK    2  A    between atoms: C2_3  and  C3_4 
REMARK    3  A    between atoms: C3_4  and  C4_5 
REMARK       I    between atoms: C4_5  and  N1_7 
REMARK    4  A    between atoms: N1_7  and  C5_8 
REMARK    5  A    between atoms: C5_8  and  C6_9 
ROOT
HETATM    1  C3  UNL     1      26.918   0.372  52.329  1.00  0.00     0.140 C 
ENDROOT
BRANCH   1   2
HETATM    2  C2  UNL     1      26.677  -0.674  53.379  1.00  0.00     0.083 C 
HETATM    3  C12 UNL     1      27.202  -2.005  52.968  1.00  0.00     0.007 C 
HETATM    4  C13 UNL     1      28.515  -2.273  52.881  1.00  0.00    -0.002 C 
HETATM    5  C14 UNL     1      29.638  -1.344  53.165  1.00  0.00    -0.003 C 
HETATM    6  C15 UNL     1      29.508  -0.367  54.089  1.00  0.00    -0.008 C 
HETATM    7  C16 UNL     1      28.405   0.055  54.987  1.00  0.00     0.142 C 
HETATM    8  N2  UNL     1      27.099  -0.175  54.615  1.00  0.00    -0.404 N 
HETATM    9  H18 UNL     1      26.509  -0.505  55.383  1.00  0.00     0.154 HD
BRANCH   2  10
HETATM   10  C1  UNL     1      25.199  -0.832  53.469  1.00  0.00     0.426 C 
HETATM   11  O1  UNL     1      24.024  -0.827  53.768  1.00  0.00    -0.427 OA
ENDBRANCH   2  10
ENDBRANCH   1   2
BRANCH   1  12
HETATM   12  C4  UNL     1      26.010   1.503  52.342  1.00  0.00     0.220 C 
HETATM   13  O2  UNL     1      26.496   2.361  53.123  1.00  0.00    -0.274 OA
HETATM   14  N1  UNL     1      24.814   1.566  51.592  1.00  0.00    -0.357 N 
HETATM   15  H4  UNL     1      24.624   0.727  51.017  1.00  0.00     0.162 HD
BRANCH  14  16
HETATM   16  C5  UNL     1      23.961   2.727  51.660  1.00  0.00     0.161 C 
BRANCH  16  17
HETATM   17  C6  UNL     1      22.521   2.396  51.800  1.00  0.00    -0.041 A 
HETATM   18  C7  UNL     1      22.147   1.086  51.569  1.00  0.00     0.009 A 
HETATM   19  C8  UNL     1      20.866   0.590  51.653  1.00  0.00     0.001 A 
HETATM   20  C9  UNL     1      19.875   1.481  51.999  1.00  0.00     0.000 A 
HETATM   21  C10 UNL     1      20.197   2.803  52.241  1.00  0.00     0.001 A 
HETATM   22  C11 UNL     1      21.506   3.268  52.145  1.00  0.00     0.009 A 
ENDBRANCH  16  17
ENDBRANCH  14  16
ENDBRANCH   1  12
TORSDOF 5
ENDMDL
MODEL 5
REMARK VINA RESULT:      -6.9      2.582      4.067
REMARK  5 active torsions:
REMARK  status: ('A' for Active; 'I' for Inactive)
REMARK    1  A    between atoms: C1_2  and  C2_3 
REMARK    2  A    between atoms: C2_3  and  C3_4 
REMARK    3  A    between atoms: C3_4  and  C4_5 
REMARK       I    between atoms: C4_5  and  N1_7 
REMARK    4  A    between atoms: N1_7  and  C5_8 
REMARK    5  A    between atoms: C5_8  and  C6_9 
ROOT
HETATM    1  C3  UNL     1      25.863   1.867  53.565  1.00  0.00     0.140 C 
ENDROOT
BRANCH   1   2
HETATM    2  C2  UNL     1      26.950   1.749  52.536  1.00  0.00     0.083 C 
HETATM    3  C12 UNL     1      28.230   2.344  53.010  1.00  0.00     0.007 C 
HETATM    4  C13 UNL     1      28.973   1.790  53.982  1.00  0.00    -0.002 C 
HETATM    5  C14 UNL     1      28.679   0.543  54.731  1.00  0.00    -0.003 C 
HETATM    6  C15 UNL     1      27.998  -0.467  54.148  1.00  0.00    -0.008 C 
HETATM    7  C16 UNL     1      27.408  -0.663  52.801  1.00  0.00     0.142 C 
HETATM    8  N2  UNL     1      26.991   0.430  52.076  1.00  0.00    -0.404 N 
HETATM    9  H18 UNL     1      27.238   0.378  51.084  1.00  0.00     0.154 HD
BRANCH   2  10
HETATM   10  C1  UNL     1      26.517   2.587  51.384  1.00  0.00     0.426 C 
HETATM   11  O1  UNL     1      26.391   3.183  50.335  1.00  0.00    -0.427 OA
ENDBRANCH   2  10
ENDBRANCH   1   2
BRANCH   1  12
HETATM   12  C4  UNL     1      24.512   1.652  53.085  1.00  0.00     0.220 C 
HETATM   13  O2  UNL     1      24.314   0.409  53.075  1.00  0.00    -0.274 OA
HETATM   14  N1  UNL     1      23.629   2.690  52.711  1.00  0.00    -0.357 N 
HETATM   15  H4  UNL     1      24.024   3.642  52.807  1.00  0.00     0.162 HD
BRANCH  14  16
HETATM   16  C5  UNL     1      22.298   2.395  52.241  1.00  0.00     0.161 C 
BRANCH  16  17
HETATM   17  C6  UNL     1      22.230   2.139  50.781  1.00  0.00    -0.041 A 
HETATM   18  C7  UNL     1      22.917   3.007  49.954  1.00  0.00     0.009 A 
HETATM   19  C8  UNL     1      22.975   2.931  48.580  1.00  0.00     0.001 A 
HETATM   20  C9  UNL     1      22.286   1.898  47.985  1.00  0.00     0.000 A 
HETATM   21  C10 UNL     1      21.583   1.003  48.768  1.00  0.00     0.001 A 
HETATM   22  C11 UNL     1      21.548   1.113  50.156  1.00  0.00     0.009 A 
ENDBRANCH  16  17
ENDBRANCH  14  16
ENDBRANCH   1  12
TORSDOF 5
ENDMDL
MODEL 6
REMARK VINA RESULT:      -6.8      1.664      2.259
REMARK  5 active torsions:
REMARK  status: ('A' for Active; 'I' for Inactive)
REMARK    1  A    between atoms: C1_2  and  C2_3 
REMARK    2  A    between atoms: C2_3  and  C3_4 
REMARK    3  A    between atoms: C3_4  and  C4_5 
REMARK       I    between atoms: C4_5  and  N1_7 
REMARK    4  A    between atoms: N1_7  and  C5_8 
REMARK    5  A    between atoms: C5_8  and  C6_9 
ROOT
HETATM    1  C3  UNL     1      27.001   0.214  51.928  1.00  0.00     0.140 C 
ENDROOT
BRANCH   1   2
HETATM    2  C2  UNL     1      26.750  -0.584  53.176  1.00  0.00     0.083 C 
HETATM    3  C12 UNL     1      27.294  -1.965  53.071  1.00  0.00     0.007 C 
HETATM    4  C13 UNL     1      28.611  -2.228  53.066  1.00  0.00    -0.002 C 
HETATM    5  C14 UNL     1      29.720  -1.246  53.161  1.00  0.00    -0.003 C 
HETATM    6  C15 UNL     1      29.563  -0.094  53.848  1.00  0.00    -0.008 C 
HETATM    7  C16 UNL     1      28.440   0.498  54.616  1.00  0.00     0.142 C 
HETATM    8  N2  UNL     1      27.143   0.176  54.281  1.00  0.00    -0.404 N 
HETATM    9  H18 UNL     1      26.542   0.012  55.093  1.00  0.00     0.154 HD
BRANCH   2  10
HETATM   10  C1  UNL     1      25.272  -0.739  53.273  1.00  0.00     0.426 C 
HETATM   11  O1  UNL     1      24.066  -0.686  53.155  1.00  0.00    -0.427 OA
ENDBRANCH   2  10
ENDBRANCH   1   2
BRANCH   1  12
HETATM   12  C4  UNL     1      26.416   1.541  51.898  1.00  0.00     0.220 C 
HETATM   13  O2  UNL     1      27.365   2.366  51.946  1.00  0.00    -0.274 OA
HETATM   14  N1  UNL     1      25.028   1.794  51.826  1.00  0.00    -0.357 N 
HETATM   15  H4  UNL     1      24.439   0.943  51.796  1.00  0.00     0.162 HD
BRANCH  14  16
HETATM   16  C5  UNL     1      24.524   3.144  51.800  1.00  0.00     0.161 C 
BRANCH  16  17
HETATM   17  C6  UNL     1      23.961   3.541  50.486  1.00  0.00    -0.041 A 
HETATM   18  C7  UNL     1      23.216   2.597  49.805  1.00  0.00     0.009 A 
HETATM   19  C8  UNL     1      22.613   2.778  48.581  1.00  0.00     0.001 A 
HETATM   20  C9  UNL     1      22.769   4.011  47.988  1.00  0.00     0.000 A 
HETATM   21  C10 UNL     1      23.505   4.990  48.628  1.00  0.00     0.001 A 
HETATM   22  C11 UNL     1      24.100   4.768  49.867  1.00  0.00     0.009 A 
ENDBRANCH  16  17
ENDBRANCH  14  16
ENDBRANCH   1  12
TORSDOF 5
ENDMDL
MODEL 7
REMARK VINA RESULT:      -6.7      3.427      6.994
REMARK  5 active torsions:
REMARK  status: ('A' for Active; 'I' for Inactive)
REMARK    1  A    between atoms: C1_2  and  C2_3 
REMARK    2  A    between atoms: C2_3  and  C3_4 
REMARK    3  A    between atoms: C3_4  and  C4_5 
REMARK       I    between atoms: C4_5  and  N1_7 
REMARK    4  A    between atoms: N1_7  and  C5_8 
REMARK    5  A    between atoms: C5_8  and  C6_9 
ROOT
HETATM    1  C3  UNL     1      24.106   3.243  49.518  1.00  0.00     0.140 C 
ENDROOT
BRANCH   1   2
HETATM    2  C2  UNL     1      25.177   3.519  50.535  1.00  0.00     0.083 C 
HETATM    3  C12 UNL     1      26.536   3.512  49.927  1.00  0.00     0.007 C 
HETATM    4  C13 UNL     1      26.962   4.473  49.092  1.00  0.00    -0.002 C 
HETATM    5  C14 UNL     1      26.203   5.666  48.639  1.00  0.00    -0.003 C 
HETATM    6  C15 UNL     1      25.276   6.238  49.438  1.00  0.00    -0.008 C 
HETATM    7  C16 UNL     1      24.775   5.941  50.802  1.00  0.00     0.142 C 
HETATM    8  N2  UNL     1      24.813   4.648  51.274  1.00  0.00    -0.404 N 
HETATM    9  H18 UNL     1      25.114   4.580  52.250  1.00  0.00     0.154 HD
BRANCH   2  10
HETATM   10  C1  UNL     1      25.152   2.368  51.480  1.00  0.00     0.426 C 
HETATM   11  O1  UNL     1      25.307   1.325  52.079  1.00  0.00    -0.427 OA
ENDBRANCH   2  10
ENDBRANCH   1   2
BRANCH   1  12
HETATM   12  C4  UNL     1      22.845   2.758  50.044  1.00  0.00     0.220 C 
HETATM   13  O2  UNL     1      22.125   3.766  50.271  1.00  0.00    -0.274 OA
HETATM   14  N1  UNL     1      22.541   1.392  50.241  1.00  0.00    -0.357 N 
HETATM   15  H4  UNL     1      23.302   0.743  49.978  1.00  0.00     0.162 HD
BRANCH  14  16
HETATM   16  C5  UNL     1      21.261   0.990  50.771  1.00  0.00     0.161 C 
BRANCH  16  17
HETATM   17  C6  UNL     1      21.325   0.514  52.175  1.00  0.00    -0.041 A 
HETATM   18  C7  UNL     1      22.298  -0.417  52.484  1.00  0.00     0.009 A 
HETATM   19  C8  UNL     1      22.515  -0.971  53.726  1.00  0.00     0.001 A 
HETATM   20  C9  UNL     1      21.686  -0.557  54.744  1.00  0.00     0.000 A 
HETATM   21  C10 UNL     1      20.697   0.373  54.487  1.00  0.00     0.001 A 
HETATM   22  C11 UNL     1      20.509   0.910  53.216  1.00  0.00     0.009 A 
ENDBRANCH  16  17
ENDBRANCH  14  16
ENDBRANCH   1  12
TORSDOF 5
ENDMDL
MODEL 8
REMARK VINA RESULT:      -6.6      2.278      3.224
REMARK  5 active torsions:
REMARK  status: ('A' for Active; 'I' for Inactive)
REMARK    1  A    between atoms: C1_2  and  C2_3 
REMARK    2  A    between atoms: C2_3  and  C3_4 
REMARK    3  A    between atoms: C3_4  and  C4_5 
REMARK       I    between atoms: C4_5  and  N1_7 
REMARK    4  A    between atoms: N1_7  and  C5_8 
REMARK    5  A    between atoms: C5_8  and  C6_9 
ROOT
HETATM    1  C3  UNL     1      25.460   1.747  51.445  1.00  0.00     0.140 C 
ENDROOT
BRANCH   1   2
HETATM    2  C2  UNL     1      24.683   2.242  52.631  1.00  0.00     0.083 C 
HETATM    3  C12 UNL     1      23.495   1.390  52.911  1.00  0.00     0.007 C 
HETATM    4  C13 UNL     1      23.594   0.140  53.390  1.00  0.00    -0.002 C 
HETATM    5  C14 UNL     1      24.841  -0.596  53.717  1.00  0.00    -0.003 C 
HETATM    6  C15 UNL     1      25.939   0.064  54.144  1.00  0.00    -0.008 C 
HETATM    7  C16 UNL     1      26.243   1.495  54.394  1.00  0.00     0.142 C 
HETATM    8  N2  UNL     1      25.571   2.466  53.687  1.00  0.00    -0.404 N 
HETATM    9  H18 UNL     1      25.289   3.265  54.261  1.00  0.00     0.154 HD
BRANCH   2  10
HETATM   10  C1  UNL     1      24.143   3.574  52.241  1.00  0.00     0.426 C 
HETATM   11  O1  UNL     1      23.752   4.573  51.677  1.00  0.00    -0.427 OA
ENDBRANCH   2  10
ENDBRANCH   1   2
BRANCH   1  12
HETATM   12  C4  UNL     1      26.407   2.685  50.873  1.00  0.00     0.220 C 
HETATM   13  O2  UNL     1      27.450   2.634  51.575  1.00  0.00    -0.274 OA
HETATM   14  N1  UNL     1      26.145   3.481  49.735  1.00  0.00    -0.357 N 
HETATM   15  H4  UNL     1      25.205   3.345  49.326  1.00  0.00     0.162 HD
BRANCH  14  16
HETATM   16  C5  UNL     1      27.141   4.393  49.227  1.00  0.00     0.161 C 
BRANCH  16  17
HETATM   17  C6  UNL     1      26.569   5.651  48.686  1.00  0.00    -0.041 A 
HETATM   18  C7  UNL     1      27.448   6.555  48.122  1.00  0.00     0.009 A 
HETATM   19  C8  UNL     1      27.108   7.768  47.567  1.00  0.00     0.001 A 
HETATM   20  C9  UNL     1      25.773   8.104  47.578  1.00  0.00     0.000 A 
HETATM   21  C10 UNL     1      24.853   7.234  48.130  1.00  0.00     0.001 A 
HETATM   22  C11 UNL     1      25.236   6.015  48.682  1.00  0.00     0.009 A 
ENDBRANCH  16  17
ENDBRANCH  14  16
ENDBRANCH   1  12
TORSDOF 5
ENDMDL
MODEL 9
REMARK VINA RESULT:      -6.6      2.971      4.357
REMARK  5 active torsions:
REMARK  status: ('A' for Active; 'I' for Inactive)
REMARK    1  A    between atoms: C1_2  and  C2_3 
REMARK    2  A    between atoms: C2_3  and  C3_4 
REMARK    3  A    between atoms: C3_4  and  C4_5 
REMARK       I    between atoms: C4_5  and  N1_7 
REMARK    4  A    between atoms: N1_7  and  C5_8 
REMARK    5  A    between atoms: C5_8  and  C6_9 
ROOT
HETATM    1  C3  UNL     1      23.434   2.549  52.937  1.00  0.00     0.140 C 
ENDROOT
BRANCH   1   2
HETATM    2  C2  UNL     1      23.742   1.206  52.339  1.00  0.00     0.083 C 
HETATM    3  C12 UNL     1      23.713   0.123  53.360  1.00  0.00     0.007 C 
HETATM    4  C13 UNL     1      22.576  -0.300  53.937  1.00  0.00    -0.002 C 
HETATM    5  C14 UNL     1      21.203   0.202  53.681  1.00  0.00    -0.003 C 
HETATM    6  C15 UNL     1      20.859   0.680  52.466  1.00  0.00    -0.008 C 
HETATM    7  C16 UNL     1      21.589   0.846  51.185  1.00  0.00     0.142 C 
HETATM    8  N2  UNL     1      22.953   1.031  51.199  1.00  0.00    -0.404 N 
HETATM    9  H18 UNL     1      23.443   0.502  50.472  1.00  0.00     0.154 HD
BRANCH   2  10
HETATM   10  C1  UNL     1      25.154   1.280  51.870  1.00  0.00     0.426 C 
HETATM   11  O1  UNL     1      26.251   1.599  51.465  1.00  0.00    -0.427 OA
ENDBRANCH   2  10
ENDBRANCH   1   2
BRANCH   1  12
HETATM   12  C4  UNL     1      23.456   3.670  52.018  1.00  0.00     0.220 C 
HETATM   13  O2  UNL     1      22.262   4.026  51.837  1.00  0.00    -0.274 OA
HETATM   14  N1  UNL     1      24.635   4.216  51.462  1.00  0.00    -0.357 N 
HETATM   15  H4  UNL     1      25.507   3.748  51.764  1.00  0.00     0.162 HD
BRANCH  14  16
HETATM   16  C5  UNL     1      24.573   5.334  50.553  1.00  0.00     0.161 C 
BRANCH  16  17
HETATM   17  C6  UNL     1      25.802   5.502  49.738  1.00  0.00    -0.041 A 
HETATM   18  C7  UNL     1      26.132   6.786  49.348  1.00  0.00     0.009 A 
HETATM   19  C8  UNL     1      27.230   7.141  48.596  1.00  0.00     0.001 A 
HETATM   20  C9  UNL     1      28.069   6.122  48.203  1.00  0.00     0.000 A 
HETATM   21  C10 UNL     1      27.783   4.820  48.567  1.00  0.00     0.001 A 
HETATM   22  C11 UNL     1      26.662   4.502  49.328  1.00  0.00     0.009 A 
ENDBRANCH  16  17
ENDBRANCH  14  16
ENDBRANCH   1  12
TORSDOF 5
ENDMDL
