MODEL 1
REMARK VINA RESULT:      -7.6      0.000      0.000
REMARK  1 active torsions:
REMARK  status: ('A' for Active; 'I' for Inactive)
REMARK       I    between atoms: C2_2  and  N1_4 
REMARK    1  A    between atoms: N1_4  and  C3_5 
ROOT
HETATM    1  C3  UNL     1      25.528   2.992  51.254  1.00  0.00     0.032 C 
HETATM    2  C4  UNL     1      24.364   2.692  50.786  1.00  0.00     0.027 C 
HETATM    3  C5  UNL     1      23.214   2.991  50.046  1.00  0.00     0.006 C 
HETATM    4  C6  UNL     1      22.044   2.667  49.589  1.00  0.00    -0.056 C 
HETATM    5  C7  UNL     1      21.395   3.736  48.739  1.00  0.00     0.045 C 
HETATM    6  C8  UNL     1      21.073   1.555  49.635  1.00  0.00     0.305 C 
HETATM    7  N2  UNL     1      21.432   0.429  50.431  1.00  0.00     0.106 N 
HETATM    8  C9  UNL     1      21.422   0.722  51.856  1.00  0.00     0.417 C 
HETATM    9  N3  UNL     1      21.703  -0.483  52.558  1.00  0.00    -0.276 NA
HETATM   10  C10 UNL     1      22.649  -0.709  53.348  1.00  0.00     0.091 C 
HETATM   11  C11 UNL     1      23.819  -0.843  54.263  1.00  0.00     0.107 C 
HETATM   12  C12 UNL     1      25.067  -0.531  53.477  1.00  0.00     0.061 A 
HETATM   13  C13 UNL     1      26.162  -1.148  52.941  1.00  0.00     0.048 A 
HETATM   14  C14 UNL     1      26.890  -0.154  52.329  1.00  0.00     0.114 A 
HETATM   15  N4  UNL     1      26.235   1.034  52.500  1.00  0.00    -0.275 N 
HETATM   16  N5  UNL     1      25.147   0.769  53.192  1.00  0.00    -0.177 NA
HETATM   17  C15 UNL     1      26.553   2.367  52.071  1.00  0.00     0.207 C 
HETATM   18  H12 UNL     1      20.752  -0.343  50.269  1.00  0.00     0.318 HD
ENDROOT
BRANCH   1  19
HETATM   19  N1  UNL     1      25.517   4.234  50.665  1.00  0.00    -0.329 N 
HETATM   20  C2  UNL     1      26.462   4.298  49.582  1.00  0.00     0.217 C 
HETATM   21  C1  UNL     1      26.751   5.459  48.698  1.00  0.00     0.117 C 
HETATM   22  O1  UNL     1      27.200   3.337  49.225  1.00  0.00    -0.274 OA
HETATM   23  H4  UNL     1      25.069   5.175  50.722  1.00  0.00     0.168 HD
ENDBRANCH   1  19
TORSDOF 1
ENDMDL
MODEL 2
REMARK VINA RESULT:      -7.5      2.240      4.468
REMARK  1 active torsions:
REMARK  status: ('A' for Active; 'I' for Inactive)
REMARK       I    between atoms: C2_2  and  N1_4 
REMARK    1  A    between atoms: N1_4  and  C3_5 
ROOT
HETATM    1  C3  UNL     1      25.372   1.497  51.983  1.00  0.00     0.032 C 
HETATM    2  C4  UNL     1      25.242   2.459  51.134  1.00  0.00     0.027 C 
HETATM    3  C5  UNL     1      25.769   3.447  50.294  1.00  0.00     0.006 C 
HETATM    4  C6  UNL     1      25.613   4.413  49.443  1.00  0.00    -0.056 C 
HETATM    5  C7  UNL     1      26.908   5.025  48.956  1.00  0.00     0.045 C 
HETATM    6  C8  UNL     1      24.540   5.169  48.766  1.00  0.00     0.305 C 
HETATM    7  N2  UNL     1      23.202   4.815  49.103  1.00  0.00     0.106 N 
HETATM    8  C9  UNL     1      22.844   5.194  50.462  1.00  0.00     0.417 C 
HETATM    9  N3  UNL     1      21.471   4.880  50.662  1.00  0.00    -0.276 NA
HETATM   10  C10 UNL     1      20.977   4.111  51.519  1.00  0.00     0.091 C 
HETATM   11  C11 UNL     1      20.523   3.171  52.585  1.00  0.00     0.107 C 
HETATM   12  C12 UNL     1      21.213   1.849  52.368  1.00  0.00     0.061 A 
HETATM   13  C13 UNL     1      20.952   0.574  51.952  1.00  0.00     0.048 A 
HETATM   14  C14 UNL     1      22.152  -0.096  52.020  1.00  0.00     0.114 A 
HETATM   15  N4  UNL     1      23.110   0.770  52.471  1.00  0.00    -0.275 N 
HETATM   16  N5  UNL     1      22.511   1.926  52.668  1.00  0.00    -0.177 NA
HETATM   17  C15 UNL     1      24.512   0.591  52.724  1.00  0.00     0.207 C 
HETATM   18  H12 UNL     1      22.540   5.302  48.462  1.00  0.00     0.318 HD
ENDROOT
BRANCH   1  19
HETATM   19  N1  UNL     1      26.745   1.583  51.969  1.00  0.00    -0.329 N 
HETATM   20  C2  UNL     1      27.243   2.051  53.235  1.00  0.00     0.217 C 
HETATM   21  C1  UNL     1      28.661   2.277  53.622  1.00  0.00     0.117 C 
HETATM   22  O1  UNL     1      26.512   2.343  54.223  1.00  0.00    -0.274 OA
HETATM   23  H4  UNL     1      27.579   1.436  51.359  1.00  0.00     0.168 HD
ENDBRANCH   1  19
TORSDOF 1
ENDMDL
MODEL 3
REMARK VINA RESULT:      -7.5      2.422      3.087
REMARK  1 active torsions:
REMARK  status: ('A' for Active; 'I' for Inactive)
REMARK       I    between atoms: C2_2  and  N1_4 
REMARK    1  A    between atoms: N1_4  and  C3_5 
ROOT
HETATM    1  C3  UNL     1      23.744   2.115  51.601  1.00  0.00     0.032 C 
HETATM    2  C4  UNL     1      22.677   1.485  51.957  1.00  0.00     0.027 C 
HETATM    3  C5  UNL     1      21.285   1.337  52.004  1.00  0.00     0.006 C 
HETATM    4  C6  UNL     1      20.227   0.686  52.375  1.00  0.00    -0.056 C 
HETATM    5  C7  UNL     1      18.925   1.319  51.934  1.00  0.00     0.045 C 
HETATM    6  C8  UNL     1      19.842  -0.518  53.138  1.00  0.00     0.305 C 
HETATM    7  N2  UNL     1      20.903  -1.272  53.715  1.00  0.00     0.106 N 
HETATM    8  C9  UNL     1      21.555  -0.577  54.815  1.00  0.00     0.417 C 
HETATM    9  N3  UNL     1      22.530  -1.448  55.374  1.00  0.00    -0.276 NA
HETATM   10  C10 UNL     1      23.765  -1.254  55.476  1.00  0.00     0.091 C 
HETATM   11  C11 UNL     1      25.212  -0.896  55.533  1.00  0.00     0.107 C 
HETATM   12  C12 UNL     1      25.679  -0.612  54.128  1.00  0.00     0.061 A 
HETATM   13  C13 UNL     1      26.454  -1.151  53.142  1.00  0.00     0.048 A 
HETATM   14  C14 UNL     1      26.387  -0.269  52.088  1.00  0.00     0.114 A 
HETATM   15  N4  UNL     1      25.583   0.777  52.446  1.00  0.00    -0.275 N 
HETATM   16  N5  UNL     1      25.176   0.538  53.675  1.00  0.00    -0.177 NA
HETATM   17  C15 UNL     1      25.181   1.957  51.732  1.00  0.00     0.207 C 
HETATM   18  H12 UNL     1      20.529  -2.168  54.095  1.00  0.00     0.318 HD
ENDROOT
BRANCH   1  19
HETATM   19  N1  UNL     1      23.028   3.103  50.966  1.00  0.00    -0.329 N 
HETATM   20  C2  UNL     1      23.047   4.323  51.729  1.00  0.00     0.217 C 
HETATM   21  C1  UNL     1      22.395   5.615  51.388  1.00  0.00     0.117 C 
HETATM   22  O1  UNL     1      23.643   4.460  52.835  1.00  0.00    -0.274 OA
HETATM   23  H4  UNL     1      22.455   3.295  50.116  1.00  0.00     0.168 HD
ENDBRANCH   1  19
TORSDOF 1
ENDMDL
MODEL 4
REMARK VINA RESULT:      -7.4      1.856      4.907
REMARK  1 active torsions:
REMARK  status: ('A' for Active; 'I' for Inactive)
REMARK       I    between atoms: C2_2  and  N1_4 
REMARK    1  A    between atoms: N1_4  and  C3_5 
ROOT
HETATM    1  C3  UNL     1      25.823   1.359  51.970  1.00  0.00     0.032 C 
HETATM    2  C4  UNL     1      24.637   1.067  52.384  1.00  0.00     0.027 C 
HETATM    3  C5  UNL     1      23.749   0.317  53.166  1.00  0.00     0.006 C 
HETATM    4  C6  UNL     1      22.547   0.041  53.566  1.00  0.00    -0.056 C 
HETATM    5  C7  UNL     1      22.475  -1.079  54.579  1.00  0.00     0.045 C 
HETATM    6  C8  UNL     1      21.149   0.461  53.341  1.00  0.00     0.305 C 
HETATM    7  N2  UNL     1      20.940   1.485  52.372  1.00  0.00     0.106 N 
HETATM    8  C9  UNL     1      21.202   1.035  51.013  1.00  0.00     0.417 C 
HETATM    9  N3  UNL     1      20.877   2.098  50.125  1.00  0.00    -0.276 NA
HETATM   10  C10 UNL     1      21.633   2.673  49.307  1.00  0.00     0.091 C 
HETATM   11  C11 UNL     1      22.638   3.270  48.380  1.00  0.00     0.107 C 
HETATM   12  C12 UNL     1      23.796   3.770  49.205  1.00  0.00     0.061 A 
HETATM   13  C13 UNL     1      24.366   4.936  49.632  1.00  0.00     0.048 A 
HETATM   14  C14 UNL     1      25.449   4.567  50.396  1.00  0.00     0.114 A 
HETATM   15  N4  UNL     1      25.519   3.201  50.422  1.00  0.00    -0.275 N 
HETATM   16  N5  UNL     1      24.512   2.758  49.698  1.00  0.00    -0.177 NA
HETATM   17  C15 UNL     1      26.442   2.307  51.061  1.00  0.00     0.207 C 
HETATM   18  H12 UNL     1      19.948   1.801  52.408  1.00  0.00     0.318 HD
ENDROOT
BRANCH   1  19
HETATM   19  N1  UNL     1      26.406   0.391  52.753  1.00  0.00    -0.329 N 
HETATM   20  C2  UNL     1      27.245   0.982  53.762  1.00  0.00     0.217 C 
HETATM   21  C1  UNL     1      28.046   0.279  54.799  1.00  0.00     0.117 C 
HETATM   22  O1  UNL     1      27.419   2.225  53.902  1.00  0.00    -0.274 OA
HETATM   23  H4  UNL     1      26.472  -0.643  52.883  1.00  0.00     0.168 HD
ENDBRANCH   1  19
TORSDOF 1
ENDMDL
MODEL 5
REMARK VINA RESULT:      -7.3      1.343      1.943
REMARK  1 active torsions:
REMARK  status: ('A' for Active; 'I' for Inactive)
REMARK       I    between atoms: C2_2  and  N1_4 
REMARK    1  A    between atoms: N1_4  and  C3_5 
ROOT
HETATM    1  C3  UNL     1      24.635   3.105  51.082  1.00  0.00     0.032 C 
HETATM    2  C4  UNL     1      23.690   2.913  50.225  1.00  0.00     0.027 C 
HETATM    3  C5  UNL     1      23.012   3.226  49.041  1.00  0.00     0.006 C 
HETATM    4  C6  UNL     1      22.052   3.015  48.195  1.00  0.00    -0.056 C 
HETATM    5  C7  UNL     1      22.060   3.949  47.005  1.00  0.00     0.045 C 
HETATM    6  C8  UNL     1      20.882   2.136  47.999  1.00  0.00     0.305 C 
HETATM    7  N2  UNL     1      20.620   1.187  49.029  1.00  0.00     0.106 N 
HETATM    8  C9  UNL     1      20.161   1.807  50.263  1.00  0.00     0.417 C 
HETATM    9  N3  UNL     1      19.843   0.773  51.186  1.00  0.00    -0.276 NA
HETATM   10  C10 UNL     1      20.340   0.578  52.321  1.00  0.00     0.091 C 
HETATM   11  C11 UNL     1      21.014   0.461  53.647  1.00  0.00     0.107 C 
HETATM   12  C12 UNL     1      22.498   0.351  53.409  1.00  0.00     0.061 A 
HETATM   13  C13 UNL     1      23.515  -0.559  53.470  1.00  0.00     0.048 A 
HETATM   14  C14 UNL     1      24.647   0.115  53.074  1.00  0.00     0.114 A 
HETATM   15  N4  UNL     1      24.304   1.407  52.782  1.00  0.00    -0.275 N 
HETATM   16  N5  UNL     1      23.009   1.511  52.994  1.00  0.00    -0.177 NA
HETATM   17  C15 UNL     1      25.089   2.521  52.331  1.00  0.00     0.207 C 
HETATM   18  H12 UNL     1      19.873   0.530  48.716  1.00  0.00     0.318 HD
ENDROOT
BRANCH   1  19
HETATM   19  N1  UNL     1      25.162   4.153  50.364  1.00  0.00    -0.329 N 
HETATM   20  C2  UNL     1      26.408   3.780  49.750  1.00  0.00     0.217 C 
HETATM   21  C1  UNL     1      27.286   4.625  48.897  1.00  0.00     0.117 C 
HETATM   22  O1  UNL     1      26.942   2.640  49.859  1.00  0.00    -0.274 OA
HETATM   23  H4  UNL     1      24.989   5.148  50.102  1.00  0.00     0.168 HD
ENDBRANCH   1  19
TORSDOF 1
ENDMDL
MODEL 6
REMARK VINA RESULT:      -7.3      2.149      4.446
REMARK  1 active torsions:
REMARK  status: ('A' for Active; 'I' for Inactive)
REMARK       I    between atoms: C2_2  and  N1_4 
REMARK    1  A    between atoms: N1_4  and  C3_5 
ROOT
HETATM    1  C3  UNL     1      25.432   0.528  53.229  1.00  0.00     0.032 C 
HETATM    2  C4  UNL     1      25.282   1.305  52.211  1.00  0.00     0.027 C 
HETATM    3  C5  UNL     1      25.781   2.182  51.241  1.00  0.00     0.006 C 
HETATM    4  C6  UNL     1      25.605   2.961  50.218  1.00  0.00    -0.056 C 
HETATM    5  C7  UNL     1      26.872   3.618  49.716  1.00  0.00     0.045 C 
HETATM    6  C8  UNL     1      24.526   3.462  49.344  1.00  0.00     0.305 C 
HETATM    7  N2  UNL     1      23.205   3.025  49.648  1.00  0.00     0.106 N 
HETATM    8  C9  UNL     1      22.697   3.594  50.887  1.00  0.00     0.417 C 
HETATM    9  N3  UNL     1      21.349   3.169  51.049  1.00  0.00    -0.276 NA
HETATM   10  C10 UNL     1      20.859   2.513  51.998  1.00  0.00     0.091 C 
HETATM   11  C11 UNL     1      20.408   1.730  53.185  1.00  0.00     0.107 C 
HETATM   12  C12 UNL     1      21.241   0.476  53.261  1.00  0.00     0.061 A 
HETATM   13  C13 UNL     1      21.143  -0.873  53.070  1.00  0.00     0.048 A 
HETATM   14  C14 UNL     1      22.392  -1.383  53.341  1.00  0.00     0.114 A 
HETATM   15  N4  UNL     1      23.218  -0.350  53.688  1.00  0.00    -0.275 N 
HETATM   16  N5  UNL     1      22.494   0.748  53.629  1.00  0.00    -0.177 NA
HETATM   17  C15 UNL     1      24.603  -0.324  54.064  1.00  0.00     0.207 C 
HETATM   18  H12 UNL     1      22.557   3.316  48.885  1.00  0.00     0.318 HD
ENDROOT
BRANCH   1  19
HETATM   19  N1  UNL     1      26.785   0.762  53.292  1.00  0.00    -0.329 N 
HETATM   20  C2  UNL     1      27.524  -0.472  53.251  1.00  0.00     0.217 C 
HETATM   21  C1  UNL     1      29.000  -0.646  53.296  1.00  0.00     0.117 C 
HETATM   22  O1  UNL     1      26.993  -1.615  53.168  1.00  0.00    -0.274 OA
HETATM   23  H4  UNL     1      27.492   1.527  53.370  1.00  0.00     0.168 HD
ENDBRANCH   1  19
TORSDOF 1
ENDMDL
MODEL 7
REMARK VINA RESULT:      -7.3      1.727      4.540
REMARK  1 active torsions:
REMARK  status: ('A' for Active; 'I' for Inactive)
REMARK       I    between atoms: C2_2  and  N1_4 
REMARK    1  A    between atoms: N1_4  and  C3_5 
ROOT
HETATM    1  C3  UNL     1      25.584   3.225  50.896  1.00  0.00     0.032 C 
HETATM    2  C4  UNL     1      26.071   2.478  51.828  1.00  0.00     0.027 C 
HETATM    3  C5  UNL     1      27.145   1.915  52.526  1.00  0.00     0.006 C 
HETATM    4  C6  UNL     1      27.611   1.156  53.470  1.00  0.00    -0.056 C 
HETATM    5  C7  UNL     1      29.122   1.107  53.535  1.00  0.00     0.045 C 
HETATM    6  C8  UNL     1      27.140   0.264  54.548  1.00  0.00     0.305 C 
HETATM    7  N2  UNL     1      25.730   0.094  54.663  1.00  0.00     0.106 N 
HETATM    8  C9  UNL     1      25.162  -0.662  53.557  1.00  0.00     0.417 C 
HETATM    9  N3  UNL     1      23.776  -0.851  53.816  1.00  0.00    -0.276 NA
HETATM   10  C10 UNL     1      22.807  -0.482  53.112  1.00  0.00     0.091 C 
HETATM   11  C11 UNL     1      21.749   0.012  52.183  1.00  0.00     0.107 C 
HETATM   12  C12 UNL     1      21.932   1.499  52.015  1.00  0.00     0.061 A 
HETATM   13  C13 UNL     1      21.350   2.683  52.367  1.00  0.00     0.048 A 
HETATM   14  C14 UNL     1      22.141   3.667  51.821  1.00  0.00     0.114 A 
HETATM   15  N4  UNL     1      23.177   3.074  51.154  1.00  0.00    -0.275 N 
HETATM   16  N5  UNL     1      23.019   1.774  51.292  1.00  0.00    -0.177 NA
HETATM   17  C15 UNL     1      24.275   3.628  50.414  1.00  0.00     0.207 C 
HETATM   18  H12 UNL     1      25.512  -0.427  55.539  1.00  0.00     0.318 HD
ENDROOT
BRANCH   1  19
HETATM   19  N1  UNL     1      26.831   3.584  50.441  1.00  0.00    -0.329 N 
HETATM   20  C2  UNL     1      26.732   4.505  49.340  1.00  0.00     0.217 C 
HETATM   21  C1  UNL     1      27.845   5.125  48.575  1.00  0.00     0.117 C 
HETATM   22  O1  UNL     1      25.640   4.923  48.860  1.00  0.00    -0.274 OA
HETATM   23  H4  UNL     1      27.850   3.422  50.600  1.00  0.00     0.168 HD
ENDBRANCH   1  19
TORSDOF 1
ENDMDL
MODEL 8
REMARK VINA RESULT:      -7.3      2.431      5.023
REMARK  1 active torsions:
REMARK  status: ('A' for Active; 'I' for Inactive)
REMARK       I    between atoms: C2_2  and  N1_4 
REMARK    1  A    between atoms: N1_4  and  C3_5 
ROOT
HETATM    1  C3  UNL     1      22.294   0.052  52.164  1.00  0.00     0.032 C 
HETATM    2  C4  UNL     1      22.763   1.174  51.734  1.00  0.00     0.027 C 
HETATM    3  C5  UNL     1      22.673   2.335  50.957  1.00  0.00     0.006 C 
HETATM    4  C6  UNL     1      23.166   3.459  50.537  1.00  0.00    -0.056 C 
HETATM    5  C7  UNL     1      22.273   4.203  49.570  1.00  0.00     0.045 C 
HETATM    6  C8  UNL     1      24.377   4.292  50.678  1.00  0.00     0.305 C 
HETATM    7  N2  UNL     1      25.412   3.776  51.509  1.00  0.00     0.106 N 
HETATM    8  C9  UNL     1      26.072   2.615  50.929  1.00  0.00     0.417 C 
HETATM    9  N3  UNL     1      27.140   2.238  51.790  1.00  0.00    -0.276 NA
HETATM   10  C10 UNL     1      27.308   1.139  52.369  1.00  0.00     0.091 C 
HETATM   11  C11 UNL     1      27.385  -0.212  52.996  1.00  0.00     0.107 C 
HETATM   12  C12 UNL     1      26.125  -0.430  53.794  1.00  0.00     0.061 A 
HETATM   13  C13 UNL     1      25.690  -0.500  55.087  1.00  0.00     0.048 A 
HETATM   14  C14 UNL     1      24.335  -0.727  55.016  1.00  0.00     0.114 A 
HETATM   15  N4  UNL     1      23.973  -0.790  53.699  1.00  0.00    -0.275 N 
HETATM   16  N5  UNL     1      25.071  -0.607  52.996  1.00  0.00    -0.177 NA
HETATM   17  C15 UNL     1      22.700  -1.007  53.071  1.00  0.00     0.207 C 
HETATM   18  H12 UNL     1      26.141   4.506  51.654  1.00  0.00     0.318 HD
ENDROOT
BRANCH   1  19
HETATM   19  N1  UNL     1      21.140   0.175  51.426  1.00  0.00    -0.329 N 
HETATM   20  C2  UNL     1      19.983   0.195  52.279  1.00  0.00     0.217 C 
HETATM   21  C1  UNL     1      18.558   0.315  51.871  1.00  0.00     0.117 C 
HETATM   22  O1  UNL     1      20.027   0.110  53.539  1.00  0.00    -0.274 OA
HETATM   23  H4  UNL     1      20.787   0.253  50.447  1.00  0.00     0.168 HD
ENDBRANCH   1  19
TORSDOF 1
ENDMDL
MODEL 9
REMARK VINA RESULT:      -7.1      2.804      5.216
REMARK  1 active torsions:
REMARK  status: ('A' for Active; 'I' for Inactive)
REMARK       I    between atoms: C2_2  and  N1_4 
REMARK    1  A    between atoms: N1_4  and  C3_5 
ROOT
HETATM    1  C3  UNL     1      20.052   1.551  52.275  1.00  0.00     0.032 C 
HETATM    2  C4  UNL     1      20.894   2.528  52.287  1.00  0.00     0.027 C 
HETATM    3  C5  UNL     1      21.277   3.835  51.961  1.00  0.00     0.006 C 
HETATM    4  C6  UNL     1      22.141   4.802  51.984  1.00  0.00    -0.056 C 
HETATM    5  C7  UNL     1      21.675   6.065  51.295  1.00  0.00     0.045 C 
HETATM    6  C8  UNL     1      23.505   5.096  52.467  1.00  0.00     0.305 C 
HETATM    7  N2  UNL     1      24.195   4.031  53.115  1.00  0.00     0.106 N 
HETATM    8  C9  UNL     1      24.566   2.962  52.200  1.00  0.00     0.417 C 
HETATM    9  N3  UNL     1      25.323   2.001  52.927  1.00  0.00    -0.276 NA
HETATM   10  C10 UNL     1      25.063   0.786  53.093  1.00  0.00     0.091 C 
HETATM   11  C11 UNL     1      24.636  -0.638  53.213  1.00  0.00     0.107 C 
HETATM   12  C12 UNL     1      23.257  -0.663  53.822  1.00  0.00     0.061 A 
HETATM   13  C13 UNL     1      22.620  -0.987  54.986  1.00  0.00     0.048 A 
HETATM   14  C14 UNL     1      21.288  -0.716  54.773  1.00  0.00     0.114 A 
HETATM   15  N4  UNL     1      21.139  -0.238  53.500  1.00  0.00    -0.275 N 
HETATM   16  N5  UNL     1      22.340  -0.220  52.960  1.00  0.00    -0.177 NA
HETATM   17  C15 UNL     1      19.976   0.190  52.774  1.00  0.00     0.207 C 
HETATM   18  H12 UNL     1      25.074   4.393  53.541  1.00  0.00     0.318 HD
ENDROOT
BRANCH   1  19
HETATM   19  N1  UNL     1      19.120   2.276  51.570  1.00  0.00    -0.329 N 
HETATM   20  C2  UNL     1      19.061   1.844  50.199  1.00  0.00     0.217 C 
HETATM   21  C1  UNL     1      18.187   2.373  49.119  1.00  0.00     0.117 C 
HETATM   22  O1  UNL     1      19.775   0.921  49.714  1.00  0.00    -0.274 OA
HETATM   23  H4  UNL     1      18.427   3.051  51.665  1.00  0.00     0.168 HD
ENDBRANCH   1  19
TORSDOF 1
ENDMDL
