MODEL 1
REMARK VINA RESULT:      -7.7      0.000      0.000
REMARK  13 active torsions:
REMARK  status: ('A' for Active; 'I' for Inactive)
REMARK    1  A    between atoms: C2_2  and  C3_3 
REMARK    2  A    between atoms: C4_4  and  C5_5 
REMARK    3  A    between atoms: C5_5  and  C6_6 
REMARK    4  A    between atoms: C6_6  and  N1_7 
REMARK    5  A    between atoms: N1_7  and  C7_8 
REMARK    6  A    between atoms: C11_15  and  C12_16 
REMARK    7  A    between atoms: C12_16  and  N5_17 
REMARK    8  A    between atoms: C15_20  and  N6_21 
REMARK    9  A    between atoms: N8_27  and  C20_28 
REMARK   10  A    between atoms: C20_28  and  C21_29 
REMARK   11  A    between atoms: C21_29  and  C22_30 
REMARK   12  A    between atoms: C22_30  and  C23_31 
REMARK   13  A    between atoms: C23_31  and  C24_32 
ROOT
HETATM    1  C7  UNL     1      21.032   0.912  52.293  1.00  0.00     0.154 A 
HETATM    2  N2  UNL     1      19.731   0.898  51.965  1.00  0.00    -0.221 NA
HETATM    3  C8  UNL     1      18.904  -0.001  52.508  1.00  0.00     0.258 A 
HETATM    4  N3  UNL     1      19.378  -0.900  53.391  1.00  0.00    -0.161 NA
HETATM    5  N4  UNL     1      20.678  -0.897  53.728  1.00  0.00    -0.240 N 
HETATM    6  C9  UNL     1      21.282  -1.729  54.590  1.00  0.00     0.119 A 
HETATM    7  C10 UNL     1      22.589  -1.298  54.567  1.00  0.00     0.030 A 
HETATM    8  C11 UNL     1      22.789  -0.209  53.700  1.00  0.00    -0.007 A 
HETATM    9  C18 UNL     1      21.522  -0.001  53.192  1.00  0.00     0.111 A 
ENDROOT
BRANCH   1  10
HETATM   10  N1  UNL     1      21.859   1.904  51.683  1.00  0.00    -0.369 N 
HETATM   11  H8  UNL     1      22.569   1.855  50.952  1.00  0.00     0.161 HD
BRANCH  10  12
HETATM   12  C6  UNL     1      21.758   3.287  52.098  1.00  0.00     0.149 C 
BRANCH  12  13
HETATM   13  C5  UNL     1      23.137   3.802  52.324  1.00  0.00     0.008 C 
BRANCH  13  14
HETATM   14  C4  UNL     1      23.685   4.717  51.528  1.00  0.00     0.009 A 
HETATM   15  C3  UNL     1      24.148   4.507  50.243  1.00  0.00     0.060 A 
HETATM   16  N8  UNL     1      24.604   5.720  49.852  1.00  0.00    -0.270 N 
HETATM   17  N7  UNL     1      24.423   6.572  50.830  1.00  0.00    -0.184 NA
HETATM   18  C19 UNL     1      23.853   6.012  51.908  1.00  0.00     0.152 A 
BRANCH  15  19
HETATM   19  C2  UNL     1      24.184   3.438  49.493  1.00  0.00     0.001 C 
HETATM   20  C1  UNL     1      23.236   2.872  48.540  1.00  0.00     0.038 C 
ENDBRANCH  15  19
BRANCH  16  21
HETATM   21  C20 UNL     1      25.202   6.078  48.576  1.00  0.00     0.152 C 
BRANCH  21  22
HETATM   22  C21 UNL     1      26.661   6.417  48.887  1.00  0.00     0.040 C 
BRANCH  22  23
HETATM   23  C22 UNL     1      27.475   5.248  48.586  1.00  0.00     0.075 C 
BRANCH  23  24
HETATM   24  C23 UNL     1      28.754   5.424  48.284  1.00  0.00    -0.121 C 
BRANCH  24  25
HETATM   25  C24 UNL     1      30.039   5.745  48.217  1.00  0.00     0.239 C 
HETATM   26  F1  UNL     1      30.446   6.352  47.082  1.00  0.00    -0.211 F 
ENDBRANCH  24  25
ENDBRANCH  23  24
ENDBRANCH  22  23
ENDBRANCH  21  22
ENDBRANCH  16  21
ENDBRANCH  13  14
ENDBRANCH  12  13
ENDBRANCH  10  12
ENDBRANCH   1  10
BRANCH   8  27
HETATM   27  C12 UNL     1      24.049   0.476  53.452  1.00  0.00     0.158 C 
BRANCH  27  28
HETATM   28  N5  UNL     1      25.253  -0.249  53.643  1.00  0.00    -0.408 N 
HETATM   29  C13 UNL     1      26.076  -0.460  52.507  1.00  0.00     0.119 C 
HETATM   30  C14 UNL     1      26.836   0.815  52.209  1.00  0.00     0.055 C 
HETATM   31  C15 UNL     1      27.452   1.299  53.485  1.00  0.00     0.221 C 
HETATM   32  C16 UNL     1      27.379   0.310  54.624  1.00  0.00     0.055 C 
HETATM   33  C17 UNL     1      25.925  -0.113  54.882  1.00  0.00     0.119 C 
BRANCH  31  34
HETATM   34  N6  UNL     1      26.862   2.576  53.838  1.00  0.00     0.083 N 
HETATM   35  H19 UNL     1      26.189   2.542  54.610  1.00  0.00     0.313 HD
HETATM   36  H20 UNL     1      26.586   3.080  52.990  1.00  0.00     0.313 HD
ENDBRANCH  31  34
ENDBRANCH  27  28
ENDBRANCH   8  27
TORSDOF 13
ENDMDL
MODEL 2
REMARK VINA RESULT:      -7.6      1.624      1.774
REMARK  13 active torsions:
REMARK  status: ('A' for Active; 'I' for Inactive)
REMARK    1  A    between atoms: C2_2  and  C3_3 
REMARK    2  A    between atoms: C4_4  and  C5_5 
REMARK    3  A    between atoms: C5_5  and  C6_6 
REMARK    4  A    between atoms: C6_6  and  N1_7 
REMARK    5  A    between atoms: N1_7  and  C7_8 
REMARK    6  A    between atoms: C11_15  and  C12_16 
REMARK    7  A    between atoms: C12_16  and  N5_17 
REMARK    8  A    between atoms: C15_20  and  N6_21 
REMARK    9  A    between atoms: N8_27  and  C20_28 
REMARK   10  A    between atoms: C20_28  and  C21_29 
REMARK   11  A    between atoms: C21_29  and  C22_30 
REMARK   12  A    between atoms: C22_30  and  C23_31 
REMARK   13  A    between atoms: C23_31  and  C24_32 
ROOT
HETATM    1  C7  UNL     1      21.374   1.063  52.282  1.00  0.00     0.154 A 
HETATM    2  N2  UNL     1      20.084   1.072  51.911  1.00  0.00    -0.221 NA
HETATM    3  C8  UNL     1      19.223   0.189  52.426  1.00  0.00     0.258 A 
HETATM    4  N3  UNL     1      19.652  -0.718  53.324  1.00  0.00    -0.161 NA
HETATM    5  N4  UNL     1      20.939  -0.738  53.704  1.00  0.00    -0.240 N 
HETATM    6  C9  UNL     1      21.500  -1.581  54.585  1.00  0.00     0.119 A 
HETATM    7  C10 UNL     1      22.814  -1.173  54.606  1.00  0.00     0.030 A 
HETATM    8  C11 UNL     1      23.063  -0.089  53.746  1.00  0.00    -0.007 A 
HETATM    9  C18 UNL     1      21.817   0.142  53.197  1.00  0.00     0.111 A 
ENDROOT
BRANCH   1  10
HETATM   10  N1  UNL     1      22.238   2.040  51.699  1.00  0.00    -0.369 N 
HETATM   11  H8  UNL     1      23.175   2.361  51.940  1.00  0.00     0.161 HD
BRANCH  10  12
HETATM   12  C6  UNL     1      21.810   2.782  50.532  1.00  0.00     0.149 C 
BRANCH  12  13
HETATM   13  C5  UNL     1      21.648   4.209  50.928  1.00  0.00     0.008 C 
BRANCH  13  14
HETATM   14  C4  UNL     1      22.640   5.088  50.808  1.00  0.00     0.009 A 
HETATM   15  C3  UNL     1      22.998   5.760  49.655  1.00  0.00     0.060 A 
HETATM   16  N8  UNL     1      24.044   6.532  50.032  1.00  0.00    -0.270 N 
HETATM   17  N7  UNL     1      24.281   6.327  51.304  1.00  0.00    -0.184 NA
HETATM   18  C19 UNL     1      23.440   5.436  51.852  1.00  0.00     0.152 A 
BRANCH  15  19
HETATM   19  C2  UNL     1      22.511   5.733  48.443  1.00  0.00     0.001 C 
HETATM   20  C1  UNL     1      22.536   4.719  47.395  1.00  0.00     0.038 C 
ENDBRANCH  15  19
BRANCH  16  21
HETATM   21  C20 UNL     1      24.814   7.451  49.210  1.00  0.00     0.152 C 
BRANCH  21  22
HETATM   22  C21 UNL     1      26.280   7.176  49.549  1.00  0.00     0.040 C 
BRANCH  22  23
HETATM   23  C22 UNL     1      26.758   6.112  48.676  1.00  0.00     0.075 C 
BRANCH  23  24
HETATM   24  C23 UNL     1      26.541   4.854  49.031  1.00  0.00    -0.121 C 
BRANCH  24  25
HETATM   25  C24 UNL     1      26.501   3.652  49.589  1.00  0.00     0.239 C 
HETATM   26  F1  UNL     1      25.279   3.098  49.732  1.00  0.00    -0.211 F 
ENDBRANCH  24  25
ENDBRANCH  23  24
ENDBRANCH  22  23
ENDBRANCH  21  22
ENDBRANCH  16  21
ENDBRANCH  13  14
ENDBRANCH  12  13
ENDBRANCH  10  12
ENDBRANCH   1  10
BRANCH   8  27
HETATM   27  C12 UNL     1      24.342   0.574  53.540  1.00  0.00     0.158 C 
BRANCH  27  28
HETATM   28  N5  UNL     1      25.525  -0.192  53.701  1.00  0.00    -0.408 N 
HETATM   29  C13 UNL     1      26.314  -0.425  52.545  1.00  0.00     0.119 C 
HETATM   30  C14 UNL     1      27.111   0.825  52.236  1.00  0.00     0.055 C 
HETATM   31  C15 UNL     1      27.770   1.282  53.500  1.00  0.00     0.221 C 
HETATM   32  C16 UNL     1      27.690   0.290  54.636  1.00  0.00     0.055 C 
HETATM   33  C17 UNL     1      26.229  -0.086  54.925  1.00  0.00     0.119 C 
BRANCH  31  34
HETATM   34  N6  UNL     1      27.233   2.576  53.872  1.00  0.00     0.083 N 
HETATM   35  H19 UNL     1      26.330   2.807  53.444  1.00  0.00     0.313 HD
HETATM   36  H20 UNL     1      27.971   3.285  53.834  1.00  0.00     0.313 HD
ENDBRANCH  31  34
ENDBRANCH  27  28
ENDBRANCH   8  27
TORSDOF 13
ENDMDL
MODEL 3
REMARK VINA RESULT:      -7.5      1.169      1.740
REMARK  13 active torsions:
REMARK  status: ('A' for Active; 'I' for Inactive)
REMARK    1  A    between atoms: C2_2  and  C3_3 
REMARK    2  A    between atoms: C4_4  and  C5_5 
REMARK    3  A    between atoms: C5_5  and  C6_6 
REMARK    4  A    between atoms: C6_6  and  N1_7 
REMARK    5  A    between atoms: N1_7  and  C7_8 
REMARK    6  A    between atoms: C11_15  and  C12_16 
REMARK    7  A    between atoms: C12_16  and  N5_17 
REMARK    8  A    between atoms: C15_20  and  N6_21 
REMARK    9  A    between atoms: N8_27  and  C20_28 
REMARK   10  A    between atoms: C20_28  and  C21_29 
REMARK   11  A    between atoms: C21_29  and  C22_30 
REMARK   12  A    between atoms: C22_30  and  C23_31 
REMARK   13  A    between atoms: C23_31  and  C24_32 
ROOT
HETATM    1  C7  UNL     1      21.443   0.887  51.930  1.00  0.00     0.154 A 
HETATM    2  N2  UNL     1      20.158   0.928  51.543  1.00  0.00    -0.221 NA
HETATM    3  C8  UNL     1      19.235   0.199  52.177  1.00  0.00     0.258 A 
HETATM    4  N3  UNL     1      19.594  -0.582  53.214  1.00  0.00    -0.161 NA
HETATM    5  N4  UNL     1      20.876  -0.632  53.611  1.00  0.00    -0.240 N 
HETATM    6  C9  UNL     1      21.372  -1.362  54.622  1.00  0.00     0.119 A 
HETATM    7  C10 UNL     1      22.712  -1.049  54.598  1.00  0.00     0.030 A 
HETATM    8  C11 UNL     1      23.040  -0.134  53.582  1.00  0.00    -0.007 A 
HETATM    9  C18 UNL     1      21.815   0.093  52.985  1.00  0.00     0.111 A 
ENDROOT
BRANCH   1  10
HETATM   10  N1  UNL     1      22.377   1.697  51.214  1.00  0.00    -0.369 N 
HETATM   11  H8  UNL     1      23.128   1.470  50.563  1.00  0.00     0.161 HD
BRANCH  10  12
HETATM   12  C6  UNL     1      22.346   3.138  51.357  1.00  0.00     0.149 C 
BRANCH  12  13
HETATM   13  C5  UNL     1      23.696   3.584  51.801  1.00  0.00     0.008 C 
BRANCH  13  14
HETATM   14  C4  UNL     1      24.673   3.834  50.933  1.00  0.00     0.009 A 
HETATM   15  C3  UNL     1      24.876   5.020  50.253  1.00  0.00     0.060 A 
HETATM   16  N8  UNL     1      25.980   4.787  49.504  1.00  0.00    -0.270 N 
HETATM   17  N7  UNL     1      26.390   3.564  49.727  1.00  0.00    -0.184 NA
HETATM   18  C19 UNL     1      25.619   2.910  50.610  1.00  0.00     0.152 A 
BRANCH  15  19
HETATM   19  C2  UNL     1      24.224   6.151  50.259  1.00  0.00     0.001 C 
HETATM   20  C1  UNL     1      24.549   7.472  50.783  1.00  0.00     0.038 C 
ENDBRANCH  15  19
BRANCH  16  21
HETATM   21  C20 UNL     1      26.644   5.702  48.590  1.00  0.00     0.152 C 
BRANCH  21  22
HETATM   22  C21 UNL     1      28.108   5.259  48.557  1.00  0.00     0.040 C 
BRANCH  22  23
HETATM   23  C22 UNL     1      28.895   6.331  47.963  1.00  0.00     0.075 C 
BRANCH  23  24
HETATM   24  C23 UNL     1      30.195   6.381  48.217  1.00  0.00    -0.121 C 
BRANCH  24  25
HETATM   25  C24 UNL     1      31.418   6.579  48.690  1.00  0.00     0.239 C 
HETATM   26  F1  UNL     1      31.520   7.384  49.768  1.00  0.00    -0.211 F 
ENDBRANCH  24  25
ENDBRANCH  23  24
ENDBRANCH  22  23
ENDBRANCH  21  22
ENDBRANCH  16  21
ENDBRANCH  13  14
ENDBRANCH  12  13
ENDBRANCH  10  12
ENDBRANCH   1  10
BRANCH   8  27
HETATM   27  C12 UNL     1      24.363   0.397  53.293  1.00  0.00     0.158 C 
BRANCH  27  28
HETATM   28  N5  UNL     1      25.491  -0.348  53.725  1.00  0.00    -0.408 N 
HETATM   29  C13 UNL     1      26.427  -0.748  52.737  1.00  0.00     0.119 C 
HETATM   30  C14 UNL     1      27.293   0.440  52.373  1.00  0.00     0.055 C 
HETATM   31  C15 UNL     1      27.783   1.065  53.642  1.00  0.00     0.221 C 
HETATM   32  C16 UNL     1      27.517   0.244  54.882  1.00  0.00     0.055 C 
HETATM   33  C17 UNL     1      26.020  -0.075  55.010  1.00  0.00     0.119 C 
BRANCH  31  34
HETATM   34  N6  UNL     1      27.234   2.403  53.751  1.00  0.00     0.083 N 
HETATM   35  H19 UNL     1      26.226   2.472  53.577  1.00  0.00     0.313 HD
HETATM   36  H20 UNL     1      27.845   3.071  53.272  1.00  0.00     0.313 HD
ENDBRANCH  31  34
ENDBRANCH  27  28
ENDBRANCH   8  27
TORSDOF 13
ENDMDL
MODEL 4
REMARK VINA RESULT:      -7.5      2.376      5.391
REMARK  13 active torsions:
REMARK  status: ('A' for Active; 'I' for Inactive)
REMARK    1  A    between atoms: C2_2  and  C3_3 
REMARK    2  A    between atoms: C4_4  and  C5_5 
REMARK    3  A    between atoms: C5_5  and  C6_6 
REMARK    4  A    between atoms: C6_6  and  N1_7 
REMARK    5  A    between atoms: N1_7  and  C7_8 
REMARK    6  A    between atoms: C11_15  and  C12_16 
REMARK    7  A    between atoms: C12_16  and  N5_17 
REMARK    8  A    between atoms: C15_20  and  N6_21 
REMARK    9  A    between atoms: N8_27  and  C20_28 
REMARK   10  A    between atoms: C20_28  and  C21_29 
REMARK   11  A    between atoms: C21_29  and  C22_30 
REMARK   12  A    between atoms: C22_30  and  C23_31 
REMARK   13  A    between atoms: C23_31  and  C24_32 
ROOT
HETATM    1  C7  UNL     1      26.735   2.247  52.192  1.00  0.00     0.154 A 
HETATM    2  N2  UNL     1      28.025   2.170  52.553  1.00  0.00    -0.221 NA
HETATM    3  C8  UNL     1      28.444   1.201  53.374  1.00  0.00     0.258 A 
HETATM    4  N3  UNL     1      27.565   0.295  53.842  1.00  0.00    -0.161 NA
HETATM    5  N4  UNL     1      26.272   0.360  53.488  1.00  0.00    -0.240 N 
HETATM    6  C9  UNL     1      25.294  -0.473  53.877  1.00  0.00     0.119 A 
HETATM    7  C10 UNL     1      24.186   0.036  53.237  1.00  0.00     0.030 A 
HETATM    8  C11 UNL     1      24.478   1.171  52.460  1.00  0.00    -0.007 A 
HETATM    9  C18 UNL     1      25.835   1.326  52.665  1.00  0.00     0.111 A 
ENDROOT
BRANCH   1  10
HETATM   10  N1  UNL     1      26.357   3.301  51.306  1.00  0.00    -0.369 N 
HETATM   11  H8  UNL     1      25.936   4.216  51.464  1.00  0.00     0.161 HD
BRANCH  10  12
HETATM   12  C6  UNL     1      26.566   3.160  49.880  1.00  0.00     0.149 C 
BRANCH  12  13
HETATM   13  C5  UNL     1      26.076   4.401  49.218  1.00  0.00     0.008 C 
BRANCH  13  14
HETATM   14  C4  UNL     1      26.905   5.374  48.848  1.00  0.00     0.009 A 
HETATM   15  C3  UNL     1      26.601   6.720  48.774  1.00  0.00     0.060 A 
HETATM   16  N8  UNL     1      27.753   7.297  48.358  1.00  0.00    -0.270 N 
HETATM   17  N7  UNL     1      28.658   6.364  48.199  1.00  0.00    -0.184 NA
HETATM   18  C19 UNL     1      28.196   5.138  48.488  1.00  0.00     0.152 A 
BRANCH  15  19
HETATM   19  C2  UNL     1      25.503   7.381  49.024  1.00  0.00     0.001 C 
HETATM   20  C1  UNL     1      24.932   7.910  50.257  1.00  0.00     0.038 C 
ENDBRANCH  15  19
BRANCH  16  21
HETATM   21  C20 UNL     1      28.003   8.708  48.111  1.00  0.00     0.152 C 
BRANCH  21  22
HETATM   22  C21 UNL     1      28.566   9.261  49.421  1.00  0.00     0.040 C 
BRANCH  22  23
HETATM   23  C22 UNL     1      29.924   9.725  49.174  1.00  0.00     0.075 C 
BRANCH  23  24
HETATM   24  C23 UNL     1      30.932   8.901  49.421  1.00  0.00    -0.121 C 
BRANCH  24  25
HETATM   25  C24 UNL     1      31.927   8.024  49.399  1.00  0.00     0.239 C 
HETATM   26  F1  UNL     1      31.739   6.888  50.104  1.00  0.00    -0.211 F 
ENDBRANCH  24  25
ENDBRANCH  23  24
ENDBRANCH  22  23
ENDBRANCH  21  22
ENDBRANCH  16  21
ENDBRANCH  13  14
ENDBRANCH  12  13
ENDBRANCH  10  12
ENDBRANCH   1  10
BRANCH   8  27
HETATM   27  C12 UNL     1      23.533   1.938  51.663  1.00  0.00     0.158 C 
BRANCH  27  28
HETATM   28  N5  UNL     1      22.682   2.854  52.334  1.00  0.00    -0.408 N 
HETATM   29  C13 UNL     1      23.103   4.207  52.401  1.00  0.00     0.119 C 
HETATM   30  C14 UNL     1      22.837   4.868  51.064  1.00  0.00     0.055 C 
HETATM   31  C15 UNL     1      21.432   4.552  50.659  1.00  0.00     0.221 C 
HETATM   32  C16 UNL     1      20.602   3.911  51.746  1.00  0.00     0.055 C 
HETATM   33  C17 UNL     1      21.284   2.639  52.270  1.00  0.00     0.119 C 
BRANCH  31  34
HETATM   34  N6  UNL     1      21.458   3.749  49.452  1.00  0.00     0.083 N 
HETATM   35  H19 UNL     1      20.637   3.151  49.314  1.00  0.00     0.313 HD
HETATM   36  H20 UNL     1      22.381   3.322  49.337  1.00  0.00     0.313 HD
ENDBRANCH  31  34
ENDBRANCH  27  28
ENDBRANCH   8  27
TORSDOF 13
ENDMDL
MODEL 5
REMARK VINA RESULT:      -7.5      1.791      2.801
REMARK  13 active torsions:
REMARK  status: ('A' for Active; 'I' for Inactive)
REMARK    1  A    between atoms: C2_2  and  C3_3 
REMARK    2  A    between atoms: C4_4  and  C5_5 
REMARK    3  A    between atoms: C5_5  and  C6_6 
REMARK    4  A    between atoms: C6_6  and  N1_7 
REMARK    5  A    between atoms: N1_7  and  C7_8 
REMARK    6  A    between atoms: C11_15  and  C12_16 
REMARK    7  A    between atoms: C12_16  and  N5_17 
REMARK    8  A    between atoms: C15_20  and  N6_21 
REMARK    9  A    between atoms: N8_27  and  C20_28 
REMARK   10  A    between atoms: C20_28  and  C21_29 
REMARK   11  A    between atoms: C21_29  and  C22_30 
REMARK   12  A    between atoms: C22_30  and  C23_31 
REMARK   13  A    between atoms: C23_31  and  C24_32 
ROOT
HETATM    1  C7  UNL     1      22.591   1.687  51.640  1.00  0.00     0.154 A 
HETATM    2  N2  UNL     1      21.466   1.986  50.973  1.00  0.00    -0.221 NA
HETATM    3  C8  UNL     1      20.346   1.288  51.182  1.00  0.00     0.258 A 
HETATM    4  N3  UNL     1      20.345   0.276  52.071  1.00  0.00    -0.161 NA
HETATM    5  N4  UNL     1      21.463  -0.034  52.746  1.00  0.00    -0.240 N 
HETATM    6  C9  UNL     1      21.603  -1.011  53.655  1.00  0.00     0.119 A 
HETATM    7  C10 UNL     1      22.923  -0.895  54.028  1.00  0.00     0.030 A 
HETATM    8  C11 UNL     1      23.591   0.144  53.356  1.00  0.00    -0.007 A 
HETATM    9  C18 UNL     1      22.596   0.657  52.547  1.00  0.00     0.111 A 
ENDROOT
BRANCH   1  10
HETATM   10  N1  UNL     1      23.751   2.478  51.375  1.00  0.00    -0.369 N 
HETATM   11  H8  UNL     1      24.527   2.781  51.962  1.00  0.00     0.161 HD
BRANCH  10  12
HETATM   12  C6  UNL     1      23.978   3.007  50.046  1.00  0.00     0.149 C 
BRANCH  12  13
HETATM   13  C5  UNL     1      24.657   4.325  50.186  1.00  0.00     0.008 C 
BRANCH  13  14
HETATM   14  C4  UNL     1      25.819   4.584  49.590  1.00  0.00     0.009 A 
HETATM   15  C3  UNL     1      26.239   5.815  49.123  1.00  0.00     0.060 A 
HETATM   16  N8  UNL     1      27.467   5.573  48.610  1.00  0.00    -0.270 N 
HETATM   17  N7  UNL     1      27.745   4.303  48.763  1.00  0.00    -0.184 NA
HETATM   18  C19 UNL     1      26.758   3.625  49.368  1.00  0.00     0.152 A 
BRANCH  15  19
HETATM   19  C2  UNL     1      25.668   6.990  49.126  1.00  0.00     0.001 C 
HETATM   20  C1  UNL     1      25.668   8.081  50.094  1.00  0.00     0.038 C 
ENDBRANCH  15  19
BRANCH  16  21
HETATM   21  C20 UNL     1      28.373   6.522  47.982  1.00  0.00     0.152 C 
BRANCH  21  22
HETATM   22  C21 UNL     1      29.756   6.213  48.559  1.00  0.00     0.040 C 
BRANCH  22  23
HETATM   23  C22 UNL     1      30.667   5.964  47.450  1.00  0.00     0.075 C 
BRANCH  23  24
HETATM   24  C23 UNL     1      31.281   4.792  47.383  1.00  0.00    -0.121 C 
BRANCH  24  25
HETATM   25  C24 UNL     1      32.124   3.770  47.325  1.00  0.00     0.239 C 
HETATM   26  F1  UNL     1      31.740   2.718  46.572  1.00  0.00    -0.211 F 
ENDBRANCH  24  25
ENDBRANCH  23  24
ENDBRANCH  22  23
ENDBRANCH  21  22
ENDBRANCH  16  21
ENDBRANCH  13  14
ENDBRANCH  12  13
ENDBRANCH  10  12
ENDBRANCH   1  10
BRANCH   8  27
HETATM   27  C12 UNL     1      24.985   0.526  53.525  1.00  0.00     0.158 C 
BRANCH  27  28
HETATM   28  N5  UNL     1      25.938  -0.006  52.618  1.00  0.00    -0.408 N 
HETATM   29  C13 UNL     1      26.861   0.901  52.035  1.00  0.00     0.119 C 
HETATM   30  C14 UNL     1      27.938   1.222  53.050  1.00  0.00     0.055 C 
HETATM   31  C15 UNL     1      28.434  -0.067  53.627  1.00  0.00     0.221 C 
HETATM   32  C16 UNL     1      27.947  -1.299  52.903  1.00  0.00     0.055 C 
HETATM   33  C17 UNL     1      26.412  -1.321  52.841  1.00  0.00     0.119 C 
BRANCH  31  34
HETATM   34  N6  UNL     1      28.112  -0.106  55.040  1.00  0.00     0.083 N 
HETATM   35  H19 UNL     1      27.321   0.484  55.319  1.00  0.00     0.313 HD
HETATM   36  H20 UNL     1      28.970  -0.042  55.596  1.00  0.00     0.313 HD
ENDBRANCH  31  34
ENDBRANCH  27  28
ENDBRANCH   8  27
TORSDOF 13
ENDMDL
MODEL 6
REMARK VINA RESULT:      -7.4      2.421      5.453
REMARK  13 active torsions:
REMARK  status: ('A' for Active; 'I' for Inactive)
REMARK    1  A    between atoms: C2_2  and  C3_3 
REMARK    2  A    between atoms: C4_4  and  C5_5 
REMARK    3  A    between atoms: C5_5  and  C6_6 
REMARK    4  A    between atoms: C6_6  and  N1_7 
REMARK    5  A    between atoms: N1_7  and  C7_8 
REMARK    6  A    between atoms: C11_15  and  C12_16 
REMARK    7  A    between atoms: C12_16  and  N5_17 
REMARK    8  A    between atoms: C15_20  and  N6_21 
REMARK    9  A    between atoms: N8_27  and  C20_28 
REMARK   10  A    between atoms: C20_28  and  C21_29 
REMARK   11  A    between atoms: C21_29  and  C22_30 
REMARK   12  A    between atoms: C22_30  and  C23_31 
REMARK   13  A    between atoms: C23_31  and  C24_32 
ROOT
HETATM    1  C7  UNL     1      26.963   2.180  52.341  1.00  0.00     0.154 A 
HETATM    2  N2  UNL     1      28.248   2.280  52.715  1.00  0.00    -0.221 NA
HETATM    3  C8  UNL     1      28.804   1.343  53.489  1.00  0.00     0.258 A 
HETATM    4  N3  UNL     1      28.071   0.290  53.896  1.00  0.00    -0.161 NA
HETATM    5  N4  UNL     1      26.784   0.178  53.529  1.00  0.00    -0.240 N 
HETATM    6  C9  UNL     1      25.942  -0.812  53.861  1.00  0.00     0.119 A 
HETATM    7  C10 UNL     1      24.773  -0.444  53.234  1.00  0.00     0.030 A 
HETATM    8  C11 UNL     1      24.894   0.763  52.522  1.00  0.00    -0.007 A 
HETATM    9  C18 UNL     1      26.210   1.110  52.753  1.00  0.00     0.111 A 
ENDROOT
BRANCH   1  10
HETATM   10  N1  UNL     1      26.433   3.212  51.506  1.00  0.00    -0.369 N 
HETATM   11  H8  UNL     1      25.996   4.110  51.714  1.00  0.00     0.161 HD
BRANCH  10  12
HETATM   12  C6  UNL     1      26.471   3.071  50.066  1.00  0.00     0.149 C 
BRANCH  12  13
HETATM   13  C5  UNL     1      25.690   4.191  49.473  1.00  0.00     0.008 C 
BRANCH  13  14
HETATM   14  C4  UNL     1      26.197   5.416  49.353  1.00  0.00     0.009 A 
HETATM   15  C3  UNL     1      25.731   6.556  49.980  1.00  0.00     0.060 A 
HETATM   16  N8  UNL     1      26.564   7.533  49.552  1.00  0.00    -0.270 N 
HETATM   17  N7  UNL     1      27.447   7.008  48.739  1.00  0.00    -0.184 NA
HETATM   18  C19 UNL     1      27.276   5.688  48.570  1.00  0.00     0.152 A 
BRANCH  15  19
HETATM   19  C2  UNL     1      24.738   6.754  50.804  1.00  0.00     0.001 C 
HETATM   20  C1  UNL     1      23.382   7.254  50.609  1.00  0.00     0.038 C 
ENDBRANCH  15  19
BRANCH  16  21
HETATM   21  C20 UNL     1      26.535   8.945  49.901  1.00  0.00     0.152 C 
BRANCH  21  22
HETATM   22  C21 UNL     1      26.373   9.692  48.576  1.00  0.00     0.040 C 
BRANCH  22  23
HETATM   23  C22 UNL     1      24.953   9.748  48.256  1.00  0.00     0.075 C 
BRANCH  23  24
HETATM   24  C23 UNL     1      24.472   8.910  47.349  1.00  0.00    -0.121 C 
BRANCH  24  25
HETATM   25  C24 UNL     1      24.087   7.878  46.611  1.00  0.00     0.239 C 
HETATM   26  F1  UNL     1      23.938   6.702  47.257  1.00  0.00    -0.211 F 
ENDBRANCH  24  25
ENDBRANCH  23  24
ENDBRANCH  22  23
ENDBRANCH  21  22
ENDBRANCH  16  21
ENDBRANCH  13  14
ENDBRANCH  12  13
ENDBRANCH  10  12
ENDBRANCH   1  10
BRANCH   8  27
HETATM   27  C12 UNL     1      23.847   1.420  51.754  1.00  0.00     0.158 C 
BRANCH  27  28
HETATM   28  N5  UNL     1      22.883   2.187  52.459  1.00  0.00    -0.408 N 
HETATM   29  C13 UNL     1      22.853   3.584  52.213  1.00  0.00     0.119 C 
HETATM   30  C14 UNL     1      22.154   3.833  50.893  1.00  0.00     0.055 C 
HETATM   31  C15 UNL     1      20.875   3.056  50.889  1.00  0.00     0.221 C 
HETATM   32  C16 UNL     1      20.503   2.464  52.227  1.00  0.00     0.055 C 
HETATM   33  C17 UNL     1      21.640   1.581  52.764  1.00  0.00     0.119 C 
BRANCH  31  34
HETATM   34  N6  UNL     1      20.940   2.047  49.849  1.00  0.00     0.083 N 
HETATM   35  H19 UNL     1      20.124   2.014  49.228  1.00  0.00     0.313 HD
HETATM   36  H20 UNL     1      21.273   1.162  50.242  1.00  0.00     0.313 HD
ENDBRANCH  31  34
ENDBRANCH  27  28
ENDBRANCH   8  27
TORSDOF 13
ENDMDL
MODEL 7
REMARK VINA RESULT:      -7.4      2.537      5.438
REMARK  13 active torsions:
REMARK  status: ('A' for Active; 'I' for Inactive)
REMARK    1  A    between atoms: C2_2  and  C3_3 
REMARK    2  A    between atoms: C4_4  and  C5_5 
REMARK    3  A    between atoms: C5_5  and  C6_6 
REMARK    4  A    between atoms: C6_6  and  N1_7 
REMARK    5  A    between atoms: N1_7  and  C7_8 
REMARK    6  A    between atoms: C11_15  and  C12_16 
REMARK    7  A    between atoms: C12_16  and  N5_17 
REMARK    8  A    between atoms: C15_20  and  N6_21 
REMARK    9  A    between atoms: N8_27  and  C20_28 
REMARK   10  A    between atoms: C20_28  and  C21_29 
REMARK   11  A    between atoms: C21_29  and  C22_30 
REMARK   12  A    between atoms: C22_30  and  C23_31 
REMARK   13  A    between atoms: C23_31  and  C24_32 
ROOT
HETATM    1  C7  UNL     1      26.854   2.196  52.333  1.00  0.00     0.154 A 
HETATM    2  N2  UNL     1      28.144   2.284  52.694  1.00  0.00    -0.221 NA
HETATM    3  C8  UNL     1      28.703   1.335  53.451  1.00  0.00     0.258 A 
HETATM    4  N3  UNL     1      27.968   0.281  53.854  1.00  0.00    -0.161 NA
HETATM    5  N4  UNL     1      26.677   0.181  53.499  1.00  0.00    -0.240 N 
HETATM    6  C9  UNL     1      25.833  -0.809  53.828  1.00  0.00     0.119 A 
HETATM    7  C10 UNL     1      24.660  -0.426  53.217  1.00  0.00     0.030 A 
HETATM    8  C11 UNL     1      24.779   0.789  52.519  1.00  0.00    -0.007 A 
HETATM    9  C18 UNL     1      26.101   1.125  52.740  1.00  0.00     0.111 A 
ENDROOT
BRANCH   1  10
HETATM   10  N1  UNL     1      26.322   3.241  51.517  1.00  0.00    -0.369 N 
HETATM   11  H8  UNL     1      25.635   3.973  51.696  1.00  0.00     0.161 HD
BRANCH  10  12
HETATM   12  C6  UNL     1      26.773   3.394  50.149  1.00  0.00     0.149 C 
BRANCH  12  13
HETATM   13  C5  UNL     1      25.793   4.260  49.436  1.00  0.00     0.008 C 
BRANCH  13  14
HETATM   14  C4  UNL     1      25.875   5.588  49.469  1.00  0.00     0.009 A 
HETATM   15  C3  UNL     1      26.807   6.364  48.805  1.00  0.00     0.060 A 
HETATM   16  N8  UNL     1      26.482   7.633  49.144  1.00  0.00    -0.270 N 
HETATM   17  N7  UNL     1      25.444   7.604  49.942  1.00  0.00    -0.184 NA
HETATM   18  C19 UNL     1      25.013   6.357  50.188  1.00  0.00     0.152 A 
BRANCH  15  19
HETATM   19  C2  UNL     1      27.800   6.050  48.017  1.00  0.00     0.001 C 
HETATM   20  C1  UNL     1      29.230   5.887  48.254  1.00  0.00     0.038 C 
ENDBRANCH  15  19
BRANCH  16  21
HETATM   21  C20 UNL     1      27.137   8.862  48.724  1.00  0.00     0.152 C 
BRANCH  21  22
HETATM   22  C21 UNL     1      28.007   9.289  49.907  1.00  0.00     0.040 C 
BRANCH  22  23
HETATM   23  C22 UNL     1      29.365   9.495  49.422  1.00  0.00     0.075 C 
BRANCH  23  24
HETATM   24  C23 UNL     1      29.723  10.710  49.031  1.00  0.00    -0.121 C 
BRANCH  24  25
HETATM   25  C24 UNL     1      30.337  11.831  48.678  1.00  0.00     0.239 C 
HETATM   26  F1  UNL     1      30.760  12.625  49.685  1.00  0.00    -0.211 F 
ENDBRANCH  24  25
ENDBRANCH  23  24
ENDBRANCH  22  23
ENDBRANCH  21  22
ENDBRANCH  16  21
ENDBRANCH  13  14
ENDBRANCH  12  13
ENDBRANCH  10  12
ENDBRANCH   1  10
BRANCH   8  27
HETATM   27  C12 UNL     1      23.728   1.461  51.770  1.00  0.00     0.158 C 
BRANCH  27  28
HETATM   28  N5  UNL     1      22.802   2.259  52.490  1.00  0.00    -0.408 N 
HETATM   29  C13 UNL     1      22.895   3.667  52.337  1.00  0.00     0.119 C 
HETATM   30  C14 UNL     1      22.273   4.057  51.012  1.00  0.00     0.055 C 
HETATM   31  C15 UNL     1      20.937   3.391  50.911  1.00  0.00     0.221 C 
HETATM   32  C16 UNL     1      20.464   2.748  52.193  1.00  0.00     0.055 C 
HETATM   33  C17 UNL     1      21.503   1.741  52.709  1.00  0.00     0.119 C 
BRANCH  31  34
HETATM   34  N6  UNL     1      20.962   2.448  49.809  1.00  0.00     0.083 N 
HETATM   35  H19 UNL     1      21.035   2.873  48.879  1.00  0.00     0.313 HD
HETATM   36  H20 UNL     1      20.245   1.730  49.948  1.00  0.00     0.313 HD
ENDBRANCH  31  34
ENDBRANCH  27  28
ENDBRANCH   8  27
TORSDOF 13
ENDMDL
MODEL 8
REMARK VINA RESULT:      -7.3      2.639      5.992
REMARK  13 active torsions:
REMARK  status: ('A' for Active; 'I' for Inactive)
REMARK    1  A    between atoms: C2_2  and  C3_3 
REMARK    2  A    between atoms: C4_4  and  C5_5 
REMARK    3  A    between atoms: C5_5  and  C6_6 
REMARK    4  A    between atoms: C6_6  and  N1_7 
REMARK    5  A    between atoms: N1_7  and  C7_8 
REMARK    6  A    between atoms: C11_15  and  C12_16 
REMARK    7  A    between atoms: C12_16  and  N5_17 
REMARK    8  A    between atoms: C15_20  and  N6_21 
REMARK    9  A    between atoms: N8_27  and  C20_28 
REMARK   10  A    between atoms: C20_28  and  C21_29 
REMARK   11  A    between atoms: C21_29  and  C22_30 
REMARK   12  A    between atoms: C22_30  and  C23_31 
REMARK   13  A    between atoms: C23_31  and  C24_32 
ROOT
HETATM    1  C7  UNL     1      20.400   1.039  51.871  1.00  0.00     0.154 A 
HETATM    2  N2  UNL     1      19.767  -0.144  51.861  1.00  0.00    -0.221 NA
HETATM    3  C8  UNL     1      18.440  -0.204  51.712  1.00  0.00     0.258 A 
HETATM    4  N3  UNL     1      17.731   0.932  51.571  1.00  0.00    -0.161 NA
HETATM    5  N4  UNL     1      18.351   2.123  51.580  1.00  0.00    -0.240 N 
HETATM    6  C9  UNL     1      17.773   3.327  51.450  1.00  0.00     0.119 A 
HETATM    7  C10 UNL     1      18.841   4.190  51.527  1.00  0.00     0.030 A 
HETATM    8  C11 UNL     1      20.068   3.526  51.702  1.00  0.00    -0.007 A 
HETATM    9  C18 UNL     1      19.683   2.200  51.728  1.00  0.00     0.111 A 
ENDROOT
BRANCH   1  10
HETATM   10  N1  UNL     1      21.820   1.031  52.025  1.00  0.00    -0.369 N 
HETATM   11  H8  UNL     1      22.585   1.209  51.375  1.00  0.00     0.161 HD
BRANCH  10  12
HETATM   12  C6  UNL     1      22.408   0.727  53.313  1.00  0.00     0.149 C 
BRANCH  12  13
HETATM   13  C5  UNL     1      23.833   1.157  53.281  1.00  0.00     0.008 C 
BRANCH  13  14
HETATM   14  C4  UNL     1      24.832   0.292  53.437  1.00  0.00     0.009 A 
HETATM   15  C3  UNL     1      25.919   0.140  52.597  1.00  0.00     0.060 A 
HETATM   16  N8  UNL     1      26.646  -0.846  53.170  1.00  0.00    -0.270 N 
HETATM   17  N7  UNL     1      26.035  -1.242  54.259  1.00  0.00    -0.184 NA
HETATM   18  C19 UNL     1      24.894  -0.573  54.486  1.00  0.00     0.152 A 
BRANCH  15  19
HETATM   19  C2  UNL     1      26.258   0.749  51.493  1.00  0.00     0.001 C 
HETATM   20  C1  UNL     1      26.684   2.116  51.214  1.00  0.00     0.038 C 
ENDBRANCH  15  19
BRANCH  16  21
HETATM   21  C20 UNL     1      27.902  -1.413  52.705  1.00  0.00     0.152 C 
BRANCH  21  22
HETATM   22  C21 UNL     1      28.906  -1.169  53.833  1.00  0.00     0.040 C 
BRANCH  22  23
HETATM   23  C22 UNL     1      29.740  -0.034  53.463  1.00  0.00     0.075 C 
BRANCH  23  24
HETATM   24  C23 UNL     1      29.318   1.187  53.758  1.00  0.00    -0.121 C 
BRANCH  24  25
HETATM   25  C24 UNL     1      29.043   2.482  53.832  1.00  0.00     0.239 C 
HETATM   26  F1  UNL     1      27.780   2.808  54.180  1.00  0.00    -0.211 F 
ENDBRANCH  24  25
ENDBRANCH  23  24
ENDBRANCH  22  23
ENDBRANCH  21  22
ENDBRANCH  16  21
ENDBRANCH  13  14
ENDBRANCH  12  13
ENDBRANCH  10  12
ENDBRANCH   1  10
BRANCH   8  27
HETATM   27  C12 UNL     1      21.378   4.149  51.818  1.00  0.00     0.158 C 
BRANCH  27  28
HETATM   28  N5  UNL     1      22.109   4.394  50.626  1.00  0.00    -0.408 N 
HETATM   29  C13 UNL     1      21.839   5.602  49.932  1.00  0.00     0.119 C 
HETATM   30  C14 UNL     1      22.533   6.743  50.646  1.00  0.00     0.055 C 
HETATM   31  C15 UNL     1      23.951   6.339  50.901  1.00  0.00     0.221 C 
HETATM   32  C16 UNL     1      24.375   5.076  50.190  1.00  0.00     0.055 C 
HETATM   33  C17 UNL     1      23.438   3.913  50.546  1.00  0.00     0.119 C 
BRANCH  31  34
HETATM   34  N6  UNL     1      24.168   6.253  52.332  1.00  0.00     0.083 N 
HETATM   35  H19 UNL     1      23.318   6.322  52.902  1.00  0.00     0.313 HD
HETATM   36  H20 UNL     1      24.967   6.835  52.600  1.00  0.00     0.313 HD
ENDBRANCH  31  34
ENDBRANCH  27  28
ENDBRANCH   8  27
TORSDOF 13
ENDMDL
MODEL 9
REMARK VINA RESULT:      -7.2      1.630      2.248
REMARK  13 active torsions:
REMARK  status: ('A' for Active; 'I' for Inactive)
REMARK    1  A    between atoms: C2_2  and  C3_3 
REMARK    2  A    between atoms: C4_4  and  C5_5 
REMARK    3  A    between atoms: C5_5  and  C6_6 
REMARK    4  A    between atoms: C6_6  and  N1_7 
REMARK    5  A    between atoms: N1_7  and  C7_8 
REMARK    6  A    between atoms: C11_15  and  C12_16 
REMARK    7  A    between atoms: C12_16  and  N5_17 
REMARK    8  A    between atoms: C15_20  and  N6_21 
REMARK    9  A    between atoms: N8_27  and  C20_28 
REMARK   10  A    between atoms: C20_28  and  C21_29 
REMARK   11  A    between atoms: C21_29  and  C22_30 
REMARK   12  A    between atoms: C22_30  and  C23_31 
REMARK   13  A    between atoms: C23_31  and  C24_32 
ROOT
HETATM    1  C7  UNL     1      21.791   2.383  52.206  1.00  0.00     0.154 A 
HETATM    2  N2  UNL     1      20.486   2.499  51.915  1.00  0.00    -0.221 NA
HETATM    3  C8  UNL     1      19.654   1.471  52.108  1.00  0.00     0.258 A 
HETATM    4  N3  UNL     1      20.127   0.310  52.599  1.00  0.00    -0.161 NA
HETATM    5  N4  UNL     1      21.430   0.181  52.895  1.00  0.00    -0.240 N 
HETATM    6  C9  UNL     1      22.034  -0.912  53.388  1.00  0.00     0.119 A 
HETATM    7  C10 UNL     1      23.346  -0.511  53.503  1.00  0.00     0.030 A 
HETATM    8  C11 UNL     1      23.550   0.816  53.085  1.00  0.00    -0.007 A 
HETATM    9  C18 UNL     1      22.279   1.203  52.707  1.00  0.00     0.111 A 
ENDROOT
BRANCH   1  10
HETATM   10  N1  UNL     1      22.623   3.523  51.983  1.00  0.00    -0.369 N 
HETATM   11  H8  UNL     1      23.084   4.174  52.619  1.00  0.00     0.161 HD
BRANCH  10  12
HETATM   12  C6  UNL     1      22.950   3.929  50.632  1.00  0.00     0.149 C 
BRANCH  12  13
HETATM   13  C5  UNL     1      24.367   4.388  50.620  1.00  0.00     0.008 C 
BRANCH  13  14
HETATM   14  C4  UNL     1      24.688   5.670  50.461  1.00  0.00     0.009 A 
HETATM   15  C3  UNL     1      25.613   6.173  49.565  1.00  0.00     0.060 A 
HETATM   16  N8  UNL     1      25.584   7.509  49.774  1.00  0.00    -0.270 N 
HETATM   17  N7  UNL     1      24.714   7.769  50.718  1.00  0.00    -0.184 NA
HETATM   18  C19 UNL     1      24.118   6.665  51.192  1.00  0.00     0.152 A 
BRANCH  15  19
HETATM   19  C2  UNL     1      26.380   5.589  48.684  1.00  0.00     0.001 C 
HETATM   20  C1  UNL     1      27.511   4.677  48.815  1.00  0.00     0.038 C 
ENDBRANCH  15  19
BRANCH  16  21
HETATM   21  C20 UNL     1      26.364   8.534  49.098  1.00  0.00     0.152 C 
BRANCH  21  22
HETATM   22  C21 UNL     1      27.260   9.147  50.175  1.00  0.00     0.040 C 
BRANCH  22  23
HETATM   23  C22 UNL     1      28.584   9.350  49.604  1.00  0.00     0.075 C 
BRANCH  23  24
HETATM   24  C23 UNL     1      29.096   8.403  48.832  1.00  0.00    -0.121 C 
BRANCH  24  25
HETATM   25  C24 UNL     1      29.603   7.650  47.865  1.00  0.00     0.239 C 
HETATM   26  F1  UNL     1      28.740   7.235  46.914  1.00  0.00    -0.211 F 
ENDBRANCH  24  25
ENDBRANCH  23  24
ENDBRANCH  22  23
ENDBRANCH  21  22
ENDBRANCH  16  21
ENDBRANCH  13  14
ENDBRANCH  12  13
ENDBRANCH  10  12
ENDBRANCH   1  10
BRANCH   8  27
HETATM   27  C12 UNL     1      24.815   1.535  53.083  1.00  0.00     0.158 C 
BRANCH  27  28
HETATM   28  N5  UNL     1      25.878   1.014  52.302  1.00  0.00    -0.408 N 
HETATM   29  C13 UNL     1      26.897   1.917  51.901  1.00  0.00     0.119 C 
HETATM   30  C14 UNL     1      27.820   2.166  53.075  1.00  0.00     0.055 C 
HETATM   31  C15 UNL     1      28.197   0.842  53.661  1.00  0.00     0.221 C 
HETATM   32  C16 UNL     1      27.794  -0.347  52.820  1.00  0.00     0.055 C 
HETATM   33  C17 UNL     1      26.286  -0.322  52.534  1.00  0.00     0.119 C 
BRANCH  31  34
HETATM   34  N6  UNL     1      27.671   0.755  55.009  1.00  0.00     0.083 N 
HETATM   35  H19 UNL     1      26.752   0.305  55.085  1.00  0.00     0.313 HD
HETATM   36  H20 UNL     1      27.803   1.647  55.494  1.00  0.00     0.313 HD
ENDBRANCH  31  34
ENDBRANCH  27  28
ENDBRANCH   8  27
TORSDOF 13
ENDMDL
