MODEL 1
REMARK VINA RESULT:      -7.5      0.000      0.000
REMARK  2 active torsions:
REMARK  status: ('A' for Active; 'I' for Inactive)
REMARK    1  A    between atoms: N1_7  and  C7_8 
REMARK    2  A    between atoms: C13_17  and  O2_18 
ROOT
HETATM    1  C1  UNL     1      26.498   4.425  49.200  1.00  0.00     0.012 C 
HETATM    2  C2  UNL     1      25.429   4.125  49.677  1.00  0.00    -0.107 C 
HETATM    3  C3  UNL     1      24.127   3.759  50.239  1.00  0.00     0.109 C 
HETATM    4  C4  UNL     1      23.912   4.630  51.424  1.00  0.00    -0.010 C 
HETATM    5  C5  UNL     1      23.745   4.170  52.651  1.00  0.00    -0.010 C 
HETATM    6  C6  UNL     1      23.750   2.712  53.014  1.00  0.00     0.151 C 
HETATM    7  N1  UNL     1      24.485   2.041  51.950  1.00  0.00    -0.358 N 
HETATM    8  C15 UNL     1      24.032   2.300  50.591  1.00  0.00     0.101 C 
HETATM    9  C16 UNL     1      22.564   1.902  50.473  1.00  0.00     0.034 C 
ENDROOT
BRANCH   7  10
HETATM   10  C7  UNL     1      25.577   1.199  52.383  1.00  0.00     0.135 C 
HETATM   11  N2  UNL     1      26.464   2.182  52.437  1.00  0.00    -0.226 NA
HETATM   12  C8  UNL     1      27.804   1.888  52.833  1.00  0.00     0.234 C 
HETATM   13  N3  UNL     1      27.823   1.469  54.038  1.00  0.00    -0.254 NA
HETATM   14  C9  UNL     1      28.920   1.071  54.800  1.00  0.00     0.116 C 
HETATM   15  C10 UNL     1      29.247  -0.152  54.348  1.00  0.00     0.018 C 
HETATM   16  C11 UNL     1      28.851  -1.187  53.353  1.00  0.00     0.196 C 
HETATM   17  O1  UNL     1      27.748  -0.839  52.594  1.00  0.00    -0.384 OA
HETATM   18  C12 UNL     1      26.576  -0.895  53.272  1.00  0.00     0.207 C 
HETATM   19  C13 UNL     1      25.381  -0.285  52.588  1.00  0.00     0.213 C 
BRANCH  19  20
HETATM   20  O2  UNL     1      24.269  -0.413  53.411  1.00  0.00    -0.381 OA
HETATM   21  C14 UNL     1      24.652  -0.804  54.712  1.00  0.00     0.202 C 
ENDBRANCH  19  20
ENDBRANCH   7  10
TORSDOF 2
ENDMDL
MODEL 2
REMARK VINA RESULT:      -7.3      2.462      4.358
REMARK  2 active torsions:
REMARK  status: ('A' for Active; 'I' for Inactive)
REMARK    1  A    between atoms: N1_7  and  C7_8 
REMARK    2  A    between atoms: C13_17  and  O2_18 
ROOT
HETATM    1  C1  UNL     1      20.567  -1.350  54.207  1.00  0.00     0.012 C 
HETATM    2  C2  UNL     1      20.504  -0.401  53.461  1.00  0.00    -0.107 C 
HETATM    3  C3  UNL     1      20.415   0.756  52.569  1.00  0.00     0.109 C 
HETATM    4  C4  UNL     1      20.581   0.243  51.184  1.00  0.00    -0.010 C 
HETATM    5  C5  UNL     1      21.554   0.620  50.374  1.00  0.00    -0.010 C 
HETATM    6  C6  UNL     1      22.618   1.616  50.739  1.00  0.00     0.151 C 
HETATM    7  N1  UNL     1      22.681   1.613  52.194  1.00  0.00    -0.358 N 
HETATM    8  C15 UNL     1      21.423   1.824  52.895  1.00  0.00     0.101 C 
HETATM    9  C16 UNL     1      20.827   3.157  52.452  1.00  0.00     0.034 C 
ENDROOT
BRANCH   7  10
HETATM   10  C7  UNL     1      23.994   1.398  52.761  1.00  0.00     0.135 C 
HETATM   11  N2  UNL     1      23.871   0.081  52.837  1.00  0.00    -0.226 NA
HETATM   12  C8  UNL     1      24.951  -0.690  53.363  1.00  0.00     0.234 C 
HETATM   13  N3  UNL     1      25.976  -0.578  52.612  1.00  0.00    -0.254 NA
HETATM   14  C9  UNL     1      27.233  -1.160  52.768  1.00  0.00     0.116 C 
HETATM   15  C10 UNL     1      27.840  -0.450  53.735  1.00  0.00     0.018 C 
HETATM   16  C11 UNL     1      27.637   0.702  54.657  1.00  0.00     0.196 C 
HETATM   17  O1  UNL     1      26.410   1.323  54.513  1.00  0.00    -0.384 OA
HETATM   18  C12 UNL     1      26.301   2.072  53.388  1.00  0.00     0.207 C 
HETATM   19  C13 UNL     1      24.919   2.559  53.043  1.00  0.00     0.213 C 
BRANCH  19  20
HETATM   20  O2  UNL     1      24.975   3.296  51.867  1.00  0.00    -0.381 OA
HETATM   21  C14 UNL     1      26.082   2.904  51.083  1.00  0.00     0.202 C 
ENDBRANCH  19  20
ENDBRANCH   7  10
TORSDOF 2
ENDMDL
MODEL 3
REMARK VINA RESULT:      -7.1      0.919      2.351
REMARK  2 active torsions:
REMARK  status: ('A' for Active; 'I' for Inactive)
REMARK    1  A    between atoms: N1_7  and  C7_8 
REMARK    2  A    between atoms: C13_17  and  O2_18 
ROOT
HETATM    1  C1  UNL     1      21.514   0.266  50.913  1.00  0.00     0.012 C 
HETATM    2  C2  UNL     1      21.934   1.398  50.967  1.00  0.00    -0.107 C 
HETATM    3  C3  UNL     1      22.428   2.774  51.043  1.00  0.00     0.109 C 
HETATM    4  C4  UNL     1      23.022   3.090  49.718  1.00  0.00    -0.010 C 
HETATM    5  C5  UNL     1      24.287   3.426  49.543  1.00  0.00    -0.010 C 
HETATM    6  C6  UNL     1      25.293   3.535  50.653  1.00  0.00     0.151 C 
HETATM    7  N1  UNL     1      24.778   2.709  51.737  1.00  0.00    -0.358 N 
HETATM    8  C15 UNL     1      23.412   2.980  52.161  1.00  0.00     0.101 C 
HETATM    9  C16 UNL     1      23.308   4.440  52.591  1.00  0.00     0.034 C 
ENDROOT
BRANCH   7  10
HETATM   10  C7  UNL     1      25.694   1.719  52.256  1.00  0.00     0.135 C 
HETATM   11  N2  UNL     1      26.755   2.512  52.214  1.00  0.00    -0.226 NA
HETATM   12  C8  UNL     1      28.019   2.006  52.642  1.00  0.00     0.234 C 
HETATM   13  N3  UNL     1      27.976   1.713  53.883  1.00  0.00    -0.254 NA
HETATM   14  C9  UNL     1      28.989   1.188  54.686  1.00  0.00     0.116 C 
HETATM   15  C10 UNL     1      29.067  -0.113  54.360  1.00  0.00     0.018 C 
HETATM   16  C11 UNL     1      28.463  -1.146  53.473  1.00  0.00     0.196 C 
HETATM   17  O1  UNL     1      27.436  -0.669  52.679  1.00  0.00    -0.384 OA
HETATM   18  C12 UNL     1      26.285  -0.430  53.355  1.00  0.00     0.207 C 
HETATM   19  C13 UNL     1      25.219   0.328  52.609  1.00  0.00     0.213 C 
BRANCH  19  20
HETATM   20  O2  UNL     1      24.117   0.500  53.436  1.00  0.00    -0.381 OA
HETATM   21  C14 UNL     1      23.583  -0.748  53.824  1.00  0.00     0.202 C 
ENDBRANCH  19  20
ENDBRANCH   7  10
TORSDOF 2
ENDMDL
MODEL 4
REMARK VINA RESULT:      -7.1      2.196      3.345
REMARK  2 active torsions:
REMARK  status: ('A' for Active; 'I' for Inactive)
REMARK    1  A    between atoms: N1_7  and  C7_8 
REMARK    2  A    between atoms: C13_17  and  O2_18 
ROOT
HETATM    1  C1  UNL     1      22.256   5.053  52.322  1.00  0.00     0.012 C 
HETATM    2  C2  UNL     1      21.830   3.956  52.048  1.00  0.00    -0.107 C 
HETATM    3  C3  UNL     1      21.309   2.633  51.698  1.00  0.00     0.109 C 
HETATM    4  C4  UNL     1      20.555   2.142  52.882  1.00  0.00    -0.010 C 
HETATM    5  C5  UNL     1      20.859   1.038  53.539  1.00  0.00    -0.010 C 
HETATM    6  C6  UNL     1      22.002   0.131  53.182  1.00  0.00     0.151 C 
HETATM    7  N1  UNL     1      22.938   0.951  52.425  1.00  0.00    -0.358 N 
HETATM    8  C15 UNL     1      22.389   1.671  51.285  1.00  0.00     0.101 C 
HETATM    9  C16 UNL     1      21.757   0.669  50.324  1.00  0.00     0.034 C 
ENDROOT
BRANCH   7  10
HETATM   10  C7  UNL     1      24.301   0.946  52.906  1.00  0.00     0.135 C 
HETATM   11  N2  UNL     1      24.330  -0.355  53.153  1.00  0.00    -0.226 NA
HETATM   12  C8  UNL     1      25.522  -0.937  53.682  1.00  0.00     0.234 C 
HETATM   13  N3  UNL     1      26.475  -0.822  52.842  1.00  0.00    -0.254 NA
HETATM   14  C9  UNL     1      27.796  -1.249  52.967  1.00  0.00     0.116 C 
HETATM   15  C10 UNL     1      28.385  -0.361  53.786  1.00  0.00     0.018 C 
HETATM   16  C11 UNL     1      28.119   0.877  54.571  1.00  0.00     0.196 C 
HETATM   17  O1  UNL     1      26.824   1.346  54.452  1.00  0.00    -0.384 OA
HETATM   18  C12 UNL     1      26.557   1.926  53.256  1.00  0.00     0.207 C 
HETATM   19  C13 UNL     1      25.110   2.221  52.965  1.00  0.00     0.213 C 
BRANCH  19  20
HETATM   20  O2  UNL     1      25.005   2.799  51.707  1.00  0.00    -0.381 OA
HETATM   21  C14 UNL     1      26.227   2.699  51.007  1.00  0.00     0.202 C 
ENDBRANCH  19  20
ENDBRANCH   7  10
TORSDOF 2
ENDMDL
MODEL 5
REMARK VINA RESULT:      -7.0      2.687      5.727
REMARK  2 active torsions:
REMARK  status: ('A' for Active; 'I' for Inactive)
REMARK    1  A    between atoms: N1_7  and  C7_8 
REMARK    2  A    between atoms: C13_17  and  O2_18 
ROOT
HETATM    1  C1  UNL     1      26.737  -2.004  52.335  1.00  0.00     0.012 C 
HETATM    2  C2  UNL     1      26.893  -0.806  52.311  1.00  0.00    -0.107 C 
HETATM    3  C3  UNL     1      27.095   0.644  52.267  1.00  0.00     0.109 C 
HETATM    4  C4  UNL     1      27.164   1.109  53.677  1.00  0.00    -0.010 C 
HETATM    5  C5  UNL     1      26.325   1.983  54.203  1.00  0.00    -0.010 C 
HETATM    6  C6  UNL     1      25.191   2.621  53.453  1.00  0.00     0.151 C 
HETATM    7  N1  UNL     1      24.896   1.726  52.342  1.00  0.00    -0.358 N 
HETATM    8  C15 UNL     1      26.021   1.359  51.494  1.00  0.00     0.101 C 
HETATM    9  C16 UNL     1      26.646   2.628  50.923  1.00  0.00     0.034 C 
ENDROOT
BRANCH   7  10
HETATM   10  C7  UNL     1      23.516   1.313  52.223  1.00  0.00     0.135 C 
HETATM   11  N2  UNL     1      23.625   0.306  53.078  1.00  0.00    -0.226 NA
HETATM   12  C8  UNL     1      22.479  -0.500  53.352  1.00  0.00     0.234 C 
HETATM   13  N3  UNL     1      21.572   0.203  53.910  1.00  0.00    -0.254 NA
HETATM   14  C9  UNL     1      20.304  -0.195  54.333  1.00  0.00     0.116 C 
HETATM   15  C10 UNL     1      19.567  -0.294  53.213  1.00  0.00     0.018 C 
HETATM   16  C11 UNL     1      19.638  -0.128  51.735  1.00  0.00     0.196 C 
HETATM   17  O1  UNL     1      20.874   0.291  51.279  1.00  0.00    -0.384 OA
HETATM   18  C12 UNL     1      21.144   1.594  51.541  1.00  0.00     0.207 C 
HETATM   19  C13 UNL     1      22.562   2.042  51.306  1.00  0.00     0.213 C 
BRANCH  19  20
HETATM   20  O2  UNL     1      22.675   3.388  51.629  1.00  0.00    -0.381 OA
HETATM   21  C14 UNL     1      21.455   3.885  52.135  1.00  0.00     0.202 C 
ENDBRANCH  19  20
ENDBRANCH   7  10
TORSDOF 2
ENDMDL
MODEL 6
REMARK VINA RESULT:      -6.9      7.519      9.924
REMARK  2 active torsions:
REMARK  status: ('A' for Active; 'I' for Inactive)
REMARK    1  A    between atoms: N1_7  and  C7_8 
REMARK    2  A    between atoms: C13_17  and  O2_18 
ROOT
HETATM    1  C1  UNL     1      27.899   5.064  48.493  1.00  0.00     0.012 C 
HETATM    2  C2  UNL     1      28.312   6.190  48.344  1.00  0.00    -0.107 C 
HETATM    3  C3  UNL     1      28.805   7.559  48.180  1.00  0.00     0.109 C 
HETATM    4  C4  UNL     1      28.654   7.899  46.741  1.00  0.00    -0.010 C 
HETATM    5  C5  UNL     1      29.664   8.226  45.955  1.00  0.00    -0.010 C 
HETATM    6  C6  UNL     1      31.096   8.298  46.406  1.00  0.00     0.151 C 
HETATM    7  N1  UNL     1      31.182   7.453  47.589  1.00  0.00    -0.358 N 
HETATM    8  C15 UNL     1      30.223   7.729  48.650  1.00  0.00     0.101 C 
HETATM    9  C16 UNL     1      30.380   9.180  49.094  1.00  0.00     0.034 C 
ENDROOT
BRANCH   7  10
HETATM   10  C7  UNL     1      32.214   6.442  47.559  1.00  0.00     0.135 C 
HETATM   11  N2  UNL     1      31.793   5.883  46.434  1.00  0.00    -0.226 NA
HETATM   12  C8  UNL     1      32.497   4.757  45.910  1.00  0.00     0.234 C 
HETATM   13  N3  UNL     1      33.686   5.094  45.591  1.00  0.00    -0.254 NA
HETATM   14  C9  UNL     1      34.697   4.300  45.052  1.00  0.00     0.116 C 
HETATM   15  C10 UNL     1      35.160   3.564  46.077  1.00  0.00     0.018 C 
HETATM   16  C11 UNL     1      34.972   3.320  47.534  1.00  0.00     0.196 C 
HETATM   17  O1  UNL     1      33.993   4.109  48.111  1.00  0.00    -0.384 OA
HETATM   18  C12 UNL     1      34.356   5.405  48.271  1.00  0.00     0.207 C 
HETATM   19  C13 UNL     1      33.258   6.363  48.648  1.00  0.00     0.213 C 
BRANCH  19  20
HETATM   20  O2  UNL     1      33.787   7.642  48.762  1.00  0.00    -0.381 OA
HETATM   21  C14 UNL     1      35.046   7.722  48.126  1.00  0.00     0.202 C 
ENDBRANCH  19  20
ENDBRANCH   7  10
TORSDOF 2
ENDMDL
MODEL 7
REMARK VINA RESULT:      -6.8      2.328      3.420
REMARK  2 active torsions:
REMARK  status: ('A' for Active; 'I' for Inactive)
REMARK    1  A    between atoms: N1_7  and  C7_8 
REMARK    2  A    between atoms: C13_17  and  O2_18 
ROOT
HETATM    1  C1  UNL     1      22.419   1.983  47.813  1.00  0.00     0.012 C 
HETATM    2  C2  UNL     1      21.513   1.929  48.613  1.00  0.00    -0.107 C 
HETATM    3  C3  UNL     1      20.407   1.853  49.569  1.00  0.00     0.109 C 
HETATM    4  C4  UNL     1      20.275   3.202  50.178  1.00  0.00    -0.010 C 
HETATM    5  C5  UNL     1      20.406   3.439  51.471  1.00  0.00    -0.010 C 
HETATM    6  C6  UNL     1      20.704   2.382  52.497  1.00  0.00     0.151 C 
HETATM    7  N1  UNL     1      21.332   1.288  51.768  1.00  0.00    -0.358 N 
HETATM    8  C15 UNL     1      20.607   0.786  50.609  1.00  0.00     0.101 C 
HETATM    9  C16 UNL     1      19.223   0.323  51.052  1.00  0.00     0.034 C 
ENDROOT
BRANCH   7  10
HETATM   10  C7  UNL     1      22.602   0.838  52.290  1.00  0.00     0.135 C 
HETATM   11  N2  UNL     1      23.303   1.824  51.749  1.00  0.00    -0.226 NA
HETATM   12  C8  UNL     1      24.714   1.870  51.958  1.00  0.00     0.234 C 
HETATM   13  N3  UNL     1      24.968   2.037  53.198  1.00  0.00    -0.254 NA
HETATM   14  C9  UNL     1      26.210   2.130  53.824  1.00  0.00     0.116 C 
HETATM   15  C10 UNL     1      26.682   0.873  53.875  1.00  0.00     0.018 C 
HETATM   16  C11 UNL     1      26.342  -0.531  53.511  1.00  0.00     0.196 C 
HETATM   17  O1  UNL     1      25.104  -0.668  52.910  1.00  0.00    -0.384 OA
HETATM   18  C12 UNL     1      24.061  -0.529  53.764  1.00  0.00     0.207 C 
HETATM   19  C13 UNL     1      22.697  -0.409  53.138  1.00  0.00     0.213 C 
BRANCH  19  20
HETATM   20  O2  UNL     1      21.746  -0.264  54.139  1.00  0.00    -0.381 OA
HETATM   21  C14 UNL     1      21.197  -1.516  54.493  1.00  0.00     0.202 C 
ENDBRANCH  19  20
ENDBRANCH   7  10
TORSDOF 2
ENDMDL
MODEL 8
REMARK VINA RESULT:      -6.6      2.418      4.093
REMARK  2 active torsions:
REMARK  status: ('A' for Active; 'I' for Inactive)
REMARK    1  A    between atoms: N1_7  and  C7_8 
REMARK    2  A    between atoms: C13_17  and  O2_18 
ROOT
HETATM    1  C1  UNL     1      21.989   1.547  47.955  1.00  0.00     0.012 C 
HETATM    2  C2  UNL     1      21.203   1.494  48.872  1.00  0.00    -0.107 C 
HETATM    3  C3  UNL     1      20.244   1.415  49.975  1.00  0.00     0.109 C 
HETATM    4  C4  UNL     1      19.851   2.810  50.303  1.00  0.00    -0.010 C 
HETATM    5  C5  UNL     1      20.044   3.368  51.484  1.00  0.00    -0.010 C 
HETATM    6  C6  UNL     1      20.684   2.672  52.652  1.00  0.00     0.151 C 
HETATM    7  N1  UNL     1      21.482   1.595  52.083  1.00  0.00    -0.358 N 
HETATM    8  C15 UNL     1      20.792   0.691  51.174  1.00  0.00     0.101 C 
HETATM    9  C16 UNL     1      19.607   0.065  51.903  1.00  0.00     0.034 C 
ENDROOT
BRANCH   7  10
HETATM   10  C7  UNL     1      22.867   1.561  52.495  1.00  0.00     0.135 C 
HETATM   11  N2  UNL     1      22.769   0.401  53.129  1.00  0.00    -0.226 NA
HETATM   12  C8  UNL     1      23.923  -0.141  53.770  1.00  0.00     0.234 C 
HETATM   13  N3  UNL     1      24.821  -0.407  52.904  1.00  0.00    -0.254 NA
HETATM   14  C9  UNL     1      26.092  -0.942  53.108  1.00  0.00     0.116 C 
HETATM   15  C10 UNL     1      26.832   0.069  53.594  1.00  0.00     0.018 C 
HETATM   16  C11 UNL     1      26.763   1.508  53.970  1.00  0.00     0.196 C 
HETATM   17  O1  UNL     1      25.523   2.082  53.757  1.00  0.00    -0.384 OA
HETATM   18  C12 UNL     1      25.238   2.304  52.450  1.00  0.00     0.207 C 
HETATM   19  C13 UNL     1      23.815   2.681  52.133  1.00  0.00     0.213 C 
BRANCH  19  20
HETATM   20  O2  UNL     1      23.685   2.862  50.762  1.00  0.00    -0.381 OA
HETATM   21  C14 UNL     1      24.193   4.120  50.373  1.00  0.00     0.202 C 
ENDBRANCH  19  20
ENDBRANCH   7  10
TORSDOF 2
ENDMDL
MODEL 9
REMARK VINA RESULT:      -6.2      5.742      8.423
REMARK  2 active torsions:
REMARK  status: ('A' for Active; 'I' for Inactive)
REMARK    1  A    between atoms: N1_7  and  C7_8 
REMARK    2  A    between atoms: C13_17  and  O2_18 
ROOT
HETATM    1  C1  UNL     1      26.478   3.409  49.647  1.00  0.00     0.012 C 
HETATM    2  C2  UNL     1      25.666   4.301  49.726  1.00  0.00    -0.107 C 
HETATM    3  C3  UNL     1      24.677   5.375  49.838  1.00  0.00     0.109 C 
HETATM    4  C4  UNL     1      24.076   5.547  48.489  1.00  0.00    -0.010 C 
HETATM    5  C5  UNL     1      24.134   6.671  47.798  1.00  0.00    -0.010 C 
HETATM    6  C6  UNL     1      24.811   7.923  48.279  1.00  0.00     0.151 C 
HETATM    7  N1  UNL     1      25.779   7.492  49.278  1.00  0.00    -0.358 N 
HETATM    8  C15 UNL     1      25.266   6.658  50.356  1.00  0.00     0.101 C 
HETATM    9  C16 UNL     1      24.150   7.409  51.075  1.00  0.00     0.034 C 
ENDROOT
BRANCH   7  10
HETATM   10  C7  UNL     1      27.135   7.950  49.071  1.00  0.00     0.135 C 
HETATM   11  N2  UNL     1      27.414   7.055  48.134  1.00  0.00    -0.226 NA
HETATM   12  C8  UNL     1      28.713   7.052  47.541  1.00  0.00     0.234 C 
HETATM   13  N3  UNL     1      28.908   8.144  46.909  1.00  0.00    -0.254 NA
HETATM   14  C9  UNL     1      30.039   8.544  46.199  1.00  0.00     0.116 C 
HETATM   15  C10 UNL     1      30.941   8.898  47.130  1.00  0.00     0.018 C 
HETATM   16  C11 UNL     1      31.136   9.008  48.603  1.00  0.00     0.196 C 
HETATM   17  O1  UNL     1      30.025   8.645  49.342  1.00  0.00    -0.384 OA
HETATM   18  C12 UNL     1      29.019   9.552  49.304  1.00  0.00     0.207 C 
HETATM   19  C13 UNL     1      27.696   9.105  49.867  1.00  0.00     0.213 C 
BRANCH  19  20
HETATM   20  O2  UNL     1      26.775  10.137  49.745  1.00  0.00    -0.381 OA
HETATM   21  C14 UNL     1      27.057  10.927  48.609  1.00  0.00     0.202 C 
ENDBRANCH  19  20
ENDBRANCH   7  10
TORSDOF 2
ENDMDL
