MODEL 1
REMARK VINA RESULT:      -8.5      0.000      0.000
REMARK  6 active torsions:
REMARK  status: ('A' for Active; 'I' for Inactive)
REMARK    1  A    between atoms: C8_10  and  C9_11 
REMARK    2  A    between atoms: C9_11  and  N3_12 
REMARK    3  A    between atoms: N3_12  and  C10_13 
REMARK    4  A    between atoms: C13_17  and  N4_18 
REMARK    5  A    between atoms: N4_18  and  C14_19 
REMARK    6  A    between atoms: C14_19  and  C15_20 
ROOT
HETATM    1  N1  UNL     1      27.368   9.577  50.716  1.00  0.00    -0.196 NA
HETATM    2  C1  UNL     1      27.274   9.731  49.570  1.00  0.00     0.072 C 
HETATM    3  C2  UNL     1      27.177   9.938  48.106  1.00  0.00     0.146 C 
HETATM    4  C3  UNL     1      27.497   8.699  47.371  1.00  0.00    -0.001 C 
HETATM    5  C4  UNL     1      27.348   7.388  47.384  1.00  0.00     0.030 C 
HETATM    6  C5  UNL     1      26.684   6.463  48.302  1.00  0.00     0.068 A 
HETATM    7  N2  UNL     1      27.493   5.407  48.380  1.00  0.00    -0.260 NA
HETATM    8  C6  UNL     1      27.176   4.354  49.153  1.00  0.00     0.118 A 
HETATM    9  C7  UNL     1      25.967   4.438  49.856  1.00  0.00     0.033 A 
HETATM   10  C8  UNL     1      25.116   5.544  49.775  1.00  0.00    -0.006 A 
HETATM   11  C21 UNL     1      25.482   6.621  48.957  1.00  0.00     0.017 A 
HETATM   12  C22 UNL     1      24.444   7.368  49.181  1.00  0.00     0.004 C 
HETATM   13  P1  UNL     1      24.093   8.791  48.433  1.00  0.00    -0.017 P 
HETATM   14  P2  UNL     1      25.414  10.461  47.797  1.00  0.00    -0.068 P 
HETATM   15  H18 UNL     1      25.272  10.604  46.341  1.00  0.00     0.064 HD
ENDROOT
BRANCH  10  16
HETATM   16  C9  UNL     1      23.994   5.518  50.483  1.00  0.00     0.096 C 
BRANCH  16  17
HETATM   17  N3  UNL     1      24.119   5.231  51.869  1.00  0.00    -0.387 N 
HETATM   18  H7  UNL     1      24.785   5.664  52.545  1.00  0.00     0.159 HD
BRANCH  17  19
HETATM   19  C10 UNL     1      23.220   4.227  52.393  1.00  0.00     0.131 A 
HETATM   20  C11 UNL     1      22.462   3.607  51.270  1.00  0.00     0.028 A 
HETATM   21  C12 UNL     1      22.685   2.311  51.131  1.00  0.00     0.058 A 
HETATM   22 CL1  UNL     1      22.040   1.149  49.975  1.00  0.00    -0.082 Cl
HETATM   23  C13 UNL     1      23.648   1.955  52.195  1.00  0.00     0.048 A 
HETATM   24  C20 UNL     1      23.962   3.038  52.922  1.00  0.00     0.033 A 
BRANCH  23  25
HETATM   25  N4  UNL     1      24.167   0.627  52.409  1.00  0.00    -0.384 N 
HETATM   26  H10 UNL     1      24.363   0.176  51.487  1.00  0.00     0.160 HD
BRANCH  25  27
HETATM   27  C14 UNL     1      24.418  -0.068  53.676  1.00  0.00     0.160 C 
BRANCH  27  28
HETATM   28  C15 UNL     1      25.888  -0.235  53.819  1.00  0.00    -0.023 A 
HETATM   29  C16 UNL     1      26.635  -0.721  52.766  1.00  0.00     0.012 A 
HETATM   30  C17 UNL     1      27.994  -0.870  52.912  1.00  0.00     0.020 A 
HETATM   31  C18 UNL     1      28.585  -0.529  54.119  1.00  0.00     0.116 A 
HETATM   32  N5  UNL     1      27.867  -0.056  55.153  1.00  0.00    -0.273 NA
HETATM   33  C19 UNL     1      26.524   0.089  55.000  1.00  0.00     0.124 A 
ENDBRANCH  27  28
ENDBRANCH  25  27
ENDBRANCH  23  25
ENDBRANCH  17  19
ENDBRANCH  16  17
ENDBRANCH  10  16
TORSDOF 6
ENDMDL
MODEL 2
REMARK VINA RESULT:      -8.5      4.339      8.244
REMARK  6 active torsions:
REMARK  status: ('A' for Active; 'I' for Inactive)
REMARK    1  A    between atoms: C8_10  and  C9_11 
REMARK    2  A    between atoms: C9_11  and  N3_12 
REMARK    3  A    between atoms: N3_12  and  C10_13 
REMARK    4  A    between atoms: C13_17  and  N4_18 
REMARK    5  A    between atoms: N4_18  and  C14_19 
REMARK    6  A    between atoms: C14_19  and  C15_20 
ROOT
HETATM    1  N1  UNL     1      21.575   0.823  49.171  1.00  0.00    -0.196 NA
HETATM    2  C1  UNL     1      21.263   0.781  50.287  1.00  0.00     0.072 C 
HETATM    3  C2  UNL     1      20.856   0.702  51.710  1.00  0.00     0.146 C 
HETATM    4  C3  UNL     1      22.018   0.442  52.582  1.00  0.00    -0.001 C 
HETATM    5  C4  UNL     1      23.292   0.732  52.767  1.00  0.00     0.030 C 
HETATM    6  C5  UNL     1      24.243   1.583  52.052  1.00  0.00     0.068 A 
HETATM    7  N2  UNL     1      25.389   0.903  52.053  1.00  0.00    -0.260 NA
HETATM    8  C6  UNL     1      26.488   1.410  51.467  1.00  0.00     0.118 A 
HETATM    9  C7  UNL     1      26.352   2.669  50.869  1.00  0.00     0.033 A 
HETATM   10  C8  UNL     1      25.151   3.383  50.867  1.00  0.00    -0.006 A 
HETATM   11  C21 UNL     1      24.028   2.822  51.489  1.00  0.00     0.017 A 
HETATM   12  C22 UNL     1      23.197   3.791  51.254  1.00  0.00     0.004 C 
HETATM   13  P1  UNL     1      21.656   3.909  51.821  1.00  0.00    -0.017 P 
HETATM   14  P2  UNL     1      20.089   2.358  52.095  1.00  0.00    -0.068 P 
HETATM   15  H18 UNL     1      19.742   2.332  53.524  1.00  0.00     0.064 HD
ENDROOT
BRANCH  10  16
HETATM   16  C9  UNL     1      25.134   4.569  50.271  1.00  0.00     0.096 C 
BRANCH  16  17
HETATM   17  N3  UNL     1      26.383   5.230  50.126  1.00  0.00    -0.387 N 
HETATM   18  H7  UNL     1      27.062   5.469  50.881  1.00  0.00     0.159 HD
BRANCH  17  19
HETATM   19  C10 UNL     1      26.747   5.611  48.779  1.00  0.00     0.131 A 
HETATM   20  C11 UNL     1      26.945   7.087  48.720  1.00  0.00     0.028 A 
HETATM   21  C12 UNL     1      28.175   7.444  48.389  1.00  0.00     0.058 A 
HETATM   22 CL1  UNL     1      28.896   9.039  48.189  1.00  0.00    -0.082 Cl
HETATM   23  C13 UNL     1      28.920   6.182  48.196  1.00  0.00     0.048 A 
HETATM   24  C20 UNL     1      28.118   5.128  48.416  1.00  0.00     0.033 A 
BRANCH  23  25
HETATM   25  N4  UNL     1      30.311   6.108  47.824  1.00  0.00    -0.384 N 
HETATM   26  H10 UNL     1      30.407   6.282  46.798  1.00  0.00     0.160 HD
BRANCH  25  27
HETATM   27  C14 UNL     1      31.476   5.840  48.674  1.00  0.00     0.160 C 
BRANCH  27  28
HETATM   28  C15 UNL     1      32.343   4.866  47.960  1.00  0.00    -0.023 A 
HETATM   29  C16 UNL     1      31.780   3.903  47.147  1.00  0.00     0.012 A 
HETATM   30  C17 UNL     1      32.594   3.010  46.493  1.00  0.00     0.020 A 
HETATM   31  C18 UNL     1      33.967   3.095  46.667  1.00  0.00     0.116 A 
HETATM   32  N5  UNL     1      34.527   4.027  47.457  1.00  0.00    -0.273 NA
HETATM   33  C19 UNL     1      33.715   4.907  48.100  1.00  0.00     0.124 A 
ENDBRANCH  27  28
ENDBRANCH  25  27
ENDBRANCH  23  25
ENDBRANCH  17  19
ENDBRANCH  16  17
ENDBRANCH  10  16
TORSDOF 6
ENDMDL
MODEL 3
REMARK VINA RESULT:      -8.1      3.367      8.340
REMARK  6 active torsions:
REMARK  status: ('A' for Active; 'I' for Inactive)
REMARK    1  A    between atoms: C8_10  and  C9_11 
REMARK    2  A    between atoms: C9_11  and  N3_12 
REMARK    3  A    between atoms: N3_12  and  C10_13 
REMARK    4  A    between atoms: C13_17  and  N4_18 
REMARK    5  A    between atoms: N4_18  and  C14_19 
REMARK    6  A    between atoms: C14_19  and  C15_20 
ROOT
HETATM    1  N1  UNL     1      21.368   0.982  48.912  1.00  0.00    -0.196 NA
HETATM    2  C1  UNL     1      20.527   0.953  49.710  1.00  0.00     0.072 C 
HETATM    3  C2  UNL     1      19.442   0.895  50.717  1.00  0.00     0.146 C 
HETATM    4  C3  UNL     1      19.879   0.177  51.930  1.00  0.00    -0.001 C 
HETATM    5  C4  UNL     1      20.901  -0.007  52.745  1.00  0.00     0.030 C 
HETATM    6  C5  UNL     1      22.263   0.525  52.783  1.00  0.00     0.068 A 
HETATM    7  N2  UNL     1      23.030  -0.504  53.141  1.00  0.00    -0.260 NA
HETATM    8  C6  UNL     1      24.359  -0.357  53.272  1.00  0.00     0.118 A 
HETATM    9  C7  UNL     1      24.875   0.919  53.012  1.00  0.00     0.033 A 
HETATM   10  C8  UNL     1      24.072   2.000  52.637  1.00  0.00    -0.006 A 
HETATM   11  C21 UNL     1      22.690   1.806  52.511  1.00  0.00     0.017 A 
HETATM   12  C22 UNL     1      22.376   3.019  52.170  1.00  0.00     0.004 C 
HETATM   13  P1  UNL     1      20.852   3.609  51.976  1.00  0.00    -0.017 P 
HETATM   14  P2  UNL     1      19.034   2.674  51.105  1.00  0.00    -0.068 P 
HETATM   15  H18 UNL     1      18.008   2.644  52.158  1.00  0.00     0.064 HD
ENDROOT
BRANCH  10  16
HETATM   16  C9  UNL     1      24.665   3.166  52.415  1.00  0.00     0.096 C 
BRANCH  16  17
HETATM   17  N3  UNL     1      25.797   3.156  51.556  1.00  0.00    -0.387 N 
HETATM   18  H7  UNL     1      26.789   2.971  51.822  1.00  0.00     0.159 HD
BRANCH  17  19
HETATM   19  C10 UNL     1      25.537   3.433  50.160  1.00  0.00     0.131 A 
HETATM   20  C11 UNL     1      24.799   4.722  50.041  1.00  0.00     0.028 A 
HETATM   21  C12 UNL     1      25.457   5.650  49.366  1.00  0.00     0.058 A 
HETATM   22 CL1  UNL     1      25.019   7.307  48.960  1.00  0.00    -0.082 Cl
HETATM   23  C13 UNL     1      26.736   5.024  48.969  1.00  0.00     0.048 A 
HETATM   24  C20 UNL     1      26.795   3.759  49.415  1.00  0.00     0.033 A 
BRANCH  23  25
HETATM   25  N4  UNL     1      27.764   5.689  48.208  1.00  0.00    -0.384 N 
HETATM   26  H10 UNL     1      27.328   6.404  47.584  1.00  0.00     0.160 HD
BRANCH  25  27
HETATM   27  C14 UNL     1      29.214   5.470  48.236  1.00  0.00     0.160 C 
BRANCH  27  28
HETATM   28  C15 UNL     1      29.860   6.755  48.607  1.00  0.00    -0.023 A 
HETATM   29  C16 UNL     1      29.138   7.931  48.567  1.00  0.00     0.012 A 
HETATM   30  C17 UNL     1      29.749   9.113  48.913  1.00  0.00     0.020 A 
HETATM   31  C18 UNL     1      31.081   9.098  49.295  1.00  0.00     0.116 A 
HETATM   32  N5  UNL     1      31.795   7.960  49.337  1.00  0.00    -0.273 NA
HETATM   33  C19 UNL     1      31.185   6.796  48.994  1.00  0.00     0.124 A 
ENDBRANCH  27  28
ENDBRANCH  25  27
ENDBRANCH  23  25
ENDBRANCH  17  19
ENDBRANCH  16  17
ENDBRANCH  10  16
TORSDOF 6
ENDMDL
MODEL 4
REMARK VINA RESULT:      -8.0      3.703      8.969
REMARK  6 active torsions:
REMARK  status: ('A' for Active; 'I' for Inactive)
REMARK    1  A    between atoms: C8_10  and  C9_11 
REMARK    2  A    between atoms: C9_11  and  N3_12 
REMARK    3  A    between atoms: N3_12  and  C10_13 
REMARK    4  A    between atoms: C13_17  and  N4_18 
REMARK    5  A    between atoms: N4_18  and  C14_19 
REMARK    6  A    between atoms: C14_19  and  C15_20 
ROOT
HETATM    1  N1  UNL     1      21.630   0.878  48.982  1.00  0.00    -0.196 NA
HETATM    2  C1  UNL     1      21.270   0.775  50.080  1.00  0.00     0.072 C 
HETATM    3  C2  UNL     1      20.802   0.619  51.477  1.00  0.00     0.146 C 
HETATM    4  C3  UNL     1      21.926   0.308  52.382  1.00  0.00    -0.001 C 
HETATM    5  C4  UNL     1      23.190   0.583  52.638  1.00  0.00     0.030 C 
HETATM    6  C5  UNL     1      24.171   1.469  52.012  1.00  0.00     0.068 A 
HETATM    7  N2  UNL     1      25.316   0.787  52.025  1.00  0.00    -0.260 NA
HETATM    8  C6  UNL     1      26.439   1.322  51.516  1.00  0.00     0.118 A 
HETATM    9  C7  UNL     1      26.331   2.613  50.983  1.00  0.00     0.033 A 
HETATM   10  C8  UNL     1      25.131   3.330  50.970  1.00  0.00    -0.006 A 
HETATM   11  C21 UNL     1      23.982   2.738  51.510  1.00  0.00     0.017 A 
HETATM   12  C22 UNL     1      23.163   3.722  51.294  1.00  0.00     0.004 C 
HETATM   13  P1  UNL     1      21.599   3.813  51.800  1.00  0.00    -0.017 P 
HETATM   14  P2  UNL     1      20.020   2.254  51.920  1.00  0.00    -0.068 P 
HETATM   15  H18 UNL     1      19.612   2.150  53.329  1.00  0.00     0.064 HD
ENDROOT
BRANCH  10  16
HETATM   16  C9  UNL     1      25.141   4.546  50.440  1.00  0.00     0.096 C 
BRANCH  16  17
HETATM   17  N3  UNL     1      26.413   5.104  50.140  1.00  0.00    -0.387 N 
HETATM   18  H7  UNL     1      27.141   5.416  50.820  1.00  0.00     0.159 HD
BRANCH  17  19
HETATM   19  C10 UNL     1      26.727   5.252  48.737  1.00  0.00     0.131 A 
HETATM   20  C11 UNL     1      26.428   6.649  48.309  1.00  0.00     0.028 A 
HETATM   21  C12 UNL     1      27.491   7.311  47.884  1.00  0.00     0.058 A 
HETATM   22 CL1  UNL     1      27.656   8.959  47.283  1.00  0.00    -0.082 Cl
HETATM   23  C13 UNL     1      28.624   6.369  48.001  1.00  0.00     0.048 A 
HETATM   24  C20 UNL     1      28.202   5.190  48.487  1.00  0.00     0.033 A 
BRANCH  23  25
HETATM   25  N4  UNL     1      29.984   6.684  47.641  1.00  0.00    -0.384 N 
HETATM   26  H10 UNL     1      30.121   6.518  46.619  1.00  0.00     0.160 HD
BRANCH  25  27
HETATM   27  C14 UNL     1      31.072   7.167  48.498  1.00  0.00     0.160 C 
BRANCH  27  28
HETATM   28  C15 UNL     1      31.112   8.648  48.389  1.00  0.00    -0.023 A 
HETATM   29  C16 UNL     1      30.524   9.431  49.362  1.00  0.00     0.012 A 
HETATM   30  C17 UNL     1      30.569  10.800  49.248  1.00  0.00     0.020 A 
HETATM   31  C18 UNL     1      31.204  11.366  48.154  1.00  0.00     0.116 A 
HETATM   32  N5  UNL     1      31.779  10.615  47.199  1.00  0.00    -0.273 NA
HETATM   33  C19 UNL     1      31.731   9.262  47.319  1.00  0.00     0.124 A 
ENDBRANCH  27  28
ENDBRANCH  25  27
ENDBRANCH  23  25
ENDBRANCH  17  19
ENDBRANCH  16  17
ENDBRANCH  10  16
TORSDOF 6
ENDMDL
MODEL 5
REMARK VINA RESULT:      -8.0      3.812      5.432
REMARK  6 active torsions:
REMARK  status: ('A' for Active; 'I' for Inactive)
REMARK    1  A    between atoms: C8_10  and  C9_11 
REMARK    2  A    between atoms: C9_11  and  N3_12 
REMARK    3  A    between atoms: N3_12  and  C10_13 
REMARK    4  A    between atoms: C13_17  and  N4_18 
REMARK    5  A    between atoms: N4_18  and  C14_19 
REMARK    6  A    between atoms: C14_19  and  C15_20 
ROOT
HETATM    1  N1  UNL     1      31.494   7.829  44.663  1.00  0.00    -0.196 NA
HETATM    2  C1  UNL     1      32.361   7.558  45.384  1.00  0.00     0.072 C 
HETATM    3  C2  UNL     1      33.483   7.230  46.294  1.00  0.00     0.146 C 
HETATM    4  C3  UNL     1      33.357   7.950  47.576  1.00  0.00    -0.001 C 
HETATM    5  C4  UNL     1      32.492   8.354  48.485  1.00  0.00     0.030 C 
HETATM    6  C5  UNL     1      31.040   8.230  48.615  1.00  0.00     0.068 A 
HETATM    7  N2  UNL     1      30.630   9.405  49.092  1.00  0.00    -0.260 NA
HETATM    8  C6  UNL     1      29.327   9.632  49.331  1.00  0.00     0.118 A 
HETATM    9  C7  UNL     1      28.448   8.579  49.052  1.00  0.00     0.033 A 
HETATM   10  C8  UNL     1      28.876   7.345  48.552  1.00  0.00    -0.006 A 
HETATM   11  C21 UNL     1      30.242   7.147  48.316  1.00  0.00     0.017 A 
HETATM   12  C22 UNL     1      30.168   5.924  47.887  1.00  0.00     0.004 C 
HETATM   13  P1  UNL     1      31.439   4.942  47.529  1.00  0.00    -0.017 P 
HETATM   14  P2  UNL     1      33.385   5.385  46.552  1.00  0.00    -0.068 P 
HETATM   15  H18 UNL     1      34.446   5.043  47.510  1.00  0.00     0.064 HD
ENDROOT
BRANCH  10  16
HETATM   16  C9  UNL     1      27.957   6.416  48.323  1.00  0.00     0.096 C 
BRANCH  16  17
HETATM   17  N3  UNL     1      26.947   6.258  49.310  1.00  0.00    -0.387 N 
HETATM   18  H7  UNL     1      26.773   6.868  50.139  1.00  0.00     0.159 HD
BRANCH  17  19
HETATM   19  C10 UNL     1      26.065   5.125  49.140  1.00  0.00     0.131 A 
HETATM   20  C11 UNL     1      26.805   3.870  49.456  1.00  0.00     0.028 A 
HETATM   21  C12 UNL     1      26.301   3.201  50.480  1.00  0.00     0.058 A 
HETATM   22 CL1  UNL     1      26.807   1.690  51.229  1.00  0.00    -0.082 Cl
HETATM   23  C13 UNL     1      25.140   3.992  50.942  1.00  0.00     0.048 A 
HETATM   24  C20 UNL     1      24.994   5.092  50.187  1.00  0.00     0.033 A 
BRANCH  23  25
HETATM   25  N4  UNL     1      24.294   3.621  52.049  1.00  0.00    -0.384 N 
HETATM   26  H10 UNL     1      24.839   3.677  52.939  1.00  0.00     0.160 HD
BRANCH  25  27
HETATM   27  C14 UNL     1      22.885   3.216  52.032  1.00  0.00     0.160 C 
BRANCH  27  28
HETATM   28  C15 UNL     1      22.816   1.792  52.451  1.00  0.00    -0.023 A 
HETATM   29  C16 UNL     1      23.890   1.206  53.091  1.00  0.00     0.012 A 
HETATM   30  C17 UNL     1      23.813  -0.112  53.473  1.00  0.00     0.020 A 
HETATM   31  C18 UNL     1      22.655  -0.826  53.205  1.00  0.00     0.116 A 
HETATM   32  N5  UNL     1      21.603  -0.267  52.582  1.00  0.00    -0.273 NA
HETATM   33  C19 UNL     1      21.687   1.037  52.208  1.00  0.00     0.124 A 
ENDBRANCH  27  28
ENDBRANCH  25  27
ENDBRANCH  23  25
ENDBRANCH  17  19
ENDBRANCH  16  17
ENDBRANCH  10  16
TORSDOF 6
ENDMDL
MODEL 6
REMARK VINA RESULT:      -7.8      2.286      3.249
REMARK  6 active torsions:
REMARK  status: ('A' for Active; 'I' for Inactive)
REMARK    1  A    between atoms: C8_10  and  C9_11 
REMARK    2  A    between atoms: C9_11  and  N3_12 
REMARK    3  A    between atoms: N3_12  and  C10_13 
REMARK    4  A    between atoms: C13_17  and  N4_18 
REMARK    5  A    between atoms: N4_18  and  C14_19 
REMARK    6  A    between atoms: C14_19  and  C15_20 
ROOT
HETATM    1  N1  UNL     1      21.421   7.804  50.758  1.00  0.00    -0.196 NA
HETATM    2  C1  UNL     1      21.088   7.868  49.649  1.00  0.00     0.072 C 
HETATM    3  C2  UNL     1      20.656   7.975  48.235  1.00  0.00     0.146 C 
HETATM    4  C3  UNL     1      21.810   8.198  47.342  1.00  0.00    -0.001 C 
HETATM    5  C4  UNL     1      23.067   7.861  47.128  1.00  0.00     0.030 C 
HETATM    6  C5  UNL     1      23.998   6.967  47.817  1.00  0.00     0.068 A 
HETATM    7  N2  UNL     1      25.170   7.602  47.798  1.00  0.00    -0.260 NA
HETATM    8  C6  UNL     1      26.260   7.048  48.357  1.00  0.00     0.118 A 
HETATM    9  C7  UNL     1      26.087   5.790  48.947  1.00  0.00     0.033 A 
HETATM   10  C8  UNL     1      24.859   5.122  48.968  1.00  0.00    -0.006 A 
HETATM   11  C21 UNL     1      23.747   5.733  48.374  1.00  0.00     0.017 A 
HETATM   12  C22 UNL     1      22.884   4.794  48.618  1.00  0.00     0.004 C 
HETATM   13  P1  UNL     1      21.329   4.741  48.081  1.00  0.00    -0.017 P 
HETATM   14  P2  UNL     1      19.818   6.354  47.852  1.00  0.00    -0.068 P 
HETATM   15  H18 UNL     1      19.443   6.406  46.431  1.00  0.00     0.064 HD
ENDROOT
BRANCH  10  16
HETATM   16  C9  UNL     1      24.808   3.933  49.554  1.00  0.00     0.096 C 
BRANCH  16  17
HETATM   17  N3  UNL     1      25.260   3.863  50.900  1.00  0.00    -0.387 N 
HETATM   18  H7  UNL     1      26.237   3.991  51.245  1.00  0.00     0.159 HD
BRANCH  17  19
HETATM   19  C10 UNL     1      24.250   3.584  51.895  1.00  0.00     0.131 A 
HETATM   20  C11 UNL     1      23.161   2.773  51.281  1.00  0.00     0.028 A 
HETATM   21  C12 UNL     1      23.015   1.579  51.831  1.00  0.00     0.058 A 
HETATM   22 CL1  UNL     1      21.889   0.274  51.467  1.00  0.00    -0.082 Cl
HETATM   23  C13 UNL     1      24.037   1.501  52.896  1.00  0.00     0.048 A 
HETATM   24  C20 UNL     1      24.749   2.638  52.944  1.00  0.00     0.033 A 
BRANCH  23  25
HETATM   25  N4  UNL     1      24.230   0.359  53.755  1.00  0.00    -0.384 N 
HETATM   26  H10 UNL     1      23.723   0.511  54.656  1.00  0.00     0.160 HD
BRANCH  25  27
HETATM   27  C14 UNL     1      24.995  -0.865  53.497  1.00  0.00     0.160 C 
BRANCH  27  28
HETATM   28  C15 UNL     1      26.423  -0.577  53.788  1.00  0.00    -0.023 A 
HETATM   29  C16 UNL     1      27.412  -1.072  52.961  1.00  0.00     0.012 A 
HETATM   30  C17 UNL     1      28.729  -0.798  53.242  1.00  0.00     0.020 A 
HETATM   31  C18 UNL     1      29.037  -0.029  54.354  1.00  0.00     0.116 A 
HETATM   32  N5  UNL     1      28.083   0.458  55.167  1.00  0.00    -0.273 NA
HETATM   33  C19 UNL     1      26.783   0.182  54.882  1.00  0.00     0.124 A 
ENDBRANCH  27  28
ENDBRANCH  25  27
ENDBRANCH  23  25
ENDBRANCH  17  19
ENDBRANCH  16  17
ENDBRANCH  10  16
TORSDOF 6
ENDMDL
MODEL 7
REMARK VINA RESULT:      -7.7      2.955      4.292
REMARK  6 active torsions:
REMARK  status: ('A' for Active; 'I' for Inactive)
REMARK    1  A    between atoms: C8_10  and  C9_11 
REMARK    2  A    between atoms: C9_11  and  N3_12 
REMARK    3  A    between atoms: N3_12  and  C10_13 
REMARK    4  A    between atoms: C13_17  and  N4_18 
REMARK    5  A    between atoms: N4_18  and  C14_19 
REMARK    6  A    between atoms: C14_19  and  C15_20 
ROOT
HETATM    1  N1  UNL     1      24.551   5.339  50.726  1.00  0.00    -0.196 NA
HETATM    2  C1  UNL     1      24.107   5.991  49.876  1.00  0.00     0.072 C 
HETATM    3  C2  UNL     1      23.565   6.829  48.781  1.00  0.00     0.146 C 
HETATM    4  C3  UNL     1      23.148   6.001  47.633  1.00  0.00    -0.001 C 
HETATM    5  C4  UNL     1      22.572   4.862  47.299  1.00  0.00     0.030 C 
HETATM    6  C5  UNL     1      22.010   3.756  48.074  1.00  0.00     0.068 A 
HETATM    7  N2  UNL     1      22.376   2.653  47.423  1.00  0.00    -0.260 NA
HETATM    8  C6  UNL     1      22.018   1.439  47.876  1.00  0.00     0.118 A 
HETATM    9  C7  UNL     1      21.255   1.410  49.050  1.00  0.00     0.033 A 
HETATM   10  C8  UNL     1      20.870   2.567  49.734  1.00  0.00    -0.006 A 
HETATM   11  C21 UNL     1      21.262   3.813  49.230  1.00  0.00     0.017 A 
HETATM   12  C22 UNL     1      20.702   4.552  50.139  1.00  0.00     0.004 C 
HETATM   13  P1  UNL     1      20.617   6.195  50.139  1.00  0.00    -0.017 P 
HETATM   14  P2  UNL     1      22.106   7.725  49.523  1.00  0.00    -0.068 P 
HETATM   15  H18 UNL     1      21.505   8.510  48.435  1.00  0.00     0.064 HD
ENDROOT
BRANCH  10  16
HETATM   16  C9  UNL     1      20.146   2.424  50.837  1.00  0.00     0.096 C 
BRANCH  16  17
HETATM   17  N3  UNL     1      20.450   1.308  51.662  1.00  0.00    -0.387 N 
HETATM   18  H7  UNL     1      20.149   0.318  51.520  1.00  0.00     0.159 HD
BRANCH  17  19
HETATM   19  C10 UNL     1      21.265   1.580  52.824  1.00  0.00     0.131 A 
HETATM   20  C11 UNL     1      21.140   0.452  53.791  1.00  0.00     0.028 A 
HETATM   21  C12 UNL     1      22.281  -0.176  54.023  1.00  0.00     0.058 A 
HETATM   22 CL1  UNL     1      22.649  -1.546  55.066  1.00  0.00    -0.082 Cl
HETATM   23  C13 UNL     1      23.293   0.513  53.194  1.00  0.00     0.048 A 
HETATM   24  C20 UNL     1      22.727   1.517  52.505  1.00  0.00     0.033 A 
BRANCH  23  25
HETATM   25  N4  UNL     1      24.687   0.149  53.144  1.00  0.00    -0.384 N 
HETATM   26  H10 UNL     1      24.893  -0.545  53.898  1.00  0.00     0.160 HD
BRANCH  25  27
HETATM   27  C14 UNL     1      25.726   0.618  52.222  1.00  0.00     0.160 C 
BRANCH  27  28
HETATM   28  C15 UNL     1      26.948   0.898  53.020  1.00  0.00    -0.023 A 
HETATM   29  C16 UNL     1      27.681  -0.144  53.553  1.00  0.00     0.012 A 
HETATM   30  C17 UNL     1      28.809   0.130  54.289  1.00  0.00     0.020 A 
HETATM   31  C18 UNL     1      29.186   1.450  54.482  1.00  0.00     0.116 A 
HETATM   32  N5  UNL     1      28.481   2.472  53.968  1.00  0.00    -0.273 NA
HETATM   33  C19 UNL     1      27.367   2.194  53.241  1.00  0.00     0.124 A 
ENDBRANCH  27  28
ENDBRANCH  25  27
ENDBRANCH  23  25
ENDBRANCH  17  19
ENDBRANCH  16  17
ENDBRANCH  10  16
TORSDOF 6
ENDMDL
MODEL 8
REMARK VINA RESULT:      -7.7      1.600      2.365
REMARK  6 active torsions:
REMARK  status: ('A' for Active; 'I' for Inactive)
REMARK    1  A    between atoms: C8_10  and  C9_11 
REMARK    2  A    between atoms: C9_11  and  N3_12 
REMARK    3  A    between atoms: N3_12  and  C10_13 
REMARK    4  A    between atoms: C13_17  and  N4_18 
REMARK    5  A    between atoms: N4_18  and  C14_19 
REMARK    6  A    between atoms: C14_19  and  C15_20 
ROOT
HETATM    1  N1  UNL     1      27.505   9.772  50.536  1.00  0.00    -0.196 NA
HETATM    2  C1  UNL     1      28.004   9.876  49.495  1.00  0.00     0.072 C 
HETATM    3  C2  UNL     1      28.665  10.016  48.176  1.00  0.00     0.146 C 
HETATM    4  C3  UNL     1      29.121   8.708  47.667  1.00  0.00    -0.001 C 
HETATM    5  C4  UNL     1      28.797   7.432  47.580  1.00  0.00     0.030 C 
HETATM    6  C5  UNL     1      27.645   6.655  48.036  1.00  0.00     0.068 A 
HETATM    7  N2  UNL     1      28.153   5.505  48.480  1.00  0.00    -0.260 NA
HETATM    8  C6  UNL     1      27.351   4.548  48.977  1.00  0.00     0.118 A 
HETATM    9  C7  UNL     1      25.980   4.830  48.999  1.00  0.00     0.033 A 
HETATM   10  C8  UNL     1      25.445   6.035  48.533  1.00  0.00    -0.006 A 
HETATM   11  C21 UNL     1      26.314   7.008  48.022  1.00  0.00     0.017 A 
HETATM   12  C22 UNL     1      25.418   7.899  47.723  1.00  0.00     0.004 C 
HETATM   13  P1  UNL     1      25.684   9.315  46.927  1.00  0.00    -0.017 P 
HETATM   14  P2  UNL     1      27.371  10.756  47.053  1.00  0.00    -0.068 P 
HETATM   15  H18 UNL     1      27.980  10.838  45.717  1.00  0.00     0.064 HD
ENDROOT
BRANCH  10  16
HETATM   16  C9  UNL     1      24.130   6.198  48.600  1.00  0.00     0.096 C 
BRANCH  16  17
HETATM   17  N3  UNL     1      23.327   5.139  48.098  1.00  0.00    -0.387 N 
HETATM   18  H7  UNL     1      23.461   4.616  47.205  1.00  0.00     0.159 HD
BRANCH  17  19
HETATM   19  C10 UNL     1      22.203   4.749  48.919  1.00  0.00     0.131 A 
HETATM   20  C11 UNL     1      22.006   3.275  48.820  1.00  0.00     0.028 A 
HETATM   21  C12 UNL     1      22.153   2.642  49.972  1.00  0.00     0.058 A 
HETATM   22 CL1  UNL     1      22.023   0.931  50.370  1.00  0.00    -0.082 Cl
HETATM   23  C13 UNL     1      22.472   3.689  50.966  1.00  0.00     0.048 A 
HETATM   24  C20 UNL     1      22.504   4.896  50.379  1.00  0.00     0.033 A 
BRANCH  23  25
HETATM   25  N4  UNL     1      22.711   3.435  52.365  1.00  0.00    -0.384 N 
HETATM   26  H10 UNL     1      21.815   3.163  52.828  1.00  0.00     0.160 HD
BRANCH  25  27
HETATM   27  C14 UNL     1      23.972   3.516  53.110  1.00  0.00     0.160 C 
BRANCH  27  28
HETATM   28  C15 UNL     1      24.788   2.327  52.753  1.00  0.00    -0.023 A 
HETATM   29  C16 UNL     1      25.899   2.466  51.946  1.00  0.00     0.012 A 
HETATM   30  C17 UNL     1      26.645   1.357  51.624  1.00  0.00     0.020 A 
HETATM   31  C18 UNL     1      26.262   0.119  52.117  1.00  0.00     0.116 A 
HETATM   32  N5  UNL     1      25.181  -0.029  52.903  1.00  0.00    -0.273 NA
HETATM   33  C19 UNL     1      24.449   1.072  53.217  1.00  0.00     0.124 A 
ENDBRANCH  27  28
ENDBRANCH  25  27
ENDBRANCH  23  25
ENDBRANCH  17  19
ENDBRANCH  16  17
ENDBRANCH  10  16
TORSDOF 6
ENDMDL
MODEL 9
REMARK VINA RESULT:      -7.6      4.396      8.205
REMARK  6 active torsions:
REMARK  status: ('A' for Active; 'I' for Inactive)
REMARK    1  A    between atoms: C8_10  and  C9_11 
REMARK    2  A    between atoms: C9_11  and  N3_12 
REMARK    3  A    between atoms: N3_12  and  C10_13 
REMARK    4  A    between atoms: C13_17  and  N4_18 
REMARK    5  A    between atoms: N4_18  and  C14_19 
REMARK    6  A    between atoms: C14_19  and  C15_20 
ROOT
HETATM    1  N1  UNL     1      23.518   4.681  53.073  1.00  0.00    -0.196 NA
HETATM    2  C1  UNL     1      23.485   3.597  52.663  1.00  0.00     0.072 C 
HETATM    3  C2  UNL     1      23.420   2.208  52.151  1.00  0.00     0.146 C 
HETATM    4  C3  UNL     1      22.876   2.171  50.780  1.00  0.00    -0.001 C 
HETATM    5  C4  UNL     1      22.880   2.797  49.619  1.00  0.00     0.030 C 
HETATM    6  C5  UNL     1      23.548   4.004  49.132  1.00  0.00     0.068 A 
HETATM    7  N2  UNL     1      22.643   4.621  48.373  1.00  0.00    -0.260 NA
HETATM    8  C6  UNL     1      22.936   5.782  47.763  1.00  0.00     0.118 A 
HETATM    9  C7  UNL     1      24.225   6.290  47.971  1.00  0.00     0.033 A 
HETATM   10  C8  UNL     1      25.176   5.643  48.766  1.00  0.00    -0.006 A 
HETATM   11  C21 UNL     1      24.832   4.435  49.385  1.00  0.00     0.017 A 
HETATM   12  C22 UNL     1      25.965   4.215  49.979  1.00  0.00     0.004 C 
HETATM   13  P1  UNL     1      26.376   2.862  50.820  1.00  0.00    -0.017 P 
HETATM   14  P2  UNL     1      25.178   1.586  52.190  1.00  0.00    -0.068 P 
HETATM   15  H18 UNL     1      25.152   0.232  51.618  1.00  0.00     0.064 HD
ENDROOT
BRANCH  10  16
HETATM   16  C9  UNL     1      26.367   6.212  48.896  1.00  0.00     0.096 C 
BRANCH  16  17
HETATM   17  N3  UNL     1      26.544   7.477  48.272  1.00  0.00    -0.387 N 
HETATM   18  H7  UNL     1      25.855   8.259  48.226  1.00  0.00     0.159 HD
BRANCH  17  19
HETATM   19  C10 UNL     1      27.822   7.695  47.631  1.00  0.00     0.131 A 
HETATM   20  C11 UNL     1      28.436   8.943  48.167  1.00  0.00     0.028 A 
HETATM   21  C12 UNL     1      29.587   8.742  48.787  1.00  0.00     0.058 A 
HETATM   22 CL1  UNL     1      30.682   9.874  49.577  1.00  0.00    -0.082 Cl
HETATM   23  C13 UNL     1      29.836   7.287  48.709  1.00  0.00     0.048 A 
HETATM   24  C20 UNL     1      28.836   6.677  48.052  1.00  0.00     0.033 A 
BRANCH  23  25
HETATM   25  N4  UNL     1      30.993   6.629  49.263  1.00  0.00    -0.384 N 
HETATM   26  H10 UNL     1      30.705   6.053  50.086  1.00  0.00     0.160 HD
BRANCH  25  27
HETATM   27  C14 UNL     1      32.388   6.694  48.817  1.00  0.00     0.160 C 
BRANCH  27  28
HETATM   28  C15 UNL     1      32.544   5.755  47.676  1.00  0.00    -0.023 A 
HETATM   29  C16 UNL     1      31.985   4.494  47.736  1.00  0.00     0.012 A 
HETATM   30  C17 UNL     1      32.137   3.635  46.673  1.00  0.00     0.020 A 
HETATM   31  C18 UNL     1      32.851   4.056  45.561  1.00  0.00     0.116 A 
HETATM   32  N5  UNL     1      33.400   5.281  45.492  1.00  0.00    -0.273 NA
HETATM   33  C19 UNL     1      33.246   6.124  46.547  1.00  0.00     0.124 A 
ENDBRANCH  27  28
ENDBRANCH  25  27
ENDBRANCH  23  25
ENDBRANCH  17  19
ENDBRANCH  16  17
ENDBRANCH  10  16
TORSDOF 6
ENDMDL
