MODEL 1
REMARK VINA RESULT:      -7.9      0.000      0.000
REMARK  8 active torsions:
REMARK  status: ('A' for Active; 'I' for Inactive)
REMARK    1  A    between atoms: C3_3  and  C4_4 
REMARK    2  A    between atoms: C4_4  and  C5_5 
REMARK    3  A    between atoms: C5_5  and  C6_6 
REMARK    4  A    between atoms: C6_6  and  C7_7 
REMARK    5  A    between atoms: C7_7  and  O1_8 
REMARK    6  A    between atoms: O1_8  and  C8_9 
REMARK    7  A    between atoms: C16_19  and  N2_20 
REMARK    8  A    between atoms: N2_20  and  C17_21 
ROOT
HETATM    1  C1  UNL     1      24.147  -0.516  53.737  1.00  0.00     0.012 C 
HETATM    2  C2  UNL     1      23.182  -1.022  54.298  1.00  0.00    -0.117 C 
HETATM    3  C3  UNL     1      22.018  -1.612  54.950  1.00  0.00     0.093 C 
ENDROOT
BRANCH   3   4
HETATM    4  C4  UNL     1      20.798  -1.296  54.100  1.00  0.00     0.012 C 
BRANCH   4   5
HETATM    5  C5  UNL     1      20.531   0.174  54.278  1.00  0.00     0.003 C 
BRANCH   5   6
HETATM    6  C6  UNL     1      19.888   0.697  52.996  1.00  0.00     0.027 C 
BRANCH   6   7
HETATM    7  C7  UNL     1      20.693   1.872  52.536  1.00  0.00     0.176 C 
BRANCH   7   8
HETATM    8  O1  UNL     1      20.980   1.825  51.160  1.00  0.00    -0.348 OA
BRANCH   8   9
HETATM    9  C8  UNL     1      22.175   2.258  50.651  1.00  0.00     0.103 A 
HETATM   10  C9  UNL     1      23.290   2.305  51.417  1.00  0.00     0.055 A 
HETATM   11  C10 UNL     1      24.529   2.649  51.258  1.00  0.00     0.019 A 
HETATM   12  C11 UNL     1      24.643   3.079  49.865  1.00  0.00     0.066 A 
HETATM   13  C16 UNL     1      25.860   2.905  51.449  1.00  0.00     0.042 A 
HETATM   14  C12 UNL     1      23.596   3.098  48.928  1.00  0.00     0.071 A 
HETATM   15  N1  UNL     1      25.782   3.512  49.320  1.00  0.00    -0.283 NA
HETATM   16  C13 UNL     1      22.326   2.674  49.340  1.00  0.00     0.103 A 
HETATM   17  O2  UNL     1      21.284   2.641  48.607  1.00  0.00    -0.353 OA
HETATM   18  C14 UNL     1      20.325   2.667  47.741  1.00  0.00     0.210 C 
HETATM   19  C15 UNL     1      26.766   3.442  50.408  1.00  0.00     0.207 A 
BRANCH  13  20
HETATM   20  N2  UNL     1      26.124   2.513  52.823  1.00  0.00    -0.357 N 
HETATM   21  H19 UNL     1      25.735   2.737  53.746  1.00  0.00     0.166 HD
BRANCH  20  22
HETATM   22  C17 UNL     1      27.167   1.594  53.100  1.00  0.00     0.034 A 
HETATM   23  C18 UNL     1      28.418   1.935  53.640  1.00  0.00     0.032 A 
HETATM   24  C19 UNL     1      29.420   1.015  53.880  1.00  0.00     0.046 A 
HETATM   25  C20 UNL     1      29.213  -0.314  53.583  1.00  0.00     0.138 A 
HETATM   26  F1  UNL     1      30.191  -1.217  53.804  1.00  0.00    -0.204 F 
HETATM   27  C21 UNL     1      27.995  -0.742  53.043  1.00  0.00     0.074 A 
HETATM   28 CL1  UNL     1      27.685  -2.421  52.642  1.00  0.00    -0.081 Cl
HETATM   29  C22 UNL     1      27.087   0.229  52.849  1.00  0.00     0.056 A 
ENDBRANCH  20  22
ENDBRANCH  13  20
ENDBRANCH   8   9
ENDBRANCH   7   8
ENDBRANCH   6   7
ENDBRANCH   5   6
ENDBRANCH   4   5
ENDBRANCH   3   4
TORSDOF 8
ENDMDL
MODEL 2
REMARK VINA RESULT:      -7.7      3.964      6.453
REMARK  8 active torsions:
REMARK  status: ('A' for Active; 'I' for Inactive)
REMARK    1  A    between atoms: C3_3  and  C4_4 
REMARK    2  A    between atoms: C4_4  and  C5_5 
REMARK    3  A    between atoms: C5_5  and  C6_6 
REMARK    4  A    between atoms: C6_6  and  C7_7 
REMARK    5  A    between atoms: C7_7  and  O1_8 
REMARK    6  A    between atoms: O1_8  and  C8_9 
REMARK    7  A    between atoms: C16_19  and  N2_20 
REMARK    8  A    between atoms: N2_20  and  C17_21 
ROOT
HETATM    1  C1  UNL     1      18.183  -0.788  52.899  1.00  0.00     0.012 C 
HETATM    2  C2  UNL     1      19.393  -0.668  53.053  1.00  0.00    -0.117 C 
HETATM    3  C3  UNL     1      20.831  -0.537  53.259  1.00  0.00     0.093 C 
ENDROOT
BRANCH   3   4
HETATM    4  C4  UNL     1      21.209  -1.377  54.467  1.00  0.00     0.012 C 
BRANCH   4   5
HETATM    5  C5  UNL     1      22.362  -0.671  55.126  1.00  0.00     0.003 C 
BRANCH   5   6
HETATM    6  C6  UNL     1      23.495  -1.679  55.302  1.00  0.00     0.027 C 
BRANCH   6   7
HETATM    7  C7  UNL     1      24.763  -0.904  55.482  1.00  0.00     0.176 C 
BRANCH   7   8
HETATM    8  O1  UNL     1      25.687  -1.130  54.447  1.00  0.00    -0.348 OA
BRANCH   8   9
HETATM    9  C8  UNL     1      25.990  -0.170  53.519  1.00  0.00     0.103 A 
HETATM   10  C9  UNL     1      25.085   0.771  53.161  1.00  0.00     0.055 A 
HETATM   11  C10 UNL     1      25.045   1.780  52.348  1.00  0.00     0.019 A 
HETATM   12  C11 UNL     1      26.359   1.821  51.708  1.00  0.00     0.066 A 
HETATM   13  C16 UNL     1      24.658   2.880  51.632  1.00  0.00     0.042 A 
HETATM   14  C12 UNL     1      27.417   0.929  51.955  1.00  0.00     0.071 A 
HETATM   15  N1  UNL     1      26.705   2.732  50.795  1.00  0.00    -0.283 NA
HETATM   16  C13 UNL     1      27.219  -0.095  52.890  1.00  0.00     0.103 A 
HETATM   17  O2  UNL     1      28.081  -0.978  53.212  1.00  0.00    -0.353 OA
HETATM   18  C14 UNL     1      29.056  -1.797  53.430  1.00  0.00     0.210 C 
HETATM   19  C15 UNL     1      25.512   3.575  50.641  1.00  0.00     0.207 A 
BRANCH  13  20
HETATM   20  N2  UNL     1      23.310   3.170  52.089  1.00  0.00    -0.357 N 
HETATM   21  H19 UNL     1      22.884   3.749  52.822  1.00  0.00     0.166 HD
BRANCH  20  22
HETATM   22  C17 UNL     1      22.207   2.554  51.447  1.00  0.00     0.034 A 
HETATM   23  C18 UNL     1      22.303   1.561  50.459  1.00  0.00     0.032 A 
HETATM   24  C19 UNL     1      21.206   0.995  49.839  1.00  0.00     0.046 A 
HETATM   25  C20 UNL     1      19.938   1.405  50.185  1.00  0.00     0.138 A 
HETATM   26  F1  UNL     1      18.862   0.865  49.577  1.00  0.00    -0.204 F 
HETATM   27  C21 UNL     1      19.749   2.389  51.162  1.00  0.00     0.074 A 
HETATM   28 CL1  UNL     1      18.157   2.951  51.635  1.00  0.00    -0.081 Cl
HETATM   29  C22 UNL     1      20.879   2.874  51.704  1.00  0.00     0.056 A 
ENDBRANCH  20  22
ENDBRANCH  13  20
ENDBRANCH   8   9
ENDBRANCH   7   8
ENDBRANCH   6   7
ENDBRANCH   5   6
ENDBRANCH   4   5
ENDBRANCH   3   4
TORSDOF 8
ENDMDL
MODEL 3
REMARK VINA RESULT:      -7.5      4.287      6.650
REMARK  8 active torsions:
REMARK  status: ('A' for Active; 'I' for Inactive)
REMARK    1  A    between atoms: C3_3  and  C4_4 
REMARK    2  A    between atoms: C4_4  and  C5_5 
REMARK    3  A    between atoms: C5_5  and  C6_6 
REMARK    4  A    between atoms: C6_6  and  C7_7 
REMARK    5  A    between atoms: C7_7  and  O1_8 
REMARK    6  A    between atoms: O1_8  and  C8_9 
REMARK    7  A    between atoms: C16_19  and  N2_20 
REMARK    8  A    between atoms: N2_20  and  C17_21 
ROOT
HETATM    1  C1  UNL     1      18.786   0.089  51.992  1.00  0.00     0.012 C 
HETATM    2  C2  UNL     1      19.930  -0.090  52.396  1.00  0.00    -0.117 C 
HETATM    3  C3  UNL     1      21.281  -0.314  52.897  1.00  0.00     0.093 C 
ENDROOT
BRANCH   3   4
HETATM    4  C4  UNL     1      21.186  -1.247  54.093  1.00  0.00     0.012 C 
BRANCH   4   5
HETATM    5  C5  UNL     1      22.149  -0.714  55.119  1.00  0.00     0.003 C 
BRANCH   5   6
HETATM    6  C6  UNL     1      23.210  -1.782  55.372  1.00  0.00     0.027 C 
BRANCH   6   7
HETATM    7  C7  UNL     1      24.502  -1.077  55.643  1.00  0.00     0.176 C 
BRANCH   7   8
HETATM    8  O1  UNL     1      25.482  -1.353  54.674  1.00  0.00    -0.348 OA
BRANCH   8   9
HETATM    9  C8  UNL     1      25.823  -0.446  53.705  1.00  0.00     0.103 A 
HETATM   10  C9  UNL     1      25.111   0.690  53.526  1.00  0.00     0.055 A 
HETATM   11  C10 UNL     1      25.158   1.717  52.736  1.00  0.00     0.019 A 
HETATM   12  C11 UNL     1      26.306   1.487  51.859  1.00  0.00     0.066 A 
HETATM   13  C16 UNL     1      24.912   2.907  52.106  1.00  0.00     0.042 A 
HETATM   14  C12 UNL     1      27.156   0.368  51.902  1.00  0.00     0.071 A 
HETATM   15  N1  UNL     1      26.680   2.336  50.898  1.00  0.00    -0.283 NA
HETATM   16  C13 UNL     1      26.900  -0.625  52.856  1.00  0.00     0.103 A 
HETATM   17  O2  UNL     1      27.578  -1.694  53.010  1.00  0.00    -0.353 OA
HETATM   18  C14 UNL     1      28.360  -2.722  53.039  1.00  0.00     0.210 C 
HETATM   19  C15 UNL     1      25.707   3.434  50.972  1.00  0.00     0.207 A 
BRANCH  13  20
HETATM   20  N2  UNL     1      23.774   3.475  52.809  1.00  0.00    -0.357 N 
HETATM   21  H19 UNL     1      23.520   3.650  53.788  1.00  0.00     0.166 HD
BRANCH  20  22
HETATM   22  C17 UNL     1      22.658   3.942  52.071  1.00  0.00     0.034 A 
HETATM   23  C18 UNL     1      21.609   3.134  51.602  1.00  0.00     0.032 A 
HETATM   24  C19 UNL     1      20.544   3.620  50.868  1.00  0.00     0.046 A 
HETATM   25  C20 UNL     1      20.479   4.960  50.563  1.00  0.00     0.138 A 
HETATM   26  F1  UNL     1      19.449   5.441  49.837  1.00  0.00    -0.204 F 
HETATM   27  C21 UNL     1      21.482   5.838  50.991  1.00  0.00     0.074 A 
HETATM   28 CL1  UNL     1      21.450   7.552  50.623  1.00  0.00    -0.081 Cl
HETATM   29  C22 UNL     1      22.472   5.267  51.698  1.00  0.00     0.056 A 
ENDBRANCH  20  22
ENDBRANCH  13  20
ENDBRANCH   8   9
ENDBRANCH   7   8
ENDBRANCH   6   7
ENDBRANCH   5   6
ENDBRANCH   4   5
ENDBRANCH   3   4
TORSDOF 8
ENDMDL
MODEL 4
REMARK VINA RESULT:      -7.3      3.632      6.361
REMARK  8 active torsions:
REMARK  status: ('A' for Active; 'I' for Inactive)
REMARK    1  A    between atoms: C3_3  and  C4_4 
REMARK    2  A    between atoms: C4_4  and  C5_5 
REMARK    3  A    between atoms: C5_5  and  C6_6 
REMARK    4  A    between atoms: C6_6  and  C7_7 
REMARK    5  A    between atoms: C7_7  and  O1_8 
REMARK    6  A    between atoms: O1_8  and  C8_9 
REMARK    7  A    between atoms: C16_19  and  N2_20 
REMARK    8  A    between atoms: N2_20  and  C17_21 
ROOT
HETATM    1  C1  UNL     1      29.841  -1.294  53.396  1.00  0.00     0.012 C 
HETATM    2  C2  UNL     1      29.173  -0.495  54.041  1.00  0.00    -0.117 C 
HETATM    3  C3  UNL     1      28.357   0.450  54.796  1.00  0.00     0.093 C 
ENDROOT
BRANCH   3   4
HETATM    4  C4  UNL     1      26.897   0.118  54.535  1.00  0.00     0.012 C 
BRANCH   4   5
HETATM    5  C5  UNL     1      26.145   1.417  54.647  1.00  0.00     0.003 C 
BRANCH   5   6
HETATM    6  C6  UNL     1      25.854   1.919  53.235  1.00  0.00     0.027 C 
BRANCH   6   7
HETATM    7  C7  UNL     1      25.822   0.726  52.332  1.00  0.00     0.176 C 
BRANCH   7   8
HETATM    8  O1  UNL     1      24.545   0.141  52.254  1.00  0.00    -0.348 OA
BRANCH   8   9
HETATM    9  C8  UNL     1      23.398   0.885  52.328  1.00  0.00     0.103 A 
HETATM   10  C9  UNL     1      23.171   1.911  51.476  1.00  0.00     0.055 A 
HETATM   11  C10 UNL     1      22.231   2.783  51.279  1.00  0.00     0.019 A 
HETATM   12  C11 UNL     1      21.209   2.494  52.285  1.00  0.00     0.066 A 
HETATM   13  C16 UNL     1      21.467   3.809  50.793  1.00  0.00     0.042 A 
HETATM   14  C12 UNL     1      21.275   1.471  53.247  1.00  0.00     0.071 A 
HETATM   15  N1  UNL     1      20.076   3.189  52.402  1.00  0.00    -0.283 NA
HETATM   16  C13 UNL     1      22.407   0.646  53.264  1.00  0.00     0.103 A 
HETATM   17  O2  UNL     1      22.609  -0.315  54.077  1.00  0.00    -0.353 OA
HETATM   18  C14 UNL     1      22.665  -1.249  54.968  1.00  0.00     0.210 C 
HETATM   19  C15 UNL     1      20.155   4.211  51.350  1.00  0.00     0.207 A 
BRANCH  13  20
HETATM   20  N2  UNL     1      22.217   4.332  49.663  1.00  0.00    -0.357 N 
HETATM   21  H19 UNL     1      22.195   4.220  48.643  1.00  0.00     0.166 HD
BRANCH  20  22
HETATM   22  C17 UNL     1      23.284   5.236  49.891  1.00  0.00     0.034 A 
HETATM   23  C18 UNL     1      23.200   6.397  50.676  1.00  0.00     0.032 A 
HETATM   24  C19 UNL     1      24.256   7.268  50.863  1.00  0.00     0.046 A 
HETATM   25  C20 UNL     1      25.467   7.013  50.260  1.00  0.00     0.138 A 
HETATM   26  F1  UNL     1      26.501   7.863  50.427  1.00  0.00    -0.204 F 
HETATM   27  C21 UNL     1      25.640   5.877  49.460  1.00  0.00     0.074 A 
HETATM   28 CL1  UNL     1      27.159   5.509  48.665  1.00  0.00    -0.081 Cl
HETATM   29  C22 UNL     1      24.553   5.095  49.344  1.00  0.00     0.056 A 
ENDBRANCH  20  22
ENDBRANCH  13  20
ENDBRANCH   8   9
ENDBRANCH   7   8
ENDBRANCH   6   7
ENDBRANCH   5   6
ENDBRANCH   4   5
ENDBRANCH   3   4
TORSDOF 8
ENDMDL
MODEL 5
REMARK VINA RESULT:      -7.1      3.373      5.647
REMARK  8 active torsions:
REMARK  status: ('A' for Active; 'I' for Inactive)
REMARK    1  A    between atoms: C3_3  and  C4_4 
REMARK    2  A    between atoms: C4_4  and  C5_5 
REMARK    3  A    between atoms: C5_5  and  C6_6 
REMARK    4  A    between atoms: C6_6  and  C7_7 
REMARK    5  A    between atoms: C7_7  and  O1_8 
REMARK    6  A    between atoms: O1_8  and  C8_9 
REMARK    7  A    between atoms: C16_19  and  N2_20 
REMARK    8  A    between atoms: N2_20  and  C17_21 
ROOT
HETATM    1  C1  UNL     1      27.035  -0.066  52.243  1.00  0.00     0.012 C 
HETATM    2  C2  UNL     1      26.549  -0.040  53.368  1.00  0.00    -0.117 C 
HETATM    3  C3  UNL     1      25.949  -0.018  54.698  1.00  0.00     0.093 C 
ENDROOT
BRANCH   3   4
HETATM    4  C4  UNL     1      24.661  -0.823  54.642  1.00  0.00     0.012 C 
BRANCH   4   5
HETATM    5  C5  UNL     1      23.878  -0.282  53.476  1.00  0.00     0.003 C 
BRANCH   5   6
HETATM    6  C6  UNL     1      22.624  -1.136  53.312  1.00  0.00     0.027 C 
BRANCH   6   7
HETATM    7  C7  UNL     1      21.963  -1.228  54.651  1.00  0.00     0.176 C 
BRANCH   7   8
HETATM    8  O1  UNL     1      20.824  -0.409  54.750  1.00  0.00    -0.348 OA
BRANCH   8   9
HETATM    9  C8  UNL     1      20.297   0.239  53.665  1.00  0.00     0.103 A 
HETATM   10  C9  UNL     1      20.823   1.403  53.219  1.00  0.00     0.055 A 
HETATM   11  C10 UNL     1      20.578   2.243  52.262  1.00  0.00     0.019 A 
HETATM   12  C11 UNL     1      19.425   1.699  51.546  1.00  0.00     0.066 A 
HETATM   13  C16 UNL     1      20.619   3.303  51.397  1.00  0.00     0.042 A 
HETATM   14  C12 UNL     1      18.753   0.506  51.866  1.00  0.00     0.071 A 
HETATM   15  N1  UNL     1      18.871   2.291  50.486  1.00  0.00    -0.283 NA
HETATM   16  C13 UNL     1      19.208  -0.241  52.960  1.00  0.00     0.103 A 
HETATM   17  O2  UNL     1      18.698  -1.335  53.371  1.00  0.00    -0.353 OA
HETATM   18  C14 UNL     1      18.072  -2.427  53.662  1.00  0.00     0.210 C 
HETATM   19  C15 UNL     1      19.666   3.509  50.281  1.00  0.00     0.207 A 
BRANCH  13  20
HETATM   20  N2  UNL     1      21.768   4.086  51.818  1.00  0.00    -0.357 N 
HETATM   21  H19 UNL     1      21.954   4.811  52.520  1.00  0.00     0.166 HD
BRANCH  20  22
HETATM   22  C17 UNL     1      23.015   3.902  51.168  1.00  0.00     0.034 A 
HETATM   23  C18 UNL     1      23.838   2.774  51.314  1.00  0.00     0.032 A 
HETATM   24  C19 UNL     1      25.058   2.636  50.680  1.00  0.00     0.046 A 
HETATM   25  C20 UNL     1      25.518   3.639  49.857  1.00  0.00     0.138 A 
HETATM   26  F1  UNL     1      26.713   3.516  49.242  1.00  0.00    -0.204 F 
HETATM   27  C21 UNL     1      24.761   4.798  49.654  1.00  0.00     0.074 A 
HETATM   28 CL1  UNL     1      25.305   6.107  48.622  1.00  0.00    -0.081 Cl
HETATM   29  C22 UNL     1      23.591   4.834  50.314  1.00  0.00     0.056 A 
ENDBRANCH  20  22
ENDBRANCH  13  20
ENDBRANCH   8   9
ENDBRANCH   7   8
ENDBRANCH   6   7
ENDBRANCH   5   6
ENDBRANCH   4   5
ENDBRANCH   3   4
TORSDOF 8
ENDMDL
MODEL 6
REMARK VINA RESULT:      -6.9      4.149      7.809
REMARK  8 active torsions:
REMARK  status: ('A' for Active; 'I' for Inactive)
REMARK    1  A    between atoms: C3_3  and  C4_4 
REMARK    2  A    between atoms: C4_4  and  C5_5 
REMARK    3  A    between atoms: C5_5  and  C6_6 
REMARK    4  A    between atoms: C6_6  and  C7_7 
REMARK    5  A    between atoms: C7_7  and  O1_8 
REMARK    6  A    between atoms: O1_8  and  C8_9 
REMARK    7  A    between atoms: C16_19  and  N2_20 
REMARK    8  A    between atoms: N2_20  and  C17_21 
ROOT
HETATM    1  C1  UNL     1      24.030   6.861  51.259  1.00  0.00     0.012 C 
HETATM    2  C2  UNL     1      25.016   7.148  50.590  1.00  0.00    -0.117 C 
HETATM    3  C3  UNL     1      26.187   7.466  49.781  1.00  0.00     0.093 C 
ENDROOT
BRANCH   3   4
HETATM    4  C4  UNL     1      26.222   6.499  48.609  1.00  0.00     0.012 C 
BRANCH   4   5
HETATM    5  C5  UNL     1      25.854   5.151  49.167  1.00  0.00     0.003 C 
BRANCH   5   6
HETATM    6  C6  UNL     1      27.116   4.292  49.201  1.00  0.00     0.027 C 
BRANCH   6   7
HETATM    7  C7  UNL     1      26.707   2.906  49.588  1.00  0.00     0.176 C 
BRANCH   7   8
HETATM    8  O1  UNL     1      26.749   2.698  50.977  1.00  0.00    -0.348 OA
BRANCH   8   9
HETATM    9  C8  UNL     1      25.719   2.102  51.656  1.00  0.00     0.103 A 
HETATM   10  C9  UNL     1      24.442   2.523  51.503  1.00  0.00     0.055 A 
HETATM   11  C10 UNL     1      23.279   2.196  51.974  1.00  0.00     0.019 A 
HETATM   12  C11 UNL     1      23.524   1.084  52.892  1.00  0.00     0.066 A 
HETATM   13  C16 UNL     1      21.939   2.126  52.243  1.00  0.00     0.042 A 
HETATM   14  C12 UNL     1      24.780   0.518  53.173  1.00  0.00     0.071 A 
HETATM   15  N1  UNL     1      22.558   0.471  53.579  1.00  0.00    -0.283 NA
HETATM   16  C13 UNL     1      25.907   1.049  52.532  1.00  0.00     0.103 A 
HETATM   17  O2  UNL     1      27.106   0.645  52.691  1.00  0.00    -0.353 OA
HETATM   18  C14 UNL     1      28.258   0.123  52.959  1.00  0.00     0.210 C 
HETATM   19  C15 UNL     1      21.325   1.167  53.191  1.00  0.00     0.207 A 
BRANCH  13  20
HETATM   20  N2  UNL     1      21.333   3.140  51.397  1.00  0.00    -0.357 N 
HETATM   21  H19 UNL     1      20.731   3.959  51.536  1.00  0.00     0.166 HD
BRANCH  20  22
HETATM   22  C17 UNL     1      21.546   3.099  49.996  1.00  0.00     0.034 A 
HETATM   23  C18 UNL     1      21.382   1.961  49.191  1.00  0.00     0.032 A 
HETATM   24  C19 UNL     1      21.616   1.951  47.829  1.00  0.00     0.046 A 
HETATM   25  C20 UNL     1      22.033   3.102  47.199  1.00  0.00     0.138 A 
HETATM   26  F1  UNL     1      22.274   3.098  45.872  1.00  0.00    -0.204 F 
HETATM   27  C21 UNL     1      22.221   4.284  47.925  1.00  0.00     0.074 A 
HETATM   28 CL1  UNL     1      22.757   5.773  47.172  1.00  0.00    -0.081 Cl
HETATM   29  C22 UNL     1      21.965   4.188  49.241  1.00  0.00     0.056 A 
ENDBRANCH  20  22
ENDBRANCH  13  20
ENDBRANCH   8   9
ENDBRANCH   7   8
ENDBRANCH   6   7
ENDBRANCH   5   6
ENDBRANCH   4   5
ENDBRANCH   3   4
TORSDOF 8
ENDMDL
MODEL 7
REMARK VINA RESULT:      -6.8      4.040      6.142
REMARK  8 active torsions:
REMARK  status: ('A' for Active; 'I' for Inactive)
REMARK    1  A    between atoms: C3_3  and  C4_4 
REMARK    2  A    between atoms: C4_4  and  C5_5 
REMARK    3  A    between atoms: C5_5  and  C6_6 
REMARK    4  A    between atoms: C6_6  and  C7_7 
REMARK    5  A    between atoms: C7_7  and  O1_8 
REMARK    6  A    between atoms: O1_8  and  C8_9 
REMARK    7  A    between atoms: C16_19  and  N2_20 
REMARK    8  A    between atoms: N2_20  and  C17_21 
ROOT
HETATM    1  C1  UNL     1      21.762   3.936  52.479  1.00  0.00     0.012 C 
HETATM    2  C2  UNL     1      22.902   3.494  52.383  1.00  0.00    -0.117 C 
HETATM    3  C3  UNL     1      24.255   2.957  52.292  1.00  0.00     0.093 C 
ENDROOT
BRANCH   3   4
HETATM    4  C4  UNL     1      24.402   1.880  53.354  1.00  0.00     0.012 C 
BRANCH   4   5
HETATM    5  C5  UNL     1      23.890   0.608  52.734  1.00  0.00     0.003 C 
BRANCH   5   6
HETATM    6  C6  UNL     1      22.984  -0.083  53.751  1.00  0.00     0.027 C 
BRANCH   6   7
HETATM    7  C7  UNL     1      21.577   0.037  53.255  1.00  0.00     0.176 C 
BRANCH   7   8
HETATM    8  O1  UNL     1      21.449  -0.324  51.902  1.00  0.00    -0.348 OA
BRANCH   8   9
HETATM    9  C8  UNL     1      20.784   0.462  50.999  1.00  0.00     0.103 A 
HETATM   10  C9  UNL     1      21.455   1.257  50.133  1.00  0.00     0.055 A 
HETATM   11  C10 UNL     1      21.149   2.092  49.190  1.00  0.00     0.019 A 
HETATM   12  C11 UNL     1      19.688   2.100  49.129  1.00  0.00     0.066 A 
HETATM   13  C16 UNL     1      21.200   2.999  48.166  1.00  0.00     0.042 A 
HETATM   14  C12 UNL     1      18.832   1.341  49.946  1.00  0.00     0.071 A 
HETATM   15  N1  UNL     1      18.992   2.849  48.270  1.00  0.00    -0.283 NA
HETATM   16  C13 UNL     1      19.405   0.499  50.908  1.00  0.00     0.103 A 
HETATM   17  O2  UNL     1      18.758  -0.241  51.720  1.00  0.00    -0.353 OA
HETATM   18  C14 UNL     1      17.965  -0.932  52.471  1.00  0.00     0.210 C 
HETATM   19  C15 UNL     1      20.009   3.578  47.502  1.00  0.00     0.207 A 
BRANCH  13  20
HETATM   20  N2  UNL     1      22.617   3.199  47.912  1.00  0.00    -0.357 N 
HETATM   21  H19 UNL     1      23.323   2.793  47.287  1.00  0.00     0.166 HD
BRANCH  20  22
HETATM   22  C17 UNL     1      23.329   4.173  48.654  1.00  0.00     0.034 A 
HETATM   23  C18 UNL     1      24.697   4.107  48.965  1.00  0.00     0.032 A 
HETATM   24  C19 UNL     1      25.357   5.066  49.708  1.00  0.00     0.046 A 
HETATM   25  C20 UNL     1      24.665   6.156  50.185  1.00  0.00     0.138 A 
HETATM   26  F1  UNL     1      25.299   7.093  50.921  1.00  0.00    -0.204 F 
HETATM   27  C21 UNL     1      23.298   6.304  49.922  1.00  0.00     0.074 A 
HETATM   28 CL1  UNL     1      22.370   7.670  50.511  1.00  0.00    -0.081 Cl
HETATM   29  C22 UNL     1      22.752   5.318  49.190  1.00  0.00     0.056 A 
ENDBRANCH  20  22
ENDBRANCH  13  20
ENDBRANCH   8   9
ENDBRANCH   7   8
ENDBRANCH   6   7
ENDBRANCH   5   6
ENDBRANCH   4   5
ENDBRANCH   3   4
TORSDOF 8
ENDMDL
MODEL 8
REMARK VINA RESULT:      -6.7      4.217      5.800
REMARK  8 active torsions:
REMARK  status: ('A' for Active; 'I' for Inactive)
REMARK    1  A    between atoms: C3_3  and  C4_4 
REMARK    2  A    between atoms: C4_4  and  C5_5 
REMARK    3  A    between atoms: C5_5  and  C6_6 
REMARK    4  A    between atoms: C6_6  and  C7_7 
REMARK    5  A    between atoms: C7_7  and  O1_8 
REMARK    6  A    between atoms: O1_8  and  C8_9 
REMARK    7  A    between atoms: C16_19  and  N2_20 
REMARK    8  A    between atoms: N2_20  and  C17_21 
ROOT
HETATM    1  C1  UNL     1      28.536   0.299  53.269  1.00  0.00     0.012 C 
HETATM    2  C2  UNL     1      27.472  -0.252  53.011  1.00  0.00    -0.117 C 
HETATM    3  C3  UNL     1      26.193  -0.890  52.717  1.00  0.00     0.093 C 
ENDROOT
BRANCH   3   4
HETATM    4  C4  UNL     1      25.088   0.081  53.101  1.00  0.00     0.012 C 
BRANCH   4   5
HETATM    5  C5  UNL     1      24.087  -0.715  53.892  1.00  0.00     0.003 C 
BRANCH   5   6
HETATM    6  C6  UNL     1      22.691  -0.345  53.397  1.00  0.00     0.027 C 
BRANCH   6   7
HETATM    7  C7  UNL     1      22.675   1.132  53.159  1.00  0.00     0.176 C 
BRANCH   7   8
HETATM    8  O1  UNL     1      22.318   1.463  51.840  1.00  0.00    -0.348 OA
BRANCH   8   9
HETATM    9  C8  UNL     1      21.957   2.735  51.480  1.00  0.00     0.103 A 
HETATM   10  C9  UNL     1      22.850   3.751  51.506  1.00  0.00     0.055 A 
HETATM   11  C10 UNL     1      22.840   5.020  51.240  1.00  0.00     0.019 A 
HETATM   12  C11 UNL     1      21.474   5.324  50.817  1.00  0.00     0.066 A 
HETATM   13  C16 UNL     1      23.193   6.330  51.054  1.00  0.00     0.042 A 
HETATM   14  C12 UNL     1      20.420   4.398  50.730  1.00  0.00     0.071 A 
HETATM   15  N1  UNL     1      21.069   6.545  50.460  1.00  0.00    -0.283 NA
HETATM   16  C13 UNL     1      20.677   3.065  51.074  1.00  0.00     0.103 A 
HETATM   17  O2  UNL     1      19.823   2.118  51.050  1.00  0.00    -0.353 OA
HETATM   18  C14 UNL     1      18.847   1.274  50.973  1.00  0.00     0.210 C 
HETATM   19  C15 UNL     1      22.261   7.391  50.607  1.00  0.00     0.207 A 
BRANCH  13  20
HETATM   20  N2  UNL     1      24.612   6.383  51.361  1.00  0.00    -0.357 N 
HETATM   21  H19 UNL     1      25.190   6.342  52.208  1.00  0.00     0.166 HD
BRANCH  20  22
HETATM   22  C17 UNL     1      25.549   6.536  50.308  1.00  0.00     0.034 A 
HETATM   23  C18 UNL     1      26.050   5.487  49.520  1.00  0.00     0.032 A 
HETATM   24  C19 UNL     1      26.978   5.668  48.513  1.00  0.00     0.046 A 
HETATM   25  C20 UNL     1      27.457   6.931  48.243  1.00  0.00     0.138 A 
HETATM   26  F1  UNL     1      28.371   7.115  47.268  1.00  0.00    -0.204 F 
HETATM   27  C21 UNL     1      27.010   8.034  48.979  1.00  0.00     0.074 A 
HETATM   28 CL1  UNL     1      27.593   9.661  48.680  1.00  0.00    -0.081 Cl
HETATM   29  C22 UNL     1      26.108   7.752  49.934  1.00  0.00     0.056 A 
ENDBRANCH  20  22
ENDBRANCH  13  20
ENDBRANCH   8   9
ENDBRANCH   7   8
ENDBRANCH   6   7
ENDBRANCH   5   6
ENDBRANCH   4   5
ENDBRANCH   3   4
TORSDOF 8
ENDMDL
MODEL 9
REMARK VINA RESULT:      -6.5      4.688      8.463
REMARK  8 active torsions:
REMARK  status: ('A' for Active; 'I' for Inactive)
REMARK    1  A    between atoms: C3_3  and  C4_4 
REMARK    2  A    between atoms: C4_4  and  C5_5 
REMARK    3  A    between atoms: C5_5  and  C6_6 
REMARK    4  A    between atoms: C6_6  and  C7_7 
REMARK    5  A    between atoms: C7_7  and  O1_8 
REMARK    6  A    between atoms: O1_8  and  C8_9 
REMARK    7  A    between atoms: C16_19  and  N2_20 
REMARK    8  A    between atoms: N2_20  and  C17_21 
ROOT
HETATM    1  C1  UNL     1      27.415   5.334  48.666  1.00  0.00     0.012 C 
HETATM    2  C2  UNL     1      26.335   5.909  48.580  1.00  0.00    -0.117 C 
HETATM    3  C3  UNL     1      25.040   6.573  48.488  1.00  0.00     0.093 C 
ENDROOT
BRANCH   3   4
HETATM    4  C4  UNL     1      24.060   5.807  49.361  1.00  0.00     0.012 C 
BRANCH   4   5
HETATM    5  C5  UNL     1      24.531   5.986  50.779  1.00  0.00     0.003 C 
BRANCH   5   6
HETATM    6  C6  UNL     1      23.750   5.017  51.663  1.00  0.00     0.027 C 
BRANCH   6   7
HETATM    7  C7  UNL     1      23.958   3.640  51.115  1.00  0.00     0.176 C 
BRANCH   7   8
HETATM    8  O1  UNL     1      24.687   2.815  51.989  1.00  0.00    -0.348 OA
BRANCH   8   9
HETATM    9  C8  UNL     1      24.151   1.680  52.537  1.00  0.00     0.103 A 
HETATM   10  C9  UNL     1      22.815   1.547  52.708  1.00  0.00     0.055 A 
HETATM   11  C10 UNL     1      22.010   0.646  53.176  1.00  0.00     0.019 A 
HETATM   12  C11 UNL     1      22.864  -0.464  53.598  1.00  0.00     0.066 A 
HETATM   13  C16 UNL     1      20.901  -0.053  53.571  1.00  0.00     0.042 A 
HETATM   14  C12 UNL     1      24.265  -0.501  53.497  1.00  0.00     0.071 A 
HETATM   15  N1  UNL     1      22.393  -1.589  54.140  1.00  0.00    -0.283 NA
HETATM   16  C13 UNL     1      24.922   0.609  52.949  1.00  0.00     0.103 A 
HETATM   17  O2  UNL     1      26.183   0.721  52.799  1.00  0.00    -0.353 OA
HETATM   18  C14 UNL     1      27.472   0.682  52.714  1.00  0.00     0.210 C 
HETATM   19  C15 UNL     1      20.937  -1.400  54.186  1.00  0.00     0.207 A 
BRANCH  13  20
HETATM   20  N2  UNL     1      19.777   0.801  53.226  1.00  0.00    -0.357 N 
HETATM   21  H19 UNL     1      19.429   1.721  53.516  1.00  0.00     0.166 HD
BRANCH  20  22
HETATM   22  C17 UNL     1      18.841   0.365  52.254  1.00  0.00     0.034 A 
HETATM   23  C18 UNL     1      18.828   0.773  50.911  1.00  0.00     0.032 A 
HETATM   24  C19 UNL     1      17.889   0.343  49.994  1.00  0.00     0.046 A 
HETATM   25  C20 UNL     1      16.901  -0.531  50.386  1.00  0.00     0.138 A 
HETATM   26  F1  UNL     1      15.973  -0.948  49.500  1.00  0.00    -0.204 F 
HETATM   27  C21 UNL     1      16.839  -0.991  51.707  1.00  0.00     0.074 A 
HETATM   28 CL1  UNL     1      15.598  -2.098  52.259  1.00  0.00    -0.081 Cl
HETATM   29  C22 UNL     1      17.798  -0.514  52.519  1.00  0.00     0.056 A 
ENDBRANCH  20  22
ENDBRANCH  13  20
ENDBRANCH   8   9
ENDBRANCH   7   8
ENDBRANCH   6   7
ENDBRANCH   5   6
ENDBRANCH   4   5
ENDBRANCH   3   4
TORSDOF 8
ENDMDL
