MODEL 1
REMARK VINA RESULT:      -7.0      0.000      0.000
REMARK  4 active torsions:
REMARK  status: ('A' for Active; 'I' for Inactive)
REMARK    1  A    between atoms: C2_2  and  N1_3 
REMARK       I    between atoms: N1_3  and  C3_4 
REMARK    2  A    between atoms: C3_4  and  C4_6 
REMARK    3  A    between atoms: C5_7  and  C6_8 
REMARK    4  A    between atoms: C6_8  and  N2_9 
ROOT
HETATM    1  N2  UNL     1      23.022   2.053  52.500  1.00  0.00    -0.353 N 
HETATM    2  C7  UNL     1      21.731   1.361  52.692  1.00  0.00     0.115 C 
HETATM    3  C8  UNL     1      21.309   2.268  51.741  1.00  0.00     0.055 C 
HETATM    4  C9  UNL     1      20.859   3.612  52.353  1.00  0.00     0.330 C 
HETATM    5  N3  UNL     1      22.244   4.237  52.504  1.00  0.00     0.114 N 
HETATM    6  C10 UNL     1      23.096   3.288  51.659  1.00  0.00     0.350 C 
HETATM    7  C11 UNL     1      22.379   3.205  50.392  1.00  0.00     0.186 C 
HETATM    8  C12 UNL     1      23.140   3.215  49.120  1.00  0.00     0.039 C 
HETATM    9 CL1  UNL     1      24.531   4.264  49.020  1.00  0.00    -0.087 Cl
HETATM   10  C13 UNL     1      22.801   2.458  48.060  1.00  0.00     0.023 C 
HETATM   11  C14 UNL     1      21.671   1.537  48.079  1.00  0.00     0.019 C 
HETATM   12  C15 UNL     1      20.952   1.386  49.200  1.00  0.00     0.092 C 
HETATM   13  N4  UNL     1      21.401   2.145  50.330  1.00  0.00    -0.344 N 
HETATM   14  H12 UNL     1      22.585   4.076  53.452  1.00  0.00     0.319 HD
ENDROOT
BRANCH   1  15
HETATM   15  C6  UNL     1      24.321   1.610  53.094  1.00  0.00     0.152 C 
BRANCH  15  16
HETATM   16  C5  UNL     1      24.323   0.202  53.461  1.00  0.00    -0.002 C 
HETATM   17  C4  UNL     1      25.124  -0.600  54.143  1.00  0.00     0.072 C 
BRANCH  17  18
HETATM   18  C3  UNL     1      26.242   0.209  54.593  1.00  0.00     0.244 C 
HETATM   19  N1  UNL     1      27.374  -0.574  54.079  1.00  0.00    -0.337 N 
HETATM   20  H4  UNL     1      27.512  -1.491  53.521  1.00  0.00     0.168 HD
HETATM   21  O1  UNL     1      27.062   1.018  55.053  1.00  0.00    -0.268 OA
BRANCH  19  22
HETATM   22  C2  UNL     1      28.817  -0.519  54.061  1.00  0.00     0.064 C 
HETATM   23  C1  UNL     1      30.021  -0.666  53.547  1.00  0.00     0.049 C 
ENDBRANCH  19  22
ENDBRANCH  17  18
ENDBRANCH  15  16
ENDBRANCH   1  15
TORSDOF 4
ENDMDL
MODEL 2
REMARK VINA RESULT:      -6.8      1.543      2.371
REMARK  4 active torsions:
REMARK  status: ('A' for Active; 'I' for Inactive)
REMARK    1  A    between atoms: C2_2  and  N1_3 
REMARK       I    between atoms: N1_3  and  C3_4 
REMARK    2  A    between atoms: C3_4  and  C4_6 
REMARK    3  A    between atoms: C5_7  and  C6_8 
REMARK    4  A    between atoms: C6_8  and  N2_9 
ROOT
HETATM    1  N2  UNL     1      24.358   2.330  51.888  1.00  0.00    -0.353 N 
HETATM    2  C7  UNL     1      24.090   3.228  53.031  1.00  0.00     0.115 C 
HETATM    3  C8  UNL     1      23.198   3.796  52.143  1.00  0.00     0.055 C 
HETATM    4  C9  UNL     1      23.847   4.872  51.248  1.00  0.00     0.330 C 
HETATM    5  N3  UNL     1      24.457   3.930  50.213  1.00  0.00     0.114 N 
HETATM    6  C10 UNL     1      23.751   2.616  50.549  1.00  0.00     0.350 C 
HETATM    7  C11 UNL     1      22.338   2.973  50.585  1.00  0.00     0.186 C 
HETATM    8  C12 UNL     1      21.336   2.055  49.993  1.00  0.00     0.039 C 
HETATM    9 CL1  UNL     1      21.769   1.235  48.515  1.00  0.00    -0.087 Cl
HETATM   10  C13 UNL     1      20.129   1.836  50.546  1.00  0.00     0.023 C 
HETATM   11  C14 UNL     1      19.709   2.462  51.793  1.00  0.00     0.019 C 
HETATM   12  C15 UNL     1      20.558   3.255  52.462  1.00  0.00     0.092 C 
HETATM   13  N4  UNL     1      21.863   3.390  51.884  1.00  0.00    -0.344 N 
HETATM   14  H12 UNL     1      25.429   3.744  50.457  1.00  0.00     0.319 HD
ENDROOT
BRANCH   1  15
HETATM   15  C6  UNL     1      25.215   1.107  51.949  1.00  0.00     0.152 C 
BRANCH  15  16
HETATM   16  C5  UNL     1      24.757   0.146  52.941  1.00  0.00    -0.002 C 
HETATM   17  C4  UNL     1      25.164  -0.252  54.136  1.00  0.00     0.072 C 
BRANCH  17  18
HETATM   18  C3  UNL     1      26.362   0.509  54.444  1.00  0.00     0.244 C 
HETATM   19  N1  UNL     1      27.404  -0.473  54.111  1.00  0.00    -0.337 N 
HETATM   20  H4  UNL     1      27.443  -1.488  53.741  1.00  0.00     0.168 HD
HETATM   21  O1  UNL     1      27.263   1.300  54.757  1.00  0.00    -0.268 OA
BRANCH  19  22
HETATM   22  C2  UNL     1      28.845  -0.572  54.111  1.00  0.00     0.064 C 
HETATM   23  C1  UNL     1      30.049  -0.607  53.577  1.00  0.00     0.049 C 
ENDBRANCH  19  22
ENDBRANCH  17  18
ENDBRANCH  15  16
ENDBRANCH   1  15
TORSDOF 4
ENDMDL
MODEL 3
REMARK VINA RESULT:      -6.8      3.400      5.300
REMARK  4 active torsions:
REMARK  status: ('A' for Active; 'I' for Inactive)
REMARK    1  A    between atoms: C2_2  and  N1_3 
REMARK       I    between atoms: N1_3  and  C3_4 
REMARK    2  A    between atoms: C3_4  and  C4_6 
REMARK    3  A    between atoms: C5_7  and  C6_8 
REMARK    4  A    between atoms: C6_8  and  N2_9 
ROOT
HETATM    1  N2  UNL     1      22.732   2.972  52.260  1.00  0.00    -0.353 N 
HETATM    2  C7  UNL     1      21.269   3.182  52.260  1.00  0.00     0.115 C 
HETATM    3  C8  UNL     1      21.257   1.825  52.006  1.00  0.00     0.055 C 
HETATM    4  C9  UNL     1      21.367   1.495  50.502  1.00  0.00     0.330 C 
HETATM    5  N3  UNL     1      22.884   1.622  50.381  1.00  0.00     0.114 N 
HETATM    6  C10 UNL     1      23.302   1.650  51.852  1.00  0.00     0.350 C 
HETATM    7  C11 UNL     1      22.631   0.493  52.432  1.00  0.00     0.186 C 
HETATM    8  C12 UNL     1      23.352  -0.357  53.409  1.00  0.00     0.039 C 
HETATM    9 CL1  UNL     1      25.046  -0.658  53.119  1.00  0.00    -0.087 Cl
HETATM   10  C13 UNL     1      22.757  -0.895  54.489  1.00  0.00     0.023 C 
HETATM   11  C14 UNL     1      21.354  -0.664  54.812  1.00  0.00     0.019 C 
HETATM   12  C15 UNL     1      20.617   0.149  54.043  1.00  0.00     0.092 C 
HETATM   13  N4  UNL     1      21.313   0.770  52.954  1.00  0.00    -0.344 N 
HETATM   14  H12 UNL     1      23.119   2.559  50.053  1.00  0.00     0.319 HD
ENDROOT
BRANCH   1  15
HETATM   15  C6  UNL     1      23.739   4.007  52.650  1.00  0.00     0.152 C 
BRANCH  15  16
HETATM   16  C5  UNL     1      23.658   5.210  51.835  1.00  0.00    -0.002 C 
HETATM   17  C4  UNL     1      24.169   5.612  50.683  1.00  0.00     0.072 C 
BRANCH  17  18
HETATM   18  C3  UNL     1      24.996   4.525  50.190  1.00  0.00     0.244 C 
HETATM   19  N1  UNL     1      26.122   5.276  49.617  1.00  0.00    -0.337 N 
HETATM   20  H4  UNL     1      26.406   6.313  49.508  1.00  0.00     0.168 HD
HETATM   21  O1  UNL     1      25.565   3.481  49.839  1.00  0.00    -0.268 OA
BRANCH  19  22
HETATM   22  C2  UNL     1      27.369   5.016  48.934  1.00  0.00     0.064 C 
HETATM   23  C1  UNL     1      28.488   5.325  48.312  1.00  0.00     0.049 C 
ENDBRANCH  19  22
ENDBRANCH  17  18
ENDBRANCH  15  16
ENDBRANCH   1  15
TORSDOF 4
ENDMDL
MODEL 4
REMARK VINA RESULT:      -6.6      2.115      2.506
REMARK  4 active torsions:
REMARK  status: ('A' for Active; 'I' for Inactive)
REMARK    1  A    between atoms: C2_2  and  N1_3 
REMARK       I    between atoms: N1_3  and  C3_4 
REMARK    2  A    between atoms: C3_4  and  C4_6 
REMARK    3  A    between atoms: C5_7  and  C6_8 
REMARK    4  A    between atoms: C6_8  and  N2_9 
ROOT
HETATM    1  N2  UNL     1      23.216   2.500  51.951  1.00  0.00    -0.353 N 
HETATM    2  C7  UNL     1      21.944   3.192  52.244  1.00  0.00     0.115 C 
HETATM    3  C8  UNL     1      22.724   4.317  52.068  1.00  0.00     0.055 C 
HETATM    4  C9  UNL     1      23.442   4.756  53.362  1.00  0.00     0.330 C 
HETATM    5  N3  UNL     1      24.617   3.785  53.278  1.00  0.00     0.114 N 
HETATM    6  C10 UNL     1      24.488   3.281  51.840  1.00  0.00     0.350 C 
HETATM    7  C11 UNL     1      24.387   4.499  51.047  1.00  0.00     0.186 C 
HETATM    8  C12 UNL     1      25.111   4.594  49.756  1.00  0.00     0.039 C 
HETATM    9 CL1  UNL     1      26.703   3.886  49.671  1.00  0.00    -0.087 Cl
HETATM   10  C13 UNL     1      24.592   5.197  48.670  1.00  0.00     0.023 C 
HETATM   11  C14 UNL     1      23.259   5.784  48.657  1.00  0.00     0.019 C 
HETATM   12  C15 UNL     1      22.479   5.695  49.743  1.00  0.00     0.092 C 
HETATM   13  N4  UNL     1      23.036   4.969  50.847  1.00  0.00    -0.344 N 
HETATM   14  H12 UNL     1      24.411   2.956  53.836  1.00  0.00     0.319 HD
ENDROOT
BRANCH   1  15
HETATM   15  C6  UNL     1      23.354   1.026  51.743  1.00  0.00     0.152 C 
BRANCH  15  16
HETATM   16  C5  UNL     1      23.636   0.306  52.976  1.00  0.00    -0.002 C 
HETATM   17  C4  UNL     1      24.704  -0.243  53.531  1.00  0.00     0.072 C 
BRANCH  17  18
HETATM   18  C3  UNL     1      25.810  -0.026  52.616  1.00  0.00     0.244 C 
HETATM   19  N1  UNL     1      26.944  -0.440  53.453  1.00  0.00    -0.337 N 
HETATM   20  H4  UNL     1      27.091  -0.813  54.457  1.00  0.00     0.168 HD
HETATM   21  O1  UNL     1      26.618   0.218  51.709  1.00  0.00    -0.268 OA
BRANCH  19  22
HETATM   22  C2  UNL     1      28.382  -0.551  53.360  1.00  0.00     0.064 C 
HETATM   23  C1  UNL     1      29.572  -1.037  53.646  1.00  0.00     0.049 C 
ENDBRANCH  19  22
ENDBRANCH  17  18
ENDBRANCH  15  16
ENDBRANCH   1  15
TORSDOF 4
ENDMDL
MODEL 5
REMARK VINA RESULT:      -6.6      9.319     11.449
REMARK  4 active torsions:
REMARK  status: ('A' for Active; 'I' for Inactive)
REMARK    1  A    between atoms: C2_2  and  N1_3 
REMARK       I    between atoms: N1_3  and  C3_4 
REMARK    2  A    between atoms: C3_4  and  C4_6 
REMARK    3  A    between atoms: C5_7  and  C6_8 
REMARK    4  A    between atoms: C6_8  and  N2_9 
ROOT
HETATM    1  N2  UNL     1      32.900   6.679  48.751  1.00  0.00    -0.353 N 
HETATM    2  C7  UNL     1      33.623   7.900  48.342  1.00  0.00     0.115 C 
HETATM    3  C8  UNL     1      34.393   6.993  47.642  1.00  0.00     0.055 C 
HETATM    4  C9  UNL     1      35.544   6.406  48.487  1.00  0.00     0.330 C 
HETATM    5  N3  UNL     1      34.733   5.336  49.214  1.00  0.00     0.114 N 
HETATM    6  C10 UNL     1      33.441   5.329  48.394  1.00  0.00     0.350 C 
HETATM    7  C11 UNL     1      33.898   5.202  47.016  1.00  0.00     0.186 C 
HETATM    8  C12 UNL     1      33.167   4.313  46.082  1.00  0.00     0.039 C 
HETATM    9 CL1  UNL     1      32.561   2.804  46.714  1.00  0.00    -0.087 Cl
HETATM   10  C13 UNL     1      32.960   4.623  44.789  1.00  0.00     0.023 C 
HETATM   11  C14 UNL     1      33.410   5.876  44.198  1.00  0.00     0.019 C 
HETATM   12  C15 UNL     1      34.018   6.795  44.962  1.00  0.00     0.092 C 
HETATM   13  N4  UNL     1      34.140   6.462  46.351  1.00  0.00    -0.344 N 
HETATM   14  H12 UNL     1      34.434   5.696  50.120  1.00  0.00     0.319 HD
ENDROOT
BRANCH   1  15
HETATM   15  C6  UNL     1      31.619   6.667  49.522  1.00  0.00     0.152 C 
BRANCH  15  16
HETATM   16  C5  UNL     1      30.600   7.526  48.937  1.00  0.00    -0.002 C 
HETATM   17  C4  UNL     1      29.437   7.343  48.335  1.00  0.00     0.072 C 
BRANCH  17  18
HETATM   18  C3  UNL     1      29.207   5.910  48.294  1.00  0.00     0.244 C 
HETATM   19  N1  UNL     1      27.826   5.839  48.791  1.00  0.00    -0.337 N 
HETATM   20  H4  UNL     1      27.071   6.536  49.128  1.00  0.00     0.168 HD
HETATM   21  O1  UNL     1      29.192   4.675  48.191  1.00  0.00    -0.268 OA
BRANCH  19  22
HETATM   22  C2  UNL     1      26.820   4.841  49.070  1.00  0.00     0.064 C 
HETATM   23  C1  UNL     1      26.355   3.692  49.518  1.00  0.00     0.049 C 
ENDBRANCH  19  22
ENDBRANCH  17  18
ENDBRANCH  15  16
ENDBRANCH   1  15
TORSDOF 4
ENDMDL
MODEL 6
REMARK VINA RESULT:      -6.5      3.770      5.615
REMARK  4 active torsions:
REMARK  status: ('A' for Active; 'I' for Inactive)
REMARK    1  A    between atoms: C2_2  and  N1_3 
REMARK       I    between atoms: N1_3  and  C3_4 
REMARK    2  A    between atoms: C3_4  and  C4_6 
REMARK    3  A    between atoms: C5_7  and  C6_8 
REMARK    4  A    between atoms: C6_8  and  N2_9 
ROOT
HETATM    1  N2  UNL     1      24.715   2.622  51.179  1.00  0.00    -0.353 N 
HETATM    2  C7  UNL     1      25.790   1.679  51.553  1.00  0.00     0.115 C 
HETATM    3  C8  UNL     1      25.038   1.562  52.705  1.00  0.00     0.055 C 
HETATM    4  C9  UNL     1      25.393   2.630  53.762  1.00  0.00     0.330 C 
HETATM    5  N3  UNL     1      24.550   3.766  53.189  1.00  0.00     0.114 N 
HETATM    6  C10 UNL     1      23.677   3.015  52.183  1.00  0.00     0.350 C 
HETATM    7  C11 UNL     1      23.125   1.907  52.952  1.00  0.00     0.186 C 
HETATM    8  C12 UNL     1      21.705   1.523  52.767  1.00  0.00     0.039 C 
HETATM    9 CL1  UNL     1      20.546   2.808  52.541  1.00  0.00    -0.087 Cl
HETATM   10  C13 UNL     1      21.287   0.244  52.767  1.00  0.00     0.023 C 
HETATM   11  C14 UNL     1      22.200  -0.882  52.920  1.00  0.00     0.019 C 
HETATM   12  C15 UNL     1      23.519  -0.664  53.021  1.00  0.00     0.092 C 
HETATM   13  N4  UNL     1      23.928   0.707  52.928  1.00  0.00    -0.344 N 
HETATM   14  H12 UNL     1      25.136   4.355  52.597  1.00  0.00     0.319 HD
ENDROOT
BRANCH   1  15
HETATM   15  C6  UNL     1      24.563   3.246  49.828  1.00  0.00     0.152 C 
BRANCH  15  16
HETATM   16  C5  UNL     1      24.697   4.694  49.857  1.00  0.00    -0.002 C 
HETATM   17  C4  UNL     1      25.652   5.564  49.570  1.00  0.00     0.072 C 
BRANCH  17  18
HETATM   18  C3  UNL     1      26.802   4.794  49.132  1.00  0.00     0.244 C 
HETATM   19  N1  UNL     1      27.757   5.871  48.837  1.00  0.00    -0.337 N 
HETATM   20  H4  UNL     1      27.767   6.952  48.877  1.00  0.00     0.168 HD
HETATM   21  O1  UNL     1      27.674   3.982  48.791  1.00  0.00    -0.268 OA
BRANCH  19  22
HETATM   22  C2  UNL     1      29.114   6.024  48.364  1.00  0.00     0.064 C 
HETATM   23  C1  UNL     1      30.084   6.537  47.635  1.00  0.00     0.049 C 
ENDBRANCH  19  22
ENDBRANCH  17  18
ENDBRANCH  15  16
ENDBRANCH   1  15
TORSDOF 4
ENDMDL
MODEL 7
REMARK VINA RESULT:      -6.5      3.502      6.388
REMARK  4 active torsions:
REMARK  status: ('A' for Active; 'I' for Inactive)
REMARK    1  A    between atoms: C2_2  and  N1_3 
REMARK       I    between atoms: N1_3  and  C3_4 
REMARK    2  A    between atoms: C3_4  and  C4_6 
REMARK    3  A    between atoms: C5_7  and  C6_8 
REMARK    4  A    between atoms: C6_8  and  N2_9 
ROOT
HETATM    1  N2  UNL     1      22.396   1.252  50.958  1.00  0.00    -0.353 N 
HETATM    2  C7  UNL     1      23.172   2.159  50.087  1.00  0.00     0.115 C 
HETATM    3  C8  UNL     1      23.893   2.362  51.246  1.00  0.00     0.055 C 
HETATM    4  C9  UNL     1      23.296   3.473  52.136  1.00  0.00     0.330 C 
HETATM    5  N3  UNL     1      22.220   2.630  52.815  1.00  0.00     0.114 N 
HETATM    6  C10 UNL     1      22.660   1.216  52.431  1.00  0.00     0.350 C 
HETATM    7  C11 UNL     1      24.071   1.174  52.795  1.00  0.00     0.186 C 
HETATM    8  C12 UNL     1      24.625  -0.042  53.438  1.00  0.00     0.039 C 
HETATM    9 CL1  UNL     1      23.621  -0.865  54.605  1.00  0.00    -0.087 Cl
HETATM   10  C13 UNL     1      25.850  -0.522  53.160  1.00  0.00     0.023 C 
HETATM   11  C14 UNL     1      26.733   0.094  52.178  1.00  0.00     0.019 C 
HETATM   12  C15 UNL     1      26.314   1.156  51.476  1.00  0.00     0.092 C 
HETATM   13  N4  UNL     1      24.970   1.581  51.741  1.00  0.00    -0.344 N 
HETATM   14  H12 UNL     1      21.337   2.744  52.317  1.00  0.00     0.319 HD
ENDROOT
BRANCH   1  15
HETATM   15  C6  UNL     1      21.325   0.324  50.481  1.00  0.00     0.152 C 
BRANCH  15  16
HETATM   16  C5  UNL     1      19.999   0.922  50.528  1.00  0.00    -0.002 C 
HETATM   17  C4  UNL     1      18.967   0.877  51.354  1.00  0.00     0.072 C 
BRANCH  17  18
HETATM   18  C3  UNL     1      19.341  -0.006  52.444  1.00  0.00     0.244 C 
HETATM   19  N1  UNL     1      18.148  -0.858  52.531  1.00  0.00    -0.337 N 
HETATM   20  H4  UNL     1      17.197  -0.941  52.021  1.00  0.00     0.168 HD
HETATM   21  O1  UNL     1      19.827  -0.658  53.380  1.00  0.00    -0.268 OA
BRANCH  19  22
HETATM   22  C2  UNL     1      17.660  -1.973  53.310  1.00  0.00     0.064 C 
HETATM   23  C1  UNL     1      17.447  -3.242  53.593  1.00  0.00     0.049 C 
ENDBRANCH  19  22
ENDBRANCH  17  18
ENDBRANCH  15  16
ENDBRANCH   1  15
TORSDOF 4
ENDMDL
MODEL 8
REMARK VINA RESULT:      -6.4      1.753      2.488
REMARK  4 active torsions:
REMARK  status: ('A' for Active; 'I' for Inactive)
REMARK    1  A    between atoms: C2_2  and  N1_3 
REMARK       I    between atoms: N1_3  and  C3_4 
REMARK    2  A    between atoms: C3_4  and  C4_6 
REMARK    3  A    between atoms: C5_7  and  C6_8 
REMARK    4  A    between atoms: C6_8  and  N2_9 
ROOT
HETATM    1  N2  UNL     1      25.260   1.815  51.670  1.00  0.00    -0.353 N 
HETATM    2  C7  UNL     1      24.333   0.772  52.155  1.00  0.00     0.115 C 
HETATM    3  C8  UNL     1      23.384   1.718  51.826  1.00  0.00     0.055 C 
HETATM    4  C9  UNL     1      23.110   2.716  52.971  1.00  0.00     0.330 C 
HETATM    5  N3  UNL     1      24.294   3.645  52.715  1.00  0.00     0.114 N 
HETATM    6  C10 UNL     1      24.747   3.179  51.330  1.00  0.00     0.350 C 
HETATM    7  C11 UNL     1      23.524   3.188  50.537  1.00  0.00     0.186 C 
HETATM    8  C12 UNL     1      23.561   3.689  49.142  1.00  0.00     0.039 C 
HETATM    9 CL1  UNL     1      24.570   5.072  48.808  1.00  0.00    -0.087 Cl
HETATM   10  C13 UNL     1      22.856   3.124  48.144  1.00  0.00     0.023 C 
HETATM   11  C14 UNL     1      22.016   1.950  48.340  1.00  0.00     0.019 C 
HETATM   12  C15 UNL     1      21.960   1.362  49.543  1.00  0.00     0.092 C 
HETATM   13  N4  UNL     1      22.794   1.942  50.555  1.00  0.00    -0.344 N 
HETATM   14  H12 UNL     1      25.071   3.377  53.318  1.00  0.00     0.319 HD
ENDROOT
BRANCH   1  15
HETATM   15  C6  UNL     1      26.731   1.623  51.477  1.00  0.00     0.152 C 
BRANCH  15  16
HETATM   16  C5  UNL     1      27.528   2.323  52.473  1.00  0.00    -0.002 C 
HETATM   17  C4  UNL     1      28.110   2.003  53.617  1.00  0.00     0.072 C 
BRANCH  17  18
HETATM   18  C3  UNL     1      27.830   0.598  53.852  1.00  0.00     0.244 C 
HETATM   19  N1  UNL     1      26.693   0.695  54.777  1.00  0.00    -0.337 N 
HETATM   20  H4  UNL     1      26.118   1.484  55.242  1.00  0.00     0.168 HD
HETATM   21  O1  UNL     1      27.739  -0.635  53.931  1.00  0.00    -0.268 OA
BRANCH  19  22
HETATM   22  C2  UNL     1      25.803  -0.181  55.504  1.00  0.00     0.064 C 
HETATM   23  C1  UNL     1      24.944  -1.168  55.655  1.00  0.00     0.049 C 
ENDBRANCH  19  22
ENDBRANCH  17  18
ENDBRANCH  15  16
ENDBRANCH   1  15
TORSDOF 4
ENDMDL
MODEL 9
REMARK VINA RESULT:      -6.4      8.425     10.299
REMARK  4 active torsions:
REMARK  status: ('A' for Active; 'I' for Inactive)
REMARK    1  A    between atoms: C2_2  and  N1_3 
REMARK       I    between atoms: N1_3  and  C3_4 
REMARK    2  A    between atoms: C3_4  and  C4_6 
REMARK    3  A    between atoms: C5_7  and  C6_8 
REMARK    4  A    between atoms: C6_8  and  N2_9 
ROOT
HETATM    1  N2  UNL     1      29.957   7.019  48.019  1.00  0.00    -0.353 N 
HETATM    2  C7  UNL     1      30.431   8.415  47.918  1.00  0.00     0.115 C 
HETATM    3  C8  UNL     1      31.669   7.809  47.981  1.00  0.00     0.055 C 
HETATM    4  C9  UNL     1      32.153   7.584  49.430  1.00  0.00     0.330 C 
HETATM    5  N3  UNL     1      31.379   6.297  49.702  1.00  0.00     0.114 N 
HETATM    6  C10 UNL     1      30.928   5.913  48.291  1.00  0.00     0.350 C 
HETATM    7  C11 UNL     1      32.152   5.971  47.501  1.00  0.00     0.186 C 
HETATM    8  C12 UNL     1      32.417   4.924  46.485  1.00  0.00     0.039 C 
HETATM    9 CL1  UNL     1      31.966   3.285  46.880  1.00  0.00    -0.087 Cl
HETATM   10  C13 UNL     1      32.981   5.189  45.293  1.00  0.00     0.023 C 
HETATM   11  C14 UNL     1      33.357   6.536  44.882  1.00  0.00     0.019 C 
HETATM   12  C15 UNL     1      33.099   7.577  45.686  1.00  0.00     0.092 C 
HETATM   13  N4  UNL     1      32.417   7.260  46.907  1.00  0.00    -0.344 N 
HETATM   14  H12 UNL     1      30.504   6.522  50.174  1.00  0.00     0.319 HD
ENDROOT
BRANCH   1  15
HETATM   15  C6  UNL     1      28.532   6.591  47.865  1.00  0.00     0.152 C 
BRANCH  15  16
HETATM   16  C5  UNL     1      28.256   5.311  48.499  1.00  0.00    -0.002 C 
HETATM   17  C4  UNL     1      27.181   4.695  48.962  1.00  0.00     0.072 C 
BRANCH  17  18
HETATM   18  C3  UNL     1      26.058   5.589  48.744  1.00  0.00     0.244 C 
HETATM   19  N1  UNL     1      25.730   5.961  50.127  1.00  0.00    -0.337 N 
HETATM   20  H4  UNL     1      26.103   5.733  51.116  1.00  0.00     0.168 HD
HETATM   21  O1  UNL     1      25.127   6.316  48.369  1.00  0.00    -0.268 OA
BRANCH  19  22
HETATM   22  C2  UNL     1      24.780   6.787  50.835  1.00  0.00     0.064 C 
HETATM   23  C1  UNL     1      23.916   7.771  50.985  1.00  0.00     0.049 C 
ENDBRANCH  19  22
ENDBRANCH  17  18
ENDBRANCH  15  16
ENDBRANCH   1  15
TORSDOF 4
ENDMDL
