MODEL 1
REMARK VINA RESULT:      -7.0      0.000      0.000
REMARK  12 active torsions:
REMARK  status: ('A' for Active; 'I' for Inactive)
REMARK    1  A    between atoms: C2_2  and  O1_3 
REMARK    2  A    between atoms: O1_3  and  C3_4 
REMARK    3  A    between atoms: C4_5  and  C5_6 
REMARK    4  A    between atoms: C4_5  and  C6_8 
REMARK    5  A    between atoms: C5_6  and  O2_7 
REMARK    6  A    between atoms: C6_8  and  N1_9 
REMARK    7  A    between atoms: C9_12  and  O3_13 
REMARK    8  A    between atoms: C11_17  and  N4_18 
REMARK    9  A    between atoms: N4_18  and  C12_19 
REMARK   10  A    between atoms: C14_21  and  O4_22 
REMARK   11  A    between atoms: C16_24  and  O5_25 
REMARK   12  A    between atoms: C18_27  and  O6_28 
ROOT
HETATM    1  N1  UNL     1      23.816  -0.032  53.206  1.00  0.00    -0.279 NA
HETATM    2  C7  UNL     1      22.630   0.063  52.865  1.00  0.00     0.128 A 
HETATM    3  C8  UNL     1      21.669  -0.547  53.821  1.00  0.00     0.112 A 
HETATM    4  C9  UNL     1      22.086  -1.127  54.926  1.00  0.00     0.165 C 
HETATM    5  N2  UNL     1      20.267  -0.537  53.594  1.00  0.00    -0.238 NA
HETATM    6  C10 UNL     1      19.816   0.019  52.523  1.00  0.00     0.236 A 
HETATM    7  N3  UNL     1      20.669   0.637  51.541  1.00  0.00    -0.222 NA
HETATM    8  C11 UNL     1      21.964   0.644  51.724  1.00  0.00     0.160 A 
ENDROOT
BRANCH   8   9
HETATM    9  N4  UNL     1      22.775   1.268  50.746  1.00  0.00    -0.339 N 
HETATM   10  H15 UNL     1      23.161   0.625  50.046  1.00  0.00     0.167 HD
BRANCH   9  11
HETATM   11  C12 UNL     1      23.037   2.663  50.725  1.00  0.00     0.039 A 
HETATM   12  C13 UNL     1      24.326   3.070  50.455  1.00  0.00     0.069 A 
HETATM   13  C14 UNL     1      24.711   4.399  50.402  1.00  0.00     0.106 A 
HETATM   14  C16 UNL     1      23.776   5.388  50.627  1.00  0.00     0.135 A 
HETATM   15  C18 UNL     1      22.473   5.022  50.899  1.00  0.00     0.106 A 
HETATM   16  C20 UNL     1      22.149   3.685  50.939  1.00  0.00     0.069 A 
BRANCH  13  17
HETATM   17  O4  UNL     1      25.982   4.855  50.137  1.00  0.00    -0.353 OA
HETATM   18  C15 UNL     1      26.828   4.424  49.115  1.00  0.00     0.210 C 
ENDBRANCH  13  17
BRANCH  14  19
HETATM   19  O5  UNL     1      24.042   6.756  50.599  1.00  0.00    -0.351 OA
HETATM   20  C17 UNL     1      23.975   7.398  49.317  1.00  0.00     0.210 C 
ENDBRANCH  14  19
BRANCH  15  21
HETATM   21  O6  UNL     1      21.503   5.988  51.131  1.00  0.00    -0.353 OA
HETATM   22  C19 UNL     1      20.493   6.195  50.160  1.00  0.00     0.210 C 
ENDBRANCH  15  21
ENDBRANCH   9  11
ENDBRANCH   8   9
BRANCH   1  23
HETATM   23  C6  UNL     1      25.048   0.373  52.657  1.00  0.00     0.188 C 
BRANCH  23  24
HETATM   24  C4  UNL     1      26.197  -0.437  53.225  1.00  0.00    -0.015 C 
HETATM   25  C3  UNL     1      26.795  -1.455  52.641  1.00  0.00     0.141 C 
BRANCH  25  26
HETATM   26  O1  UNL     1      27.783  -1.901  53.503  1.00  0.00    -0.363 OA
BRANCH  26  27
HETATM   27  C2  UNL     1      29.146  -2.006  53.148  1.00  0.00     0.170 C 
HETATM   28  C1  UNL     1      29.960  -0.797  53.567  1.00  0.00     0.034 C 
ENDBRANCH  26  27
ENDBRANCH  25  26
BRANCH  24  29
HETATM   29  C5  UNL     1      26.521   0.127  54.559  1.00  0.00     0.202 C 
BRANCH  29  30
HETATM   30  O2  UNL     1      25.954  -0.599  55.605  1.00  0.00    -0.397 OA
HETATM   31  H9  UNL     1      24.959  -0.622  55.555  1.00  0.00     0.209 HD
ENDBRANCH  29  30
ENDBRANCH  24  29
ENDBRANCH  23  24
ENDBRANCH   1  23
BRANCH   4  32
HETATM   32  O3  UNL     1      23.350  -1.294  55.416  1.00  0.00    -0.370 OA
HETATM   33  H13 UNL     1      23.735  -0.597  56.043  1.00  0.00     0.216 HD
ENDBRANCH   4  32
TORSDOF 12
ENDMDL
MODEL 2
REMARK VINA RESULT:      -7.0      2.701      6.265
REMARK  12 active torsions:
REMARK  status: ('A' for Active; 'I' for Inactive)
REMARK    1  A    between atoms: C2_2  and  O1_3 
REMARK    2  A    between atoms: O1_3  and  C3_4 
REMARK    3  A    between atoms: C4_5  and  C5_6 
REMARK    4  A    between atoms: C4_5  and  C6_8 
REMARK    5  A    between atoms: C5_6  and  O2_7 
REMARK    6  A    between atoms: C6_8  and  N1_9 
REMARK    7  A    between atoms: C9_12  and  O3_13 
REMARK    8  A    between atoms: C11_17  and  N4_18 
REMARK    9  A    between atoms: N4_18  and  C12_19 
REMARK   10  A    between atoms: C14_21  and  O4_22 
REMARK   11  A    between atoms: C16_24  and  O5_25 
REMARK   12  A    between atoms: C18_27  and  O6_28 
ROOT
HETATM    1  N1  UNL     1      26.940   2.308  51.567  1.00  0.00    -0.279 NA
HETATM    2  C7  UNL     1      26.632   1.644  52.566  1.00  0.00     0.128 A 
HETATM    3  C8  UNL     1      27.603   1.742  53.687  1.00  0.00     0.112 A 
HETATM    4  C9  UNL     1      28.685   2.484  53.586  1.00  0.00     0.165 C 
HETATM    5  N2  UNL     1      27.417   1.046  54.911  1.00  0.00    -0.238 NA
HETATM    6  C10 UNL     1      26.371   0.306  55.052  1.00  0.00     0.236 A 
HETATM    7  N3  UNL     1      25.375   0.152  54.023  1.00  0.00    -0.222 NA
HETATM    8  C11 UNL     1      25.520   0.781  52.885  1.00  0.00     0.160 A 
ENDROOT
BRANCH   8   9
HETATM    9  N4  UNL     1      24.519   0.618  51.898  1.00  0.00    -0.339 N 
HETATM   10  H15 UNL     1      24.816   0.067  51.084  1.00  0.00     0.167 HD
BRANCH   9  11
HETATM   11  C12 UNL     1      23.214   1.163  52.012  1.00  0.00     0.039 A 
HETATM   12  C13 UNL     1      23.097   2.534  52.108  1.00  0.00     0.069 A 
HETATM   13  C14 UNL     1      21.882   3.189  52.220  1.00  0.00     0.106 A 
HETATM   14  C16 UNL     1      20.713   2.458  52.239  1.00  0.00     0.135 A 
HETATM   15  C18 UNL     1      20.787   1.083  52.145  1.00  0.00     0.106 A 
HETATM   16  C20 UNL     1      22.022   0.486  52.035  1.00  0.00     0.069 A 
BRANCH  13  17
HETATM   17  O4  UNL     1      21.714   4.552  52.318  1.00  0.00    -0.353 OA
HETATM   18  C15 UNL     1      21.850   5.487  51.291  1.00  0.00     0.210 C 
ENDBRANCH  13  17
BRANCH  14  19
HETATM   19  O5  UNL     1      19.435   3.003  52.347  1.00  0.00    -0.351 OA
HETATM   20  C17 UNL     1      18.793   3.383  51.120  1.00  0.00     0.210 C 
ENDBRANCH  14  19
BRANCH  15  21
HETATM   21  O6  UNL     1      19.632   0.312  52.160  1.00  0.00    -0.353 OA
HETATM   22  C19 UNL     1      19.387  -0.539  53.265  1.00  0.00     0.210 C 
ENDBRANCH  15  21
ENDBRANCH   9  11
ENDBRANCH   8   9
BRANCH   1  23
HETATM   23  C6  UNL     1      26.365   2.531  50.301  1.00  0.00     0.188 C 
BRANCH  23  24
HETATM   24  C4  UNL     1      26.253   4.014  50.002  1.00  0.00    -0.015 C 
HETATM   25  C3  UNL     1      25.467   4.874  50.616  1.00  0.00     0.141 C 
BRANCH  25  26
HETATM   26  O1  UNL     1      25.676   6.112  50.031  1.00  0.00    -0.363 OA
BRANCH  26  27
HETATM   27  C2  UNL     1      25.107   7.313  50.511  1.00  0.00     0.170 C 
HETATM   28  C1  UNL     1      25.817   8.549  49.994  1.00  0.00     0.034 C 
ENDBRANCH  26  27
ENDBRANCH  25  26
BRANCH  24  29
HETATM   29  C5  UNL     1      27.189   4.315  48.890  1.00  0.00     0.202 C 
BRANCH  29  30
HETATM   30  O2  UNL     1      28.309   5.032  49.307  1.00  0.00    -0.397 OA
HETATM   31  H9  UNL     1      29.101   4.447  49.456  1.00  0.00     0.209 HD
ENDBRANCH  29  30
ENDBRANCH  24  29
ENDBRANCH  23  24
ENDBRANCH   1  23
BRANCH   4  32
HETATM   32  O3  UNL     1      29.134   3.259  52.556  1.00  0.00    -0.370 OA
HETATM   33  H13 UNL     1      29.024   4.265  52.606  1.00  0.00     0.216 HD
ENDBRANCH   4  32
TORSDOF 12
ENDMDL
MODEL 3
REMARK VINA RESULT:      -6.9      1.622      2.958
REMARK  12 active torsions:
REMARK  status: ('A' for Active; 'I' for Inactive)
REMARK    1  A    between atoms: C2_2  and  O1_3 
REMARK    2  A    between atoms: O1_3  and  C3_4 
REMARK    3  A    between atoms: C4_5  and  C5_6 
REMARK    4  A    between atoms: C4_5  and  C6_8 
REMARK    5  A    between atoms: C5_6  and  O2_7 
REMARK    6  A    between atoms: C6_8  and  N1_9 
REMARK    7  A    between atoms: C9_12  and  O3_13 
REMARK    8  A    between atoms: C11_17  and  N4_18 
REMARK    9  A    between atoms: N4_18  and  C12_19 
REMARK   10  A    between atoms: C14_21  and  O4_22 
REMARK   11  A    between atoms: C16_24  and  O5_25 
REMARK   12  A    between atoms: C18_27  and  O6_28 
ROOT
HETATM    1  N1  UNL     1      24.667   0.084  53.640  1.00  0.00    -0.279 NA
HETATM    2  C7  UNL     1      23.465  -0.215  53.631  1.00  0.00     0.128 A 
HETATM    3  C8  UNL     1      23.033  -1.038  54.791  1.00  0.00     0.112 A 
HETATM    4  C9  UNL     1      23.887  -1.395  55.726  1.00  0.00     0.165 C 
HETATM    5  N2  UNL     1      21.692  -1.479  54.947  1.00  0.00    -0.238 NA
HETATM    6  C10 UNL     1      20.824  -1.152  54.053  1.00  0.00     0.236 A 
HETATM    7  N3  UNL     1      21.148  -0.357  52.897  1.00  0.00    -0.222 NA
HETATM    8  C11 UNL     1      22.375   0.063  52.727  1.00  0.00     0.160 A 
ENDROOT
BRANCH   8   9
HETATM    9  N4  UNL     1      22.661   0.852  51.588  1.00  0.00    -0.339 N 
HETATM   10  H15 UNL     1      23.084   0.332  50.811  1.00  0.00     0.167 HD
BRANCH   9  11
HETATM   11  C12 UNL     1      22.390   2.243  51.514  1.00  0.00     0.039 A 
HETATM   12  C13 UNL     1      21.072   2.637  51.411  1.00  0.00     0.069 A 
HETATM   13  C14 UNL     1      20.676   3.961  51.336  1.00  0.00     0.106 A 
HETATM   14  C16 UNL     1      21.627   4.960  51.365  1.00  0.00     0.135 A 
HETATM   15  C18 UNL     1      22.957   4.608  51.468  1.00  0.00     0.106 A 
HETATM   16  C20 UNL     1      23.292   3.275  51.539  1.00  0.00     0.069 A 
BRANCH  13  17
HETATM   17  O4  UNL     1      19.376   4.404  51.233  1.00  0.00    -0.353 OA
HETATM   18  C15 UNL     1      18.552   4.320  50.109  1.00  0.00     0.210 C 
ENDBRANCH  13  17
BRANCH  14  19
HETATM   19  O5  UNL     1      21.350   6.324  51.297  1.00  0.00    -0.351 OA
HETATM   20  C17 UNL     1      21.272   6.900  49.984  1.00  0.00     0.210 C 
ENDBRANCH  14  19
BRANCH  15  21
HETATM   21  O6  UNL     1      23.944   5.584  51.500  1.00  0.00    -0.353 OA
HETATM   22  C19 UNL     1      24.829   5.705  50.400  1.00  0.00     0.210 C 
ENDBRANCH  15  21
ENDBRANCH   9  11
ENDBRANCH   8   9
BRANCH   1  23
HETATM   23  C6  UNL     1      25.518   0.821  52.793  1.00  0.00     0.188 C 
BRANCH  23  24
HETATM   24  C4  UNL     1      26.960   0.737  53.255  1.00  0.00    -0.015 C 
HETATM   25  C3  UNL     1      27.534  -0.301  53.832  1.00  0.00     0.141 C 
BRANCH  25  26
HETATM   26  O1  UNL     1      28.849   0.048  54.089  1.00  0.00    -0.363 OA
BRANCH  26  27
HETATM   27  C2  UNL     1      29.961  -0.683  53.616  1.00  0.00     0.170 C 
HETATM   28  C1  UNL     1      29.642  -2.142  53.356  1.00  0.00     0.034 C 
ENDBRANCH  26  27
ENDBRANCH  25  26
BRANCH  24  29
HETATM   29  C5  UNL     1      27.604   2.036  52.939  1.00  0.00     0.202 C 
BRANCH  29  30
HETATM   30  O2  UNL     1      27.935   2.765  54.081  1.00  0.00    -0.397 OA
HETATM   31  H9  UNL     1      28.882   3.074  54.073  1.00  0.00     0.209 HD
ENDBRANCH  29  30
ENDBRANCH  24  29
ENDBRANCH  23  24
ENDBRANCH   1  23
BRANCH   4  32
HETATM   32  O3  UNL     1      25.221  -1.132  55.856  1.00  0.00    -0.370 OA
HETATM   33  H13 UNL     1      25.840  -1.861  56.192  1.00  0.00     0.216 HD
ENDBRANCH   4  32
TORSDOF 12
ENDMDL
MODEL 4
REMARK VINA RESULT:      -6.9      2.690      6.320
REMARK  12 active torsions:
REMARK  status: ('A' for Active; 'I' for Inactive)
REMARK    1  A    between atoms: C2_2  and  O1_3 
REMARK    2  A    between atoms: O1_3  and  C3_4 
REMARK    3  A    between atoms: C4_5  and  C5_6 
REMARK    4  A    between atoms: C4_5  and  C6_8 
REMARK    5  A    between atoms: C5_6  and  O2_7 
REMARK    6  A    between atoms: C6_8  and  N1_9 
REMARK    7  A    between atoms: C9_12  and  O3_13 
REMARK    8  A    between atoms: C11_17  and  N4_18 
REMARK    9  A    between atoms: N4_18  and  C12_19 
REMARK   10  A    between atoms: C14_21  and  O4_22 
REMARK   11  A    between atoms: C16_24  and  O5_25 
REMARK   12  A    between atoms: C18_27  and  O6_28 
ROOT
HETATM    1  N1  UNL     1      26.815   2.397  51.510  1.00  0.00    -0.279 NA
HETATM    2  C7  UNL     1      26.532   1.734  52.517  1.00  0.00     0.128 A 
HETATM    3  C8  UNL     1      27.555   1.793  53.594  1.00  0.00     0.112 A 
HETATM    4  C9  UNL     1      28.653   2.504  53.450  1.00  0.00     0.165 C 
HETATM    5  N2  UNL     1      27.403   1.092  54.820  1.00  0.00    -0.238 NA
HETATM    6  C10 UNL     1      26.343   0.383  55.002  1.00  0.00     0.236 A 
HETATM    7  N3  UNL     1      25.298   0.267  54.018  1.00  0.00    -0.222 NA
HETATM    8  C11 UNL     1      25.411   0.901  52.880  1.00  0.00     0.160 A 
ENDROOT
BRANCH   8   9
HETATM    9  N4  UNL     1      24.362   0.777  51.937  1.00  0.00    -0.339 N 
HETATM   10  H15 UNL     1      24.565   0.134  51.164  1.00  0.00     0.167 HD
BRANCH   9  11
HETATM   11  C12 UNL     1      23.131   1.475  52.043  1.00  0.00     0.039 A 
HETATM   12  C13 UNL     1      21.986   0.734  52.240  1.00  0.00     0.069 A 
HETATM   13  C14 UNL     1      20.726   1.294  52.363  1.00  0.00     0.106 A 
HETATM   14  C16 UNL     1      20.580   2.663  52.289  1.00  0.00     0.135 A 
HETATM   15  C18 UNL     1      21.702   3.442  52.093  1.00  0.00     0.106 A 
HETATM   16  C20 UNL     1      22.928   2.830  51.978  1.00  0.00     0.069 A 
BRANCH  13  17
HETATM   17  O4  UNL     1      19.555   0.597  52.560  1.00  0.00    -0.353 OA
HETATM   18  C15 UNL     1      19.399  -0.587  53.282  1.00  0.00     0.210 C 
ENDBRANCH  13  17
BRANCH  14  19
HETATM   19  O5  UNL     1      19.367   3.341  52.399  1.00  0.00    -0.351 OA
HETATM   20  C17 UNL     1      18.604   3.495  51.192  1.00  0.00     0.210 C 
ENDBRANCH  14  19
BRANCH  15  21
HETATM   21  O6  UNL     1      21.595   4.825  52.014  1.00  0.00    -0.353 OA
HETATM   22  C19 UNL     1      21.782   5.459  50.762  1.00  0.00     0.210 C 
ENDBRANCH  15  21
ENDBRANCH   9  11
ENDBRANCH   8   9
BRANCH   1  23
HETATM   23  C6  UNL     1      26.191   2.649  50.273  1.00  0.00     0.188 C 
BRANCH  23  24
HETATM   24  C4  UNL     1      26.249   4.122  49.917  1.00  0.00    -0.015 C 
HETATM   25  C3  UNL     1      25.510   5.079  50.442  1.00  0.00     0.141 C 
BRANCH  25  26
HETATM   26  O1  UNL     1      25.883   6.265  49.834  1.00  0.00    -0.363 OA
BRANCH  26  27
HETATM   27  C2  UNL     1      25.647   7.541  50.392  1.00  0.00     0.170 C 
HETATM   28  C1  UNL     1      26.727   8.547  50.042  1.00  0.00     0.034 C 
ENDBRANCH  26  27
ENDBRANCH  25  26
BRANCH  24  29
HETATM   29  C5  UNL     1      27.288   4.286  48.870  1.00  0.00     0.202 C 
BRANCH  29  30
HETATM   30  O2  UNL     1      28.377   5.040  49.304  1.00  0.00    -0.397 OA
HETATM   31  H9  UNL     1      28.659   5.721  48.634  1.00  0.00     0.209 HD
ENDBRANCH  29  30
ENDBRANCH  24  29
ENDBRANCH  23  24
ENDBRANCH   1  23
BRANCH   4  32
HETATM   32  O3  UNL     1      29.079   3.274  52.406  1.00  0.00    -0.370 OA
HETATM   33  H13 UNL     1      30.047   3.574  52.374  1.00  0.00     0.216 HD
ENDBRANCH   4  32
TORSDOF 12
ENDMDL
MODEL 5
REMARK VINA RESULT:      -6.9      1.578      2.037
REMARK  12 active torsions:
REMARK  status: ('A' for Active; 'I' for Inactive)
REMARK    1  A    between atoms: C2_2  and  O1_3 
REMARK    2  A    between atoms: O1_3  and  C3_4 
REMARK    3  A    between atoms: C4_5  and  C5_6 
REMARK    4  A    between atoms: C4_5  and  C6_8 
REMARK    5  A    between atoms: C5_6  and  O2_7 
REMARK    6  A    between atoms: C6_8  and  N1_9 
REMARK    7  A    between atoms: C9_12  and  O3_13 
REMARK    8  A    between atoms: C11_17  and  N4_18 
REMARK    9  A    between atoms: N4_18  and  C12_19 
REMARK   10  A    between atoms: C14_21  and  O4_22 
REMARK   11  A    between atoms: C16_24  and  O5_25 
REMARK   12  A    between atoms: C18_27  and  O6_28 
ROOT
HETATM    1  N1  UNL     1      24.466   0.000  53.608  1.00  0.00    -0.279 NA
HETATM    2  C7  UNL     1      23.251  -0.241  53.594  1.00  0.00     0.128 A 
HETATM    3  C8  UNL     1      22.780  -1.064  54.740  1.00  0.00     0.112 A 
HETATM    4  C9  UNL     1      23.615  -1.476  55.669  1.00  0.00     0.165 C 
HETATM    5  N2  UNL     1      21.419  -1.443  54.889  1.00  0.00    -0.238 NA
HETATM    6  C10 UNL     1      20.568  -1.061  54.000  1.00  0.00     0.236 A 
HETATM    7  N3  UNL     1      20.931  -0.262  52.858  1.00  0.00    -0.222 NA
HETATM    8  C11 UNL     1      22.176   0.102  52.695  1.00  0.00     0.160 A 
ENDROOT
BRANCH   8   9
HETATM    9  N4  UNL     1      22.499   0.896  51.569  1.00  0.00    -0.339 N 
HETATM   10  H15 UNL     1      23.020   0.398  50.839  1.00  0.00     0.167 HD
BRANCH   9  11
HETATM   11  C12 UNL     1      22.139   2.264  51.449  1.00  0.00     0.039 A 
HETATM   12  C13 UNL     1      23.149   3.201  51.485  1.00  0.00     0.069 A 
HETATM   13  C14 UNL     1      22.930   4.563  51.375  1.00  0.00     0.106 A 
HETATM   14  C16 UNL     1      21.644   5.036  51.220  1.00  0.00     0.135 A 
HETATM   15  C18 UNL     1      20.604   4.130  51.178  1.00  0.00     0.106 A 
HETATM   16  C20 UNL     1      20.881   2.788  51.293  1.00  0.00     0.069 A 
BRANCH  13  17
HETATM   17  O4  UNL     1      23.904   5.536  51.405  1.00  0.00    -0.353 OA
HETATM   18  C15 UNL     1      24.854   5.798  50.417  1.00  0.00     0.210 C 
ENDBRANCH  13  17
BRANCH  14  19
HETATM   19  O5  UNL     1      21.300   6.381  51.098  1.00  0.00    -0.351 OA
HETATM   20  C17 UNL     1      21.332   6.935  49.773  1.00  0.00     0.210 C 
ENDBRANCH  14  19
BRANCH  15  21
HETATM   21  O6  UNL     1      19.295   4.568  51.023  1.00  0.00    -0.353 OA
HETATM   22  C19 UNL     1      18.628   4.323  49.798  1.00  0.00     0.210 C 
ENDBRANCH  15  21
ENDBRANCH   9  11
ENDBRANCH   8   9
BRANCH   1  23
HETATM   23  C6  UNL     1      25.351   0.710  52.774  1.00  0.00     0.188 C 
BRANCH  23  24
HETATM   24  C4  UNL     1      26.756   0.721  53.345  1.00  0.00    -0.015 C 
HETATM   25  C3  UNL     1      27.333  -0.261  54.010  1.00  0.00     0.141 C 
BRANCH  25  26
HETATM   26  O1  UNL     1      28.606   0.165  54.348  1.00  0.00    -0.363 OA
BRANCH  26  27
HETATM   27  C2  UNL     1      29.789  -0.418  53.844  1.00  0.00     0.170 C 
HETATM   28  C1  UNL     1      29.591  -1.850  53.384  1.00  0.00     0.034 C 
ENDBRANCH  26  27
ENDBRANCH  25  26
BRANCH  24  29
HETATM   29  C5  UNL     1      27.359   2.037  53.020  1.00  0.00     0.202 C 
BRANCH  29  30
HETATM   30  O2  UNL     1      27.703   2.768  54.155  1.00  0.00    -0.397 OA
HETATM   31  H9  UNL     1      26.935   3.289  54.519  1.00  0.00     0.209 HD
ENDBRANCH  29  30
ENDBRANCH  24  29
ENDBRANCH  23  24
ENDBRANCH   1  23
BRANCH   4  32
HETATM   32  O3  UNL     1      24.960  -1.278  55.803  1.00  0.00    -0.370 OA
HETATM   33  H13 UNL     1      25.373  -1.289  56.729  1.00  0.00     0.216 HD
ENDBRANCH   4  32
TORSDOF 12
ENDMDL
MODEL 6
REMARK VINA RESULT:      -6.9      2.435      7.147
REMARK  12 active torsions:
REMARK  status: ('A' for Active; 'I' for Inactive)
REMARK    1  A    between atoms: C2_2  and  O1_3 
REMARK    2  A    between atoms: O1_3  and  C3_4 
REMARK    3  A    between atoms: C4_5  and  C5_6 
REMARK    4  A    between atoms: C4_5  and  C6_8 
REMARK    5  A    between atoms: C5_6  and  O2_7 
REMARK    6  A    between atoms: C6_8  and  N1_9 
REMARK    7  A    between atoms: C9_12  and  O3_13 
REMARK    8  A    between atoms: C11_17  and  N4_18 
REMARK    9  A    between atoms: N4_18  and  C12_19 
REMARK   10  A    between atoms: C14_21  and  O4_22 
REMARK   11  A    between atoms: C16_24  and  O5_25 
REMARK   12  A    between atoms: C18_27  and  O6_28 
ROOT
HETATM    1  N1  UNL     1      24.152   4.524  49.849  1.00  0.00    -0.279 NA
HETATM    2  C7  UNL     1      23.115   4.414  50.518  1.00  0.00     0.128 A 
HETATM    3  C8  UNL     1      21.863   4.604  49.739  1.00  0.00     0.112 A 
HETATM    4  C9  UNL     1      21.898   4.862  48.449  1.00  0.00     0.165 C 
HETATM    5  N2  UNL     1      20.579   4.519  50.339  1.00  0.00    -0.238 NA
HETATM    6  C10 UNL     1      20.500   4.269  51.601  1.00  0.00     0.236 A 
HETATM    7  N3  UNL     1      21.656   4.069  52.436  1.00  0.00    -0.222 NA
HETATM    8  C11 UNL     1      22.851   4.141  51.910  1.00  0.00     0.160 A 
ENDROOT
BRANCH   8   9
HETATM    9  N4  UNL     1      23.968   3.929  52.754  1.00  0.00    -0.339 N 
HETATM   10  H15 UNL     1      24.378   4.789  53.133  1.00  0.00     0.167 HD
BRANCH   9  11
HETATM   11  C12 UNL     1      24.483   2.641  53.057  1.00  0.00     0.039 A 
HETATM   12  C13 UNL     1      25.760   2.565  53.571  1.00  0.00     0.069 A 
HETATM   13  C14 UNL     1      26.375   1.372  53.910  1.00  0.00     0.106 A 
HETATM   14  C16 UNL     1      25.698   0.183  53.736  1.00  0.00     0.135 A 
HETATM   15  C18 UNL     1      24.417   0.216  53.225  1.00  0.00     0.106 A 
HETATM   16  C20 UNL     1      23.856   1.431  52.905  1.00  0.00     0.069 A 
BRANCH  13  17
HETATM   17  O4  UNL     1      27.645   1.244  54.426  1.00  0.00    -0.353 OA
HETATM   18  C15 UNL     1      28.847   1.438  53.744  1.00  0.00     0.210 C 
ENDBRANCH  13  17
BRANCH  14  19
HETATM   19  O5  UNL     1      26.211  -1.077  54.041  1.00  0.00    -0.351 OA
HETATM   20  C17 UNL     1      26.927  -1.750  52.994  1.00  0.00     0.210 C 
ENDBRANCH  14  19
BRANCH  15  21
HETATM   21  O6  UNL     1      23.703  -0.960  53.035  1.00  0.00    -0.353 OA
HETATM   22  C19 UNL     1      22.387  -1.058  53.550  1.00  0.00     0.210 C 
ENDBRANCH  15  21
ENDBRANCH   9  11
ENDBRANCH   8   9
BRANCH   1  23
HETATM   23  C6  UNL     1      25.530   4.433  50.122  1.00  0.00     0.188 C 
BRANCH  23  24
HETATM   24  C4  UNL     1      26.310   5.497  49.375  1.00  0.00    -0.015 C 
HETATM   25  C3  UNL     1      26.034   6.786  49.342  1.00  0.00     0.141 C 
BRANCH  25  26
HETATM   26  O1  UNL     1      26.993   7.390  48.547  1.00  0.00    -0.363 OA
BRANCH  26  27
HETATM   27  C2  UNL     1      27.659   8.586  48.894  1.00  0.00     0.170 C 
HETATM   28  C1  UNL     1      27.217   9.142  50.234  1.00  0.00     0.034 C 
ENDBRANCH  26  27
ENDBRANCH  25  26
BRANCH  24  29
HETATM   29  C5  UNL     1      27.439   4.821  48.688  1.00  0.00     0.202 C 
BRANCH  29  30
HETATM   30  O2  UNL     1      28.682   5.202  49.190  1.00  0.00    -0.397 OA
HETATM   31  H9  UNL     1      28.607   5.870  49.925  1.00  0.00     0.209 HD
ENDBRANCH  29  30
ENDBRANCH  24  29
ENDBRANCH  23  24
ENDBRANCH   1  23
BRANCH   4  32
HETATM   32  O3  UNL     1      22.960   5.003  47.602  1.00  0.00    -0.370 OA
HETATM   33  H13 UNL     1      22.805   4.967  46.601  1.00  0.00     0.216 HD
ENDBRANCH   4  32
TORSDOF 12
ENDMDL
MODEL 7
REMARK VINA RESULT:      -6.8      2.240      5.417
REMARK  12 active torsions:
REMARK  status: ('A' for Active; 'I' for Inactive)
REMARK    1  A    between atoms: C2_2  and  O1_3 
REMARK    2  A    between atoms: O1_3  and  C3_4 
REMARK    3  A    between atoms: C4_5  and  C5_6 
REMARK    4  A    between atoms: C4_5  and  C6_8 
REMARK    5  A    between atoms: C5_6  and  O2_7 
REMARK    6  A    between atoms: C6_8  and  N1_9 
REMARK    7  A    between atoms: C9_12  and  O3_13 
REMARK    8  A    between atoms: C11_17  and  N4_18 
REMARK    9  A    between atoms: N4_18  and  C12_19 
REMARK   10  A    between atoms: C14_21  and  O4_22 
REMARK   11  A    between atoms: C16_24  and  O5_25 
REMARK   12  A    between atoms: C18_27  and  O6_28 
ROOT
HETATM    1  N1  UNL     1      25.334   0.108  53.231  1.00  0.00    -0.279 NA
HETATM    2  C7  UNL     1      26.396   0.742  53.296  1.00  0.00     0.128 A 
HETATM    3  C8  UNL     1      27.092   0.633  54.605  1.00  0.00     0.112 A 
HETATM    4  C9  UNL     1      26.589  -0.088  55.584  1.00  0.00     0.165 C 
HETATM    5  N2  UNL     1      28.322   1.295  54.865  1.00  0.00    -0.238 NA
HETATM    6  C10 UNL     1      28.848   2.013  53.933  1.00  0.00     0.236 A 
HETATM    7  N3  UNL     1      28.248   2.176  52.634  1.00  0.00    -0.222 NA
HETATM    8  C11 UNL     1      27.116   1.578  52.367  1.00  0.00     0.160 A 
ENDROOT
BRANCH   8   9
HETATM    9  N4  UNL     1      26.558   1.749  51.078  1.00  0.00    -0.339 N 
HETATM   10  H15 UNL     1      26.490   0.883  50.530  1.00  0.00     0.167 HD
BRANCH   9  11
HETATM   11  C12 UNL     1      26.125   3.003  50.575  1.00  0.00     0.039 A 
HETATM   12  C13 UNL     1      24.893   3.469  50.984  1.00  0.00     0.069 A 
HETATM   13  C14 UNL     1      24.359   4.678  50.571  1.00  0.00     0.106 A 
HETATM   14  C16 UNL     1      25.075   5.478  49.704  1.00  0.00     0.135 A 
HETATM   15  C18 UNL     1      26.313   5.048  49.272  1.00  0.00     0.106 A 
HETATM   16  C20 UNL     1      26.793   3.838  49.716  1.00  0.00     0.069 A 
BRANCH  13  17
HETATM   17  O4  UNL     1      23.137   5.185  50.950  1.00  0.00    -0.353 OA
HETATM   18  C15 UNL     1      22.512   5.021  52.187  1.00  0.00     0.210 C 
ENDBRANCH  13  17
BRANCH  14  19
HETATM   19  O5  UNL     1      24.643   6.711  49.220  1.00  0.00    -0.351 OA
HETATM   20  C17 UNL     1      23.846   6.690  48.026  1.00  0.00     0.210 C 
ENDBRANCH  14  19
BRANCH  15  21
HETATM   21  O6  UNL     1      27.064   5.825  48.400  1.00  0.00    -0.353 OA
HETATM   22  C19 UNL     1      28.460   5.605  48.309  1.00  0.00     0.210 C 
ENDBRANCH  15  21
ENDBRANCH   9  11
ENDBRANCH   8   9
BRANCH   1  23
HETATM   23  C6  UNL     1      24.351  -0.093  52.243  1.00  0.00     0.188 C 
BRANCH  23  24
HETATM   24  C4  UNL     1      22.966   0.222  52.772  1.00  0.00    -0.015 C 
HETATM   25  C3  UNL     1      22.310   1.354  52.609  1.00  0.00     0.141 C 
BRANCH  25  26
HETATM   26  O1  UNL     1      21.091   1.219  53.251  1.00  0.00    -0.363 OA
BRANCH  26  27
HETATM   27  C2  UNL     1      19.845   1.454  52.628  1.00  0.00     0.170 C 
HETATM   28  C1  UNL     1      19.145   0.177  52.207  1.00  0.00     0.034 C 
ENDBRANCH  26  27
ENDBRANCH  25  26
BRANCH  24  29
HETATM   29  C5  UNL     1      22.486  -0.975  53.507  1.00  0.00     0.202 C 
BRANCH  29  30
HETATM   30  O2  UNL     1      22.629  -0.853  54.888  1.00  0.00    -0.397 OA
HETATM   31  H9  UNL     1      23.434  -0.323  55.141  1.00  0.00     0.209 HD
ENDBRANCH  29  30
ENDBRANCH  24  29
ENDBRANCH  23  24
ENDBRANCH   1  23
BRANCH   4  32
HETATM   32  O3  UNL     1      25.444  -0.829  55.641  1.00  0.00    -0.370 OA
HETATM   33  H13 UNL     1      25.480  -1.771  56.016  1.00  0.00     0.216 HD
ENDBRANCH   4  32
TORSDOF 12
ENDMDL
MODEL 8
REMARK VINA RESULT:      -6.8      2.364      7.096
REMARK  12 active torsions:
REMARK  status: ('A' for Active; 'I' for Inactive)
REMARK    1  A    between atoms: C2_2  and  O1_3 
REMARK    2  A    between atoms: O1_3  and  C3_4 
REMARK    3  A    between atoms: C4_5  and  C5_6 
REMARK    4  A    between atoms: C4_5  and  C6_8 
REMARK    5  A    between atoms: C5_6  and  O2_7 
REMARK    6  A    between atoms: C6_8  and  N1_9 
REMARK    7  A    between atoms: C9_12  and  O3_13 
REMARK    8  A    between atoms: C11_17  and  N4_18 
REMARK    9  A    between atoms: N4_18  and  C12_19 
REMARK   10  A    between atoms: C14_21  and  O4_22 
REMARK   11  A    between atoms: C16_24  and  O5_25 
REMARK   12  A    between atoms: C18_27  and  O6_28 
ROOT
HETATM    1  N1  UNL     1      24.084   4.222  49.909  1.00  0.00    -0.279 NA
HETATM    2  C7  UNL     1      23.051   4.160  50.590  1.00  0.00     0.128 A 
HETATM    3  C8  UNL     1      21.795   4.279  49.803  1.00  0.00     0.112 A 
HETATM    4  C9  UNL     1      21.823   4.433  48.497  1.00  0.00     0.165 C 
HETATM    5  N2  UNL     1      20.514   4.234  50.415  1.00  0.00    -0.238 NA
HETATM    6  C10 UNL     1      20.441   4.087  51.693  1.00  0.00     0.236 A 
HETATM    7  N3  UNL     1      21.602   3.962  52.536  1.00  0.00    -0.222 NA
HETATM    8  C11 UNL     1      22.795   3.999  52.000  1.00  0.00     0.160 A 
ENDROOT
BRANCH   8   9
HETATM    9  N4  UNL     1      23.916   3.862  52.853  1.00  0.00    -0.339 N 
HETATM   10  H15 UNL     1      24.232   4.741  53.277  1.00  0.00     0.167 HD
BRANCH   9  11
HETATM   11  C12 UNL     1      24.555   2.621  53.108  1.00  0.00     0.039 A 
HETATM   12  C13 UNL     1      23.787   1.478  53.047  1.00  0.00     0.069 A 
HETATM   13  C14 UNL     1      24.290   0.208  53.271  1.00  0.00     0.106 A 
HETATM   14  C16 UNL     1      25.627   0.048  53.573  1.00  0.00     0.135 A 
HETATM   15  C18 UNL     1      26.430   1.168  53.643  1.00  0.00     0.106 A 
HETATM   16  C20 UNL     1      25.875   2.405  53.411  1.00  0.00     0.069 A 
BRANCH  13  17
HETATM   17  O4  UNL     1      23.565  -0.962  53.222  1.00  0.00    -0.353 OA
HETATM   18  C15 UNL     1      22.292  -1.178  53.751  1.00  0.00     0.210 C 
ENDBRANCH  13  17
BRANCH  14  19
HETATM   19  O5  UNL     1      26.247  -1.176  53.817  1.00  0.00    -0.351 OA
HETATM   20  C17 UNL     1      26.838  -1.834  52.686  1.00  0.00     0.210 C 
ENDBRANCH  14  19
BRANCH  15  21
HETATM   21  O6  UNL     1      27.781   1.048  53.944  1.00  0.00    -0.353 OA
HETATM   22  C19 UNL     1      28.638   2.151  53.712  1.00  0.00     0.210 C 
ENDBRANCH  15  21
ENDBRANCH   9  11
ENDBRANCH   8   9
BRANCH   1  23
HETATM   23  C6  UNL     1      25.464   4.163  50.183  1.00  0.00     0.188 C 
BRANCH  23  24
HETATM   24  C4  UNL     1      26.215   5.268  49.466  1.00  0.00    -0.015 C 
HETATM   25  C3  UNL     1      27.268   5.115  48.687  1.00  0.00     0.141 C 
BRANCH  25  26
HETATM   26  O1  UNL     1      27.637   6.373  48.244  1.00  0.00    -0.363 OA
BRANCH  26  27
HETATM   27  C2  UNL     1      28.977   6.805  48.135  1.00  0.00     0.170 C 
HETATM   28  C1  UNL     1      29.961   5.655  48.034  1.00  0.00     0.034 C 
ENDBRANCH  26  27
ENDBRANCH  25  26
BRANCH  24  29
HETATM   29  C5  UNL     1      25.550   6.550  49.805  1.00  0.00     0.202 C 
BRANCH  29  30
HETATM   30  O2  UNL     1      26.281   7.314  50.714  1.00  0.00    -0.397 OA
HETATM   31  H9  UNL     1      25.696   7.843  51.322  1.00  0.00     0.209 HD
ENDBRANCH  29  30
ENDBRANCH  24  29
ENDBRANCH  23  24
ENDBRANCH   1  23
BRANCH   4  32
HETATM   32  O3  UNL     1      22.880   4.511  47.637  1.00  0.00    -0.370 OA
HETATM   33  H13 UNL     1      23.096   3.718  47.042  1.00  0.00     0.216 HD
ENDBRANCH   4  32
TORSDOF 12
ENDMDL
MODEL 9
REMARK VINA RESULT:      -6.6      2.584      5.756
REMARK  12 active torsions:
REMARK  status: ('A' for Active; 'I' for Inactive)
REMARK    1  A    between atoms: C2_2  and  O1_3 
REMARK    2  A    between atoms: O1_3  and  C3_4 
REMARK    3  A    between atoms: C4_5  and  C5_6 
REMARK    4  A    between atoms: C4_5  and  C6_8 
REMARK    5  A    between atoms: C5_6  and  O2_7 
REMARK    6  A    between atoms: C6_8  and  N1_9 
REMARK    7  A    between atoms: C9_12  and  O3_13 
REMARK    8  A    between atoms: C11_17  and  N4_18 
REMARK    9  A    between atoms: N4_18  and  C12_19 
REMARK   10  A    between atoms: C14_21  and  O4_22 
REMARK   11  A    between atoms: C16_24  and  O5_25 
REMARK   12  A    between atoms: C18_27  and  O6_28 
ROOT
HETATM    1  N1  UNL     1      25.002   2.923  52.216  1.00  0.00    -0.279 NA
HETATM    2  C7  UNL     1      24.259   3.474  51.393  1.00  0.00     0.128 A 
HETATM    3  C8  UNL     1      24.960   3.989  50.187  1.00  0.00     0.112 A 
HETATM    4  C9  UNL     1      26.261   3.847  50.046  1.00  0.00     0.165 C 
HETATM    5  N2  UNL     1      24.271   4.653  49.138  1.00  0.00    -0.238 NA
HETATM    6  C10 UNL     1      22.997   4.815  49.238  1.00  0.00     0.236 A 
HETATM    7  N3  UNL     1      22.232   4.349  50.366  1.00  0.00    -0.222 NA
HETATM    8  C11 UNL     1      22.840   3.733  51.347  1.00  0.00     0.160 A 
ENDROOT
BRANCH   8   9
HETATM    9  N4  UNL     1      22.060   3.277  52.436  1.00  0.00    -0.339 N 
HETATM   10  H15 UNL     1      22.250   3.761  53.321  1.00  0.00     0.167 HD
BRANCH   9  11
HETATM   11  C12 UNL     1      21.096   2.242  52.326  1.00  0.00     0.039 A 
HETATM   12  C13 UNL     1      21.339   1.063  53.000  1.00  0.00     0.069 A 
HETATM   13  C14 UNL     1      20.476  -0.020  52.977  1.00  0.00     0.106 A 
HETATM   14  C16 UNL     1      19.306   0.057  52.251  1.00  0.00     0.135 A 
HETATM   15  C18 UNL     1      19.026   1.220  51.563  1.00  0.00     0.106 A 
HETATM   16  C20 UNL     1      19.920   2.264  51.622  1.00  0.00     0.069 A 
BRANCH  13  17
HETATM   17  O4  UNL     1      20.674  -1.215  53.631  1.00  0.00    -0.353 OA
HETATM   18  C15 UNL     1      21.721  -1.529  54.498  1.00  0.00     0.210 C 
ENDBRANCH  13  17
BRANCH  14  19
HETATM   19  O5  UNL     1      18.363  -0.964  52.153  1.00  0.00    -0.351 OA
HETATM   20  C17 UNL     1      17.395  -1.049  53.211  1.00  0.00     0.210 C 
ENDBRANCH  14  19
BRANCH  15  21
HETATM   21  O6  UNL     1      17.857   1.335  50.821  1.00  0.00    -0.353 OA
HETATM   22  C19 UNL     1      17.167   2.571  50.812  1.00  0.00     0.210 C 
ENDBRANCH  15  21
ENDBRANCH   9  11
ENDBRANCH   8   9
BRANCH   1  23
HETATM   23  C6  UNL     1      24.818   2.300  53.466  1.00  0.00     0.188 C 
BRANCH  23  24
HETATM   24  C4  UNL     1      25.799   1.161  53.663  1.00  0.00    -0.015 C 
HETATM   25  C3  UNL     1      26.597   0.992  54.699  1.00  0.00     0.141 C 
BRANCH  25  26
HETATM   26  O1  UNL     1      27.322  -0.166  54.474  1.00  0.00    -0.363 OA
BRANCH  26  27
HETATM   27  C2  UNL     1      28.732  -0.231  54.525  1.00  0.00     0.170 C 
HETATM   28  C1  UNL     1      29.322  -1.111  53.440  1.00  0.00     0.034 C 
ENDBRANCH  26  27
ENDBRANCH  25  26
BRANCH  24  29
HETATM   29  C5  UNL     1      25.698   0.276  52.477  1.00  0.00     0.202 C 
BRANCH  29  30
HETATM   30  O2  UNL     1      26.739   0.468  51.569  1.00  0.00    -0.397 OA
HETATM   31  H9  UNL     1      27.267  -0.363  51.417  1.00  0.00     0.209 HD
ENDBRANCH  29  30
ENDBRANCH  24  29
ENDBRANCH  23  24
ENDBRANCH   1  23
BRANCH   4  32
HETATM   32  O3  UNL     1      27.183   3.263  50.866  1.00  0.00    -0.370 OA
HETATM   33  H13 UNL     1      27.198   2.253  50.957  1.00  0.00     0.216 HD
ENDBRANCH   4  32
TORSDOF 12
ENDMDL
