MODEL 1
REMARK VINA RESULT:      -8.6      0.000      0.000
REMARK  6 active torsions:
REMARK  status: ('A' for Active; 'I' for Inactive)
REMARK    1  A    between atoms: C3_3  and  C4_4 
REMARK    2  A    between atoms: C14_17  and  O1_18 
REMARK    3  A    between atoms: O1_18  and  C15_19 
REMARK    4  A    between atoms: C15_19  and  C16_20 
REMARK    5  A    between atoms: C16_20  and  O2_21 
REMARK    6  A    between atoms: C17_22  and  O3_23 
ROOT
HETATM    1  C1  UNL     1      15.318  -1.579  51.774  1.00  0.00     0.012 C 
HETATM    2  C2  UNL     1      16.179  -0.917  51.218  1.00  0.00    -0.113 C 
HETATM    3  C3  UNL     1      17.211  -0.142  50.579  1.00  0.00     0.131 C 
ENDROOT
BRANCH   3   4
HETATM    4  C4  UNL     1      18.303   0.289  51.458  1.00  0.00    -0.044 A 
HETATM    5  C5  UNL     1      19.044  -0.562  52.337  1.00  0.00     0.019 A 
HETATM    6  C6  UNL     1      19.930   0.461  52.824  1.00  0.00    -0.034 A 
HETATM    7  C7  UNL     1      20.528   1.432  53.081  1.00  0.00     0.040 A 
HETATM    8  C20 UNL     1      20.795  -0.494  53.652  1.00  0.00     0.008 C 
HETATM    9  C8  UNL     1      19.698   2.164  52.157  1.00  0.00     0.031 A 
HETATM   10  C9  UNL     1      18.638   1.670  51.374  1.00  0.00     0.037 A 
HETATM   11  N1  UNL     1      20.253   3.562  52.125  1.00  0.00    -0.364 N 
HETATM   12  C10 UNL     1      21.524   3.539  51.303  1.00  0.00     0.423 C 
HETATM   13  H7  UNL     1      19.423   3.597  52.666  1.00  0.00     0.162 HD
HETATM   14  N2  UNL     1      22.323   2.567  51.462  1.00  0.00    -0.376 NA
HETATM   15  C11 UNL     1      23.552   2.202  50.913  1.00  0.00     0.254 C 
HETATM   16  N3  UNL     1      24.428   1.734  51.576  1.00  0.00    -0.444 NA
HETATM   17  C12 UNL     1      25.572   1.202  52.050  1.00  0.00     0.151 C 
HETATM   18  C13 UNL     1      25.002   0.499  52.996  1.00  0.00     0.167 C 
HETATM   19  C14 UNL     1      25.405  -0.443  54.075  1.00  0.00     0.083 C 
HETATM   20  C17 UNL     1      24.333  -0.864  54.764  1.00  0.00     0.076 C 
HETATM   21  C18 UNL     1      22.974  -1.115  55.285  1.00  0.00     0.094 C 
HETATM   22  C19 UNL     1      21.901  -0.505  54.405  1.00  0.00    -0.019 C 
BRANCH  19  23
HETATM   23  O1  UNL     1      26.693  -0.891  54.409  1.00  0.00    -0.350 OA
BRANCH  23  24
HETATM   24  C15 UNL     1      27.737  -1.112  53.521  1.00  0.00     0.201 C 
BRANCH  24  25
HETATM   25  C16 UNL     1      27.555  -2.393  52.708  1.00  0.00     0.190 C 
BRANCH  25  26
HETATM   26  O2  UNL     1      28.410  -3.387  53.216  1.00  0.00    -0.399 OA
HETATM   27  H16 UNL     1      28.093  -3.704  54.101  1.00  0.00     0.209 HD
ENDBRANCH  25  26
ENDBRANCH  24  25
ENDBRANCH  23  24
ENDBRANCH  19  23
BRANCH  20  28
HETATM   28  O3  UNL     1      24.944  -1.722  55.708  1.00  0.00    -0.362 OA
HETATM   29  H17 UNL     1      25.923  -1.592  55.977  1.00  0.00     0.217 HD
ENDBRANCH  20  28
ENDBRANCH   3   4
TORSDOF 6
ENDMDL
MODEL 2
REMARK VINA RESULT:      -8.2      0.803      1.215
REMARK  6 active torsions:
REMARK  status: ('A' for Active; 'I' for Inactive)
REMARK    1  A    between atoms: C3_3  and  C4_4 
REMARK    2  A    between atoms: C14_17  and  O1_18 
REMARK    3  A    between atoms: O1_18  and  C15_19 
REMARK    4  A    between atoms: C15_19  and  C16_20 
REMARK    5  A    between atoms: C16_20  and  O2_21 
REMARK    6  A    between atoms: C17_22  and  O3_23 
ROOT
HETATM    1  C1  UNL     1      15.353  -1.522  51.301  1.00  0.00     0.012 C 
HETATM    2  C2  UNL     1      16.211  -0.804  50.812  1.00  0.00    -0.113 C 
HETATM    3  C3  UNL     1      17.238   0.036  50.253  1.00  0.00     0.131 C 
ENDROOT
BRANCH   3   4
HETATM    4  C4  UNL     1      18.297   0.433  51.186  1.00  0.00    -0.044 A 
HETATM    5  C5  UNL     1      18.997  -0.449  52.068  1.00  0.00     0.019 A 
HETATM    6  C6  UNL     1      19.870   0.552  52.619  1.00  0.00    -0.034 A 
HETATM    7  C7  UNL     1      20.465   1.511  52.928  1.00  0.00     0.040 A 
HETATM    8  C20 UNL     1      20.695  -0.433  53.453  1.00  0.00     0.008 C 
HETATM    9  C8  UNL     1      19.677   2.276  51.993  1.00  0.00     0.031 A 
HETATM   10  C9  UNL     1      18.645   1.813  51.155  1.00  0.00     0.037 A 
HETATM   11  N1  UNL     1      20.242   3.669  52.024  1.00  0.00    -0.364 N 
HETATM   12  C10 UNL     1      21.545   3.659  51.252  1.00  0.00     0.423 C 
HETATM   13  H7  UNL     1      19.392   3.696  52.532  1.00  0.00     0.162 HD
HETATM   14  N2  UNL     1      22.330   2.677  51.414  1.00  0.00    -0.376 NA
HETATM   15  C11 UNL     1      23.577   2.317  50.903  1.00  0.00     0.254 C 
HETATM   16  N3  UNL     1      24.423   1.824  51.587  1.00  0.00    -0.444 NA
HETATM   17  C12 UNL     1      25.543   1.268  52.090  1.00  0.00     0.151 C 
HETATM   18  C13 UNL     1      24.932   0.544  52.992  1.00  0.00     0.167 C 
HETATM   19  C14 UNL     1      25.285  -0.432  54.059  1.00  0.00     0.083 C 
HETATM   20  C17 UNL     1      24.183  -0.864  54.692  1.00  0.00     0.076 C 
HETATM   21  C18 UNL     1      22.802  -1.118  55.152  1.00  0.00     0.094 C 
HETATM   22  C19 UNL     1      21.770  -0.474  54.249  1.00  0.00    -0.019 C 
BRANCH  19  23
HETATM   23  O1  UNL     1      26.555  -0.900  54.430  1.00  0.00    -0.350 OA
BRANCH  23  24
HETATM   24  C15 UNL     1      27.745  -0.656  53.757  1.00  0.00     0.201 C 
BRANCH  24  25
HETATM   25  C16 UNL     1      28.763   0.090  54.619  1.00  0.00     0.190 C 
BRANCH  25  26
HETATM   26  O2  UNL     1      28.298   1.397  54.853  1.00  0.00    -0.399 OA
HETATM   27  H16 UNL     1      27.616   1.404  55.573  1.00  0.00     0.209 HD
ENDBRANCH  25  26
ENDBRANCH  24  25
ENDBRANCH  23  24
ENDBRANCH  19  23
BRANCH  20  28
HETATM   28  O3  UNL     1      24.750  -1.754  55.635  1.00  0.00    -0.362 OA
HETATM   29  H17 UNL     1      24.163  -2.219  56.333  1.00  0.00     0.217 HD
ENDBRANCH  20  28
ENDBRANCH   3   4
TORSDOF 6
ENDMDL
MODEL 3
REMARK VINA RESULT:      -7.4      5.181      8.914
REMARK  6 active torsions:
REMARK  status: ('A' for Active; 'I' for Inactive)
REMARK    1  A    between atoms: C3_3  and  C4_4 
REMARK    2  A    between atoms: C14_17  and  O1_18 
REMARK    3  A    between atoms: O1_18  and  C15_19 
REMARK    4  A    between atoms: C15_19  and  C16_20 
REMARK    5  A    between atoms: C16_20  and  O2_21 
REMARK    6  A    between atoms: C17_22  and  O3_23 
ROOT
HETATM    1  C1  UNL     1      24.244  -0.508  53.895  1.00  0.00     0.012 C 
HETATM    2  C2  UNL     1      23.927   0.220  52.968  1.00  0.00    -0.113 C 
HETATM    3  C3  UNL     1      23.531   1.077  51.881  1.00  0.00     0.131 C 
ENDROOT
BRANCH   3   4
HETATM    4  C4  UNL     1      22.139   0.927  51.443  1.00  0.00    -0.044 A 
HETATM    5  C5  UNL     1      21.094   0.312  52.201  1.00  0.00     0.019 A 
HETATM    6  C6  UNL     1      20.054   0.543  51.236  1.00  0.00    -0.034 A 
HETATM    7  C7  UNL     1      19.377   0.827  50.325  1.00  0.00     0.040 A 
HETATM    8  C20 UNL     1      18.926   0.004  52.121  1.00  0.00     0.008 C 
HETATM    9  C8  UNL     1      20.526   1.411  49.679  1.00  0.00     0.031 A 
HETATM   10  C9  UNL     1      21.845   1.480  50.164  1.00  0.00     0.037 A 
HETATM   11  N1  UNL     1      20.013   2.024  48.405  1.00  0.00    -0.364 N 
HETATM   12  C10 UNL     1      19.290   3.306  48.763  1.00  0.00     0.423 C 
HETATM   13  H7  UNL     1      20.482   1.189  48.150  1.00  0.00     0.162 HD
HETATM   14  N2  UNL     1      18.542   3.305  49.786  1.00  0.00    -0.376 NA
HETATM   15  C11 UNL     1      17.735   4.252  50.418  1.00  0.00     0.254 C 
HETATM   16  N3  UNL     1      16.663   3.975  50.865  1.00  0.00    -0.444 NA
HETATM   17  C12 UNL     1      15.448   3.967  51.448  1.00  0.00     0.151 C 
HETATM   18  C13 UNL     1      15.517   2.729  51.867  1.00  0.00     0.167 C 
HETATM   19  C14 UNL     1      14.675   1.766  52.628  1.00  0.00     0.083 C 
HETATM   20  C17 UNL     1      15.300   0.584  52.754  1.00  0.00     0.076 C 
HETATM   21  C18 UNL     1      16.252  -0.544  52.708  1.00  0.00     0.094 C 
HETATM   22  C19 UNL     1      17.596  -0.137  52.138  1.00  0.00    -0.019 C 
BRANCH  19  23
HETATM   23  O1  UNL     1      13.398   1.963  53.177  1.00  0.00    -0.350 OA
BRANCH  23  24
HETATM   24  C15 UNL     1      12.429   2.835  52.697  1.00  0.00     0.201 C 
BRANCH  24  25
HETATM   25  C16 UNL     1      12.270   4.075  53.575  1.00  0.00     0.190 C 
BRANCH  25  26
HETATM   26  O2  UNL     1      12.069   5.198  52.752  1.00  0.00    -0.399 OA
HETATM   27  H16 UNL     1      12.931   5.652  52.560  1.00  0.00     0.209 HD
ENDBRANCH  25  26
ENDBRANCH  24  25
ENDBRANCH  23  24
ENDBRANCH  19  23
BRANCH  20  28
HETATM   28  O3  UNL     1      14.338  -0.148  53.489  1.00  0.00    -0.362 OA
HETATM   29  H17 UNL     1      13.337   0.019  53.351  1.00  0.00     0.217 HD
ENDBRANCH  20  28
ENDBRANCH   3   4
TORSDOF 6
ENDMDL
MODEL 4
REMARK VINA RESULT:      -7.3      3.533      5.114
REMARK  6 active torsions:
REMARK  status: ('A' for Active; 'I' for Inactive)
REMARK    1  A    between atoms: C3_3  and  C4_4 
REMARK    2  A    between atoms: C14_17  and  O1_18 
REMARK    3  A    between atoms: O1_18  and  C15_19 
REMARK    4  A    between atoms: C15_19  and  C16_20 
REMARK    5  A    between atoms: C16_20  and  O2_21 
REMARK    6  A    between atoms: C17_22  and  O3_23 
ROOT
HETATM    1  C1  UNL     1      20.116   5.664  44.583  1.00  0.00     0.012 C 
HETATM    2  C2  UNL     1      20.844   4.754  44.945  1.00  0.00    -0.113 C 
HETATM    3  C3  UNL     1      21.694   3.683  45.394  1.00  0.00     0.131 C 
ENDROOT
BRANCH   3   4
HETATM    4  C4  UNL     1      22.024   3.705  46.823  1.00  0.00    -0.044 A 
HETATM    5  C5  UNL     1      21.797   2.633  47.743  1.00  0.00     0.019 A 
HETATM    6  C6  UNL     1      22.368   3.293  48.885  1.00  0.00    -0.034 A 
HETATM    7  C7  UNL     1      22.867   4.005  49.668  1.00  0.00     0.040 A 
HETATM    8  C20 UNL     1      22.239   2.084  49.817  1.00  0.00     0.008 C 
HETATM    9  C8  UNL     1      23.032   4.994  48.632  1.00  0.00     0.031 A 
HETATM   10  C9  UNL     1      22.648   4.900  47.281  1.00  0.00     0.037 A 
HETATM   11  N1  UNL     1      23.786   6.131  49.266  1.00  0.00    -0.364 N 
HETATM   12  C10 UNL     1      25.235   5.712  49.398  1.00  0.00     0.423 C 
HETATM   13  H7  UNL     1      22.842   6.424  49.189  1.00  0.00     0.162 HD
HETATM   14  N2  UNL     1      25.484   4.527  49.773  1.00  0.00    -0.376 NA
HETATM   15  C11 UNL     1      26.646   3.791  50.008  1.00  0.00     0.254 C 
HETATM   16  N3  UNL     1      26.745   3.042  50.933  1.00  0.00    -0.444 NA
HETATM   17  C12 UNL     1      27.146   2.149  51.860  1.00  0.00     0.151 C 
HETATM   18  C13 UNL     1      25.956   1.649  52.077  1.00  0.00     0.167 C 
HETATM   19  C14 UNL     1      25.332   0.598  52.925  1.00  0.00     0.083 C 
HETATM   20  C17 UNL     1      24.008   0.536  52.709  1.00  0.00     0.076 C 
HETATM   21  C18 UNL     1      22.625   0.735  52.231  1.00  0.00     0.094 C 
HETATM   22  C19 UNL     1      22.555   1.688  51.056  1.00  0.00    -0.019 C 
BRANCH  19  23
HETATM   23  O1  UNL     1      25.947  -0.259  53.851  1.00  0.00    -0.350 OA
BRANCH  23  24
HETATM   24  C15 UNL     1      26.674   0.131  54.968  1.00  0.00     0.201 C 
BRANCH  24  25
HETATM   25  C16 UNL     1      28.179  -0.061  54.785  1.00  0.00     0.190 C 
BRANCH  25  26
HETATM   26  O2  UNL     1      28.401  -1.073  53.835  1.00  0.00    -0.399 OA
HETATM   27  H16 UNL     1      29.298  -1.479  53.957  1.00  0.00     0.209 HD
ENDBRANCH  25  26
ENDBRANCH  24  25
ENDBRANCH  23  24
ENDBRANCH  19  23
BRANCH  20  28
HETATM   28  O3  UNL     1      23.641  -0.501  53.598  1.00  0.00    -0.362 OA
HETATM   29  H17 UNL     1      23.877  -1.476  53.391  1.00  0.00     0.217 HD
ENDBRANCH  20  28
ENDBRANCH   3   4
TORSDOF 6
ENDMDL
MODEL 5
REMARK VINA RESULT:      -7.0      3.666      5.183
REMARK  6 active torsions:
REMARK  status: ('A' for Active; 'I' for Inactive)
REMARK    1  A    between atoms: C3_3  and  C4_4 
REMARK    2  A    between atoms: C14_17  and  O1_18 
REMARK    3  A    between atoms: O1_18  and  C15_19 
REMARK    4  A    between atoms: C15_19  and  C16_20 
REMARK    5  A    between atoms: C16_20  and  O2_21 
REMARK    6  A    between atoms: C17_22  and  O3_23 
ROOT
HETATM    1  C1  UNL     1      18.882   9.318  48.880  1.00  0.00     0.012 C 
HETATM    2  C2  UNL     1      19.185   8.144  48.739  1.00  0.00    -0.113 C 
HETATM    3  C3  UNL     1      19.548   6.758  48.597  1.00  0.00     0.131 C 
ENDROOT
BRANCH   3   4
HETATM    4  C4  UNL     1      20.465   6.244  49.619  1.00  0.00    -0.044 A 
HETATM    5  C5  UNL     1      20.394   4.949  50.221  1.00  0.00     0.019 A 
HETATM    6  C6  UNL     1      21.559   5.104  51.048  1.00  0.00    -0.034 A 
HETATM    7  C7  UNL     1      22.518   5.440  51.627  1.00  0.00     0.040 A 
HETATM    8  C20 UNL     1      21.542   3.665  51.576  1.00  0.00     0.008 C 
HETATM    9  C8  UNL     1      22.463   6.707  50.940  1.00  0.00     0.031 A 
HETATM   10  C9  UNL     1      21.515   7.132  49.990  1.00  0.00     0.037 A 
HETATM   11  N1  UNL     1      23.687   7.465  51.377  1.00  0.00    -0.364 N 
HETATM   12  C10 UNL     1      24.880   6.878  50.653  1.00  0.00     0.423 C 
HETATM   13  H7  UNL     1      22.918   7.863  51.860  1.00  0.00     0.162 HD
HETATM   14  N2  UNL     1      24.950   5.618  50.538  1.00  0.00    -0.376 NA
HETATM   15  C11 UNL     1      25.859   4.729  49.963  1.00  0.00     0.254 C 
HETATM   16  N3  UNL     1      26.156   3.698  50.487  1.00  0.00    -0.444 NA
HETATM   17  C12 UNL     1      26.674   2.501  50.826  1.00  0.00     0.151 C 
HETATM   18  C13 UNL     1      25.616   2.083  51.473  1.00  0.00     0.167 C 
HETATM   19  C14 UNL     1      25.178   0.873  52.220  1.00  0.00     0.083 C 
HETATM   20  C17 UNL     1      23.930   1.029  52.688  1.00  0.00     0.076 C 
HETATM   21  C18 UNL     1      22.582   1.525  53.036  1.00  0.00     0.094 C 
HETATM   22  C19 UNL     1      22.255   2.831  52.341  1.00  0.00    -0.019 C 
BRANCH  19  23
HETATM   23  O1  UNL     1      25.890  -0.313  52.459  1.00  0.00    -0.350 OA
BRANCH  23  24
HETATM   24  C15 UNL     1      27.091  -0.420  53.148  1.00  0.00     0.201 C 
BRANCH  24  25
HETATM   25  C16 UNL     1      27.013   0.162  54.559  1.00  0.00     0.190 C 
BRANCH  25  26
HETATM   26  O2  UNL     1      28.297   0.569  54.960  1.00  0.00    -0.399 OA
HETATM   27  H16 UNL     1      28.895  -0.214  55.074  1.00  0.00     0.209 HD
ENDBRANCH  25  26
ENDBRANCH  24  25
ENDBRANCH  23  24
ENDBRANCH  19  23
BRANCH  20  28
HETATM   28  O3  UNL     1      23.734  -0.210  53.343  1.00  0.00    -0.362 OA
HETATM   29  H17 UNL     1      24.355  -1.003  53.158  1.00  0.00     0.217 HD
ENDBRANCH  20  28
ENDBRANCH   3   4
TORSDOF 6
ENDMDL
MODEL 6
REMARK VINA RESULT:      -6.8      2.837      5.178
REMARK  6 active torsions:
REMARK  status: ('A' for Active; 'I' for Inactive)
REMARK    1  A    between atoms: C3_3  and  C4_4 
REMARK    2  A    between atoms: C14_17  and  O1_18 
REMARK    3  A    between atoms: O1_18  and  C15_19 
REMARK    4  A    between atoms: C15_19  and  C16_20 
REMARK    5  A    between atoms: C16_20  and  O2_21 
REMARK    6  A    between atoms: C17_22  and  O3_23 
ROOT
HETATM    1  C1  UNL     1      19.243   6.972  46.681  1.00  0.00     0.012 C 
HETATM    2  C2  UNL     1      19.594   6.648  47.804  1.00  0.00    -0.113 C 
HETATM    3  C3  UNL     1      20.028   6.257  49.120  1.00  0.00     0.131 C 
ENDROOT
BRANCH   3   4
HETATM    4  C4  UNL     1      20.998   5.158  49.156  1.00  0.00    -0.044 A 
HETATM    5  C5  UNL     1      22.364   5.272  49.566  1.00  0.00     0.019 A 
HETATM    6  C6  UNL     1      22.685   3.880  49.402  1.00  0.00    -0.034 A 
HETATM    7  C7  UNL     1      22.728   2.729  49.199  1.00  0.00     0.040 A 
HETATM    8  C20 UNL     1      24.102   4.001  49.974  1.00  0.00     0.008 C 
HETATM    9  C8  UNL     1      21.339   2.767  48.812  1.00  0.00     0.031 A 
HETATM   10  C9  UNL     1      20.486   3.886  48.773  1.00  0.00     0.037 A 
HETATM   11  N1  UNL     1      20.949   1.340  48.540  1.00  0.00    -0.364 N 
HETATM   12  C10 UNL     1      20.783   0.641  49.873  1.00  0.00     0.423 C 
HETATM   13  H7  UNL     1      21.052   1.780  47.658  1.00  0.00     0.162 HD
HETATM   14  N2  UNL     1      21.631   0.880  50.784  1.00  0.00    -0.376 NA
HETATM   15  C11 UNL     1      21.815   0.447  52.097  1.00  0.00     0.254 C 
HETATM   16  N3  UNL     1      22.897   0.200  52.537  1.00  0.00    -0.444 NA
HETATM   17  C12 UNL     1      23.957  -0.147  53.295  1.00  0.00     0.151 C 
HETATM   18  C13 UNL     1      24.802   0.665  52.711  1.00  0.00     0.167 C 
HETATM   19  C14 UNL     1      26.237   1.042  52.822  1.00  0.00     0.083 C 
HETATM   20  C17 UNL     1      26.556   1.973  51.910  1.00  0.00     0.076 C 
HETATM   21  C18 UNL     1      26.554   2.968  50.818  1.00  0.00     0.094 C 
HETATM   22  C19 UNL     1      25.158   3.248  50.300  1.00  0.00    -0.019 C 
BRANCH  19  23
HETATM   23  O1  UNL     1      27.203   0.553  53.716  1.00  0.00    -0.350 OA
BRANCH  23  24
HETATM   24  C15 UNL     1      28.041  -0.533  53.500  1.00  0.00     0.201 C 
BRANCH  24  25
HETATM   25  C16 UNL     1      29.391  -0.381  54.201  1.00  0.00     0.190 C 
BRANCH  25  26
HETATM   26  O2  UNL     1      30.267   0.329  53.361  1.00  0.00    -0.399 OA
HETATM   27  H16 UNL     1      30.655   1.109  53.836  1.00  0.00     0.209 HD
ENDBRANCH  25  26
ENDBRANCH  24  25
ENDBRANCH  23  24
ENDBRANCH  19  23
BRANCH  20  28
HETATM   28  O3  UNL     1      27.928   2.168  52.198  1.00  0.00    -0.362 OA
HETATM   29  H17 UNL     1      28.375   3.072  52.023  1.00  0.00     0.217 HD
ENDBRANCH  20  28
ENDBRANCH   3   4
TORSDOF 6
ENDMDL
MODEL 7
REMARK VINA RESULT:      -6.8     11.688     15.359
REMARK  6 active torsions:
REMARK  status: ('A' for Active; 'I' for Inactive)
REMARK    1  A    between atoms: C3_3  and  C4_4 
REMARK    2  A    between atoms: C14_17  and  O1_18 
REMARK    3  A    between atoms: O1_18  and  C15_19 
REMARK    4  A    between atoms: C15_19  and  C16_20 
REMARK    5  A    between atoms: C16_20  and  O2_21 
REMARK    6  A    between atoms: C17_22  and  O3_23 
ROOT
HETATM    1  C1  UNL     1      34.314   2.065  40.070  1.00  0.00     0.012 C 
HETATM    2  C2  UNL     1      33.657   3.087  40.186  1.00  0.00    -0.113 C 
HETATM    3  C3  UNL     1      32.899   4.301  40.339  1.00  0.00     0.131 C 
ENDROOT
BRANCH   3   4
HETATM    4  C4  UNL     1      33.110   5.015  41.603  1.00  0.00    -0.044 A 
HETATM    5  C5  UNL     1      32.448   6.220  41.994  1.00  0.00     0.019 A 
HETATM    6  C6  UNL     1      33.071   6.320  43.287  1.00  0.00    -0.034 A 
HETATM    7  C7  UNL     1      33.687   6.207  44.275  1.00  0.00     0.040 A 
HETATM    8  C20 UNL     1      32.250   7.532  43.739  1.00  0.00     0.008 C 
HETATM    9  C8  UNL     1      34.274   5.001  43.747  1.00  0.00     0.031 A 
HETATM   10  C9  UNL     1      34.037   4.403  42.495  1.00  0.00     0.037 A 
HETATM   11  N1  UNL     1      35.137   4.448  44.848  1.00  0.00    -0.364 N 
HETATM   12  C10 UNL     1      34.227   3.813  45.878  1.00  0.00     0.423 C 
HETATM   13  H7  UNL     1      35.750   4.858  44.185  1.00  0.00     0.162 HD
HETATM   14  N2  UNL     1      33.156   4.418  46.184  1.00  0.00    -0.376 NA
HETATM   15  C11 UNL     1      32.098   4.167  47.059  1.00  0.00     0.254 C 
HETATM   16  N3  UNL     1      31.598   5.032  47.713  1.00  0.00    -0.444 NA
HETATM   17  C12 UNL     1      30.852   5.773  48.556  1.00  0.00     0.151 C 
HETATM   18  C13 UNL     1      30.918   6.873  47.850  1.00  0.00     0.167 C 
HETATM   19  C14 UNL     1      30.413   8.271  47.923  1.00  0.00     0.083 C 
HETATM   20  C17 UNL     1      30.826   8.982  46.862  1.00  0.00     0.076 C 
HETATM   21  C18 UNL     1      31.436   9.448  45.600  1.00  0.00     0.094 C 
HETATM   22  C19 UNL     1      32.051   8.312  44.808  1.00  0.00    -0.019 C 
BRANCH  19  23
HETATM   23  O1  UNL     1      29.615   8.863  48.915  1.00  0.00    -0.350 OA
BRANCH  23  24
HETATM   24  C15 UNL     1      28.309   8.511  49.230  1.00  0.00     0.201 C 
BRANCH  24  25
HETATM   25  C16 UNL     1      27.503   9.685  49.784  1.00  0.00     0.190 C 
BRANCH  25  26
HETATM   26  O2  UNL     1      27.591   9.681  51.188  1.00  0.00    -0.399 OA
HETATM   27  H16 UNL     1      27.232  10.526  51.565  1.00  0.00     0.209 HD
ENDBRANCH  25  26
ENDBRANCH  24  25
ENDBRANCH  23  24
ENDBRANCH  19  23
BRANCH  20  28
HETATM   28  O3  UNL     1      30.243  10.240  47.141  1.00  0.00    -0.362 OA
HETATM   29  H17 UNL     1      29.277  10.442  46.866  1.00  0.00     0.217 HD
ENDBRANCH  20  28
ENDBRANCH   3   4
TORSDOF 6
ENDMDL
MODEL 8
REMARK VINA RESULT:      -6.7      4.718      7.820
REMARK  6 active torsions:
REMARK  status: ('A' for Active; 'I' for Inactive)
REMARK    1  A    between atoms: C3_3  and  C4_4 
REMARK    2  A    between atoms: C14_17  and  O1_18 
REMARK    3  A    between atoms: O1_18  and  C15_19 
REMARK    4  A    between atoms: C15_19  and  C16_20 
REMARK    5  A    between atoms: C16_20  and  O2_21 
REMARK    6  A    between atoms: C17_22  and  O3_23 
ROOT
HETATM    1  C1  UNL     1      27.125  -1.645  52.194  1.00  0.00     0.012 C 
HETATM    2  C2  UNL     1      26.356  -1.198  53.030  1.00  0.00    -0.113 C 
HETATM    3  C3  UNL     1      25.435  -0.663  53.999  1.00  0.00     0.131 C 
ENDROOT
BRANCH   3   4
HETATM    4  C4  UNL     1      24.537   0.382  53.496  1.00  0.00    -0.044 A 
HETATM    5  C5  UNL     1      24.880   1.762  53.339  1.00  0.00     0.019 A 
HETATM    6  C6  UNL     1      23.613   2.169  52.793  1.00  0.00    -0.034 A 
HETATM    7  C7  UNL     1      22.525   2.277  52.378  1.00  0.00     0.040 A 
HETATM    8  C20 UNL     1      24.046   3.610  52.506  1.00  0.00     0.008 C 
HETATM    9  C8  UNL     1      22.324   0.865  52.592  1.00  0.00     0.031 A 
HETATM   10  C9  UNL     1      23.240  -0.065  53.119  1.00  0.00     0.037 A 
HETATM   11  N1  UNL     1      20.954   0.559  52.052  1.00  0.00    -0.364 N 
HETATM   12  C10 UNL     1      21.044   0.537  50.540  1.00  0.00     0.423 C 
HETATM   13  H7  UNL     1      20.875   0.568  53.040  1.00  0.00     0.162 HD
HETATM   14  N2  UNL     1      21.742   1.429  49.970  1.00  0.00    -0.376 NA
HETATM   15  C11 UNL     1      22.058   1.735  48.646  1.00  0.00     0.254 C 
HETATM   16  N3  UNL     1      22.100   2.861  48.249  1.00  0.00    -0.444 NA
HETATM   17  C12 UNL     1      22.222   3.993  47.528  1.00  0.00     0.151 C 
HETATM   18  C13 UNL     1      22.633   4.735  48.525  1.00  0.00     0.167 C 
HETATM   19  C14 UNL     1      23.046   6.144  48.764  1.00  0.00     0.083 C 
HETATM   20  C17 UNL     1      23.376   6.332  50.051  1.00  0.00     0.076 C 
HETATM   21  C18 UNL     1      23.659   6.183  51.493  1.00  0.00     0.094 C 
HETATM   22  C19 UNL     1      23.597   4.737  51.943  1.00  0.00    -0.019 C 
BRANCH  19  23
HETATM   23  O1  UNL     1      23.116   7.203  47.845  1.00  0.00    -0.350 OA
BRANCH  23  24
HETATM   24  C15 UNL     1      23.583   7.123  46.539  1.00  0.00     0.201 C 
BRANCH  24  25
HETATM   25  C16 UNL     1      24.733   8.091  46.267  1.00  0.00     0.190 C 
BRANCH  25  26
HETATM   26  O2  UNL     1      25.798   7.795  47.137  1.00  0.00    -0.399 OA
HETATM   27  H16 UNL     1      26.079   8.605  47.636  1.00  0.00     0.209 HD
ENDBRANCH  25  26
ENDBRANCH  24  25
ENDBRANCH  23  24
ENDBRANCH  19  23
BRANCH  20  28
HETATM   28  O3  UNL     1      23.724   7.703  50.039  1.00  0.00    -0.362 OA
HETATM   29  H17 UNL     1      24.675   8.003  50.273  1.00  0.00     0.217 HD
ENDBRANCH  20  28
ENDBRANCH   3   4
TORSDOF 6
ENDMDL
MODEL 9
REMARK VINA RESULT:      -6.6      3.612      7.027
REMARK  6 active torsions:
REMARK  status: ('A' for Active; 'I' for Inactive)
REMARK    1  A    between atoms: C3_3  and  C4_4 
REMARK    2  A    between atoms: C14_17  and  O1_18 
REMARK    3  A    between atoms: O1_18  and  C15_19 
REMARK    4  A    between atoms: C15_19  and  C16_20 
REMARK    5  A    between atoms: C16_20  and  O2_21 
REMARK    6  A    between atoms: C17_22  and  O3_23 
ROOT
HETATM    1  C1  UNL     1      25.346   9.463  46.772  1.00  0.00     0.012 C 
HETATM    2  C2  UNL     1      25.129   8.992  47.877  1.00  0.00    -0.113 C 
HETATM    3  C3  UNL     1      24.882   8.416  49.173  1.00  0.00     0.131 C 
ENDROOT
BRANCH   3   4
HETATM    4  C4  UNL     1      24.737   6.956  49.190  1.00  0.00    -0.044 A 
HETATM    5  C5  UNL     1      25.564   6.051  49.926  1.00  0.00     0.019 A 
HETATM    6  C6  UNL     1      24.864   4.857  49.534  1.00  0.00    -0.034 A 
HETATM    7  C7  UNL     1      24.162   4.032  49.093  1.00  0.00     0.040 A 
HETATM    8  C20 UNL     1      25.676   3.923  50.436  1.00  0.00     0.008 C 
HETATM    9  C8  UNL     1      23.418   5.059  48.408  1.00  0.00     0.031 A 
HETATM   10  C9  UNL     1      23.653   6.447  48.420  1.00  0.00     0.037 A 
HETATM   11  N1  UNL     1      22.270   4.356  47.737  1.00  0.00    -0.364 N 
HETATM   12  C10 UNL     1      21.245   4.020  48.801  1.00  0.00     0.423 C 
HETATM   13  H7  UNL     1      22.928   4.568  47.027  1.00  0.00     0.162 HD
HETATM   14  N2  UNL     1      21.661   3.586  49.917  1.00  0.00    -0.376 NA
HETATM   15  C11 UNL     1      21.053   3.179  51.104  1.00  0.00     0.254 C 
HETATM   16  N3  UNL     1      21.438   2.231  51.720  1.00  0.00    -0.444 NA
HETATM   17  C12 UNL     1      21.636   1.237  52.610  1.00  0.00     0.151 C 
HETATM   18  C13 UNL     1      22.932   1.171  52.440  1.00  0.00     0.167 C 
HETATM   19  C14 UNL     1      24.082   0.390  52.969  1.00  0.00     0.083 C 
HETATM   20  C17 UNL     1      25.229   0.782  52.392  1.00  0.00     0.076 C 
HETATM   21  C18 UNL     1      26.271   1.447  51.583  1.00  0.00     0.094 C 
HETATM   22  C19 UNL     1      25.731   2.644  50.826  1.00  0.00    -0.019 C 
BRANCH  19  23
HETATM   23  O1  UNL     1      24.078  -0.630  53.933  1.00  0.00    -0.350 OA
BRANCH  23  24
HETATM   24  C15 UNL     1      23.061  -0.891  54.843  1.00  0.00     0.201 C 
BRANCH  24  25
HETATM   25  C16 UNL     1      22.013  -1.856  54.290  1.00  0.00     0.190 C 
BRANCH  25  26
HETATM   26  O2  UNL     1      20.793  -1.642  54.957  1.00  0.00    -0.399 OA
HETATM   27  H16 UNL     1      20.238  -2.465  54.947  1.00  0.00     0.209 HD
ENDBRANCH  25  26
ENDBRANCH  24  25
ENDBRANCH  23  24
ENDBRANCH  19  23
BRANCH  20  28
HETATM   28  O3  UNL     1      26.155  -0.075  53.032  1.00  0.00    -0.362 OA
HETATM   29  H17 UNL     1      26.206  -1.068  52.786  1.00  0.00     0.217 HD
ENDBRANCH  20  28
ENDBRANCH   3   4
TORSDOF 6
ENDMDL
