MODEL 1
REMARK VINA RESULT:      -7.6      0.000      0.000
REMARK  4 active torsions:
REMARK  status: ('A' for Active; 'I' for Inactive)
REMARK    1  A    between atoms: C1_2  and  C8_11 
REMARK    2  A    between atoms: C2_3  and  C3_4 
REMARK    3  A    between atoms: C3_4  and  N1_5 
REMARK    4  A    between atoms: C9_12  and  C10_13 
ROOT
HETATM    1  C8  UNL     1      22.946   1.540  51.052  1.00  0.00     0.011 A 
HETATM    2  C9  UNL     1      21.907   0.818  51.437  1.00  0.00     0.090 A 
HETATM    3  O3  UNL     1      20.812   0.703  50.611  1.00  0.00    -0.322 OA
HETATM    4  C15 UNL     1      20.633   1.267  49.369  1.00  0.00     0.139 A 
HETATM    5  C16 UNL     1      21.687   1.970  49.044  1.00  0.00     0.002 A 
HETATM    6  C17 UNL     1      22.931   2.243  49.719  1.00  0.00     0.073 A 
ENDROOT
BRANCH   1   7
HETATM    7  C1  UNL     1      24.122   1.694  51.883  1.00  0.00     0.079 A 
HETATM    8  O1  UNL     1      25.113   1.984  51.125  1.00  0.00    -0.347 OA
HETATM    9  C2  UNL     1      25.319   1.855  52.686  1.00  0.00     0.229 A 
BRANCH   9  10
HETATM   10  C3  UNL     1      26.586   2.222  51.959  1.00  0.00     0.148 C 
BRANCH  10  11
HETATM   11  N1  UNL     1      27.701   1.630  52.658  1.00  0.00    -0.406 N 
HETATM   12  C4  UNL     1      28.403   2.476  53.542  1.00  0.00     0.143 C 
HETATM   13  C5  UNL     1      29.395   1.722  54.423  1.00  0.00     0.187 C 
HETATM   14  O2  UNL     1      28.646   0.816  55.167  1.00  0.00    -0.388 OA
HETATM   15  C6  UNL     1      28.201  -0.170  54.294  1.00  0.00     0.187 C 
HETATM   16  C7  UNL     1      27.454   0.304  53.110  1.00  0.00     0.143 C 
ENDBRANCH  10  11
ENDBRANCH   9  10
ENDBRANCH   1   7
BRANCH   2  17
HETATM   17  C10 UNL     1      21.843   0.124  52.703  1.00  0.00    -0.020 A 
HETATM   18  C11 UNL     1      21.207   0.542  53.771  1.00  0.00     0.010 A 
HETATM   19  C12 UNL     1      21.272  -0.297  54.908  1.00  0.00    -0.003 A 
HETATM   20  C13 UNL     1      22.020  -1.340  54.515  1.00  0.00    -0.022 A 
HETATM   21  C14 UNL     1      22.456  -1.180  53.087  1.00  0.00     0.068 A 
ENDBRANCH   2  17
TORSDOF 4
ENDMDL
MODEL 2
REMARK VINA RESULT:      -7.6      2.760      5.364
REMARK  4 active torsions:
REMARK  status: ('A' for Active; 'I' for Inactive)
REMARK    1  A    between atoms: C1_2  and  C8_11 
REMARK    2  A    between atoms: C2_3  and  C3_4 
REMARK    3  A    between atoms: C3_4  and  N1_5 
REMARK    4  A    between atoms: C9_12  and  C10_13 
ROOT
HETATM    1  C8  UNL     1      23.891   0.299  53.280  1.00  0.00     0.011 A 
HETATM    2  C9  UNL     1      24.685  -0.422  54.053  1.00  0.00     0.090 A 
HETATM    3  O3  UNL     1      24.143  -1.212  55.041  1.00  0.00    -0.322 OA
HETATM    4  C15 UNL     1      22.814  -1.365  55.360  1.00  0.00     0.139 A 
HETATM    5  C16 UNL     1      22.079  -0.628  54.568  1.00  0.00     0.002 A 
HETATM    6  C17 UNL     1      22.398   0.268  53.484  1.00  0.00     0.073 A 
ENDROOT
BRANCH   1   7
HETATM    7  C1  UNL     1      24.411   1.148  52.227  1.00  0.00     0.079 A 
HETATM    8  O1  UNL     1      24.103   2.360  52.502  1.00  0.00    -0.347 OA
HETATM    9  C2  UNL     1      24.916   2.026  51.190  1.00  0.00     0.229 A 
BRANCH   9  10
HETATM   10  C3  UNL     1      24.665   3.501  51.360  1.00  0.00     0.148 C 
BRANCH  10  11
HETATM   11  N1  UNL     1      25.092   4.178  50.159  1.00  0.00    -0.406 N 
HETATM   12  C4  UNL     1      24.862   5.569  50.112  1.00  0.00     0.143 C 
HETATM   13  C5  UNL     1      25.560   6.247  48.937  1.00  0.00     0.187 C 
HETATM   14  O2  UNL     1      26.922   6.022  49.111  1.00  0.00    -0.388 OA
HETATM   15  C6  UNL     1      27.155   4.673  48.868  1.00  0.00     0.187 C 
HETATM   16  C7  UNL     1      26.345   3.725  49.662  1.00  0.00     0.143 C 
ENDBRANCH  10  11
ENDBRANCH   9  10
ENDBRANCH   1   7
BRANCH   2  17
HETATM   17  C10 UNL     1      26.125  -0.436  53.925  1.00  0.00    -0.020 A 
HETATM   18  C11 UNL     1      26.966   0.201  54.704  1.00  0.00     0.010 A 
HETATM   19  C12 UNL     1      28.340   0.049  54.401  1.00  0.00    -0.003 A 
HETATM   20  C13 UNL     1      28.361  -0.761  53.331  1.00  0.00    -0.022 A 
HETATM   21  C14 UNL     1      26.969  -1.148  52.923  1.00  0.00     0.068 A 
ENDBRANCH   2  17
TORSDOF 4
ENDMDL
MODEL 3
REMARK VINA RESULT:      -7.4      2.193      4.243
REMARK  4 active torsions:
REMARK  status: ('A' for Active; 'I' for Inactive)
REMARK    1  A    between atoms: C1_2  and  C8_11 
REMARK    2  A    between atoms: C2_3  and  C3_4 
REMARK    3  A    between atoms: C3_4  and  N1_5 
REMARK    4  A    between atoms: C9_12  and  C10_13 
ROOT
HETATM    1  C8  UNL     1      23.287   2.118  50.505  1.00  0.00     0.011 A 
HETATM    2  C9  UNL     1      23.666   2.740  49.402  1.00  0.00     0.090 A 
HETATM    3  O3  UNL     1      22.912   2.618  48.257  1.00  0.00    -0.322 OA
HETATM    4  C15 UNL     1      21.752   1.897  48.086  1.00  0.00     0.139 A 
HETATM    5  C16 UNL     1      21.430   1.303  49.205  1.00  0.00     0.002 A 
HETATM    6  C17 UNL     1      22.041   1.270  50.511  1.00  0.00     0.073 A 
ENDROOT
BRANCH   1   7
HETATM    7  C1  UNL     1      24.045   2.212  51.736  1.00  0.00     0.079 A 
HETATM    8  O1  UNL     1      24.342   1.025  52.114  1.00  0.00    -0.347 OA
HETATM    9  C2  UNL     1      24.806   2.269  52.969  1.00  0.00     0.229 A 
BRANCH   9  10
HETATM   10  C3  UNL     1      25.263   0.959  53.553  1.00  0.00     0.148 C 
BRANCH  10  11
HETATM   11  N1  UNL     1      26.568   1.151  54.139  1.00  0.00    -0.406 N 
HETATM   12  C4  UNL     1      27.308  -0.019  54.409  1.00  0.00     0.143 C 
HETATM   13  C5  UNL     1      28.758   0.269  54.787  1.00  0.00     0.187 C 
HETATM   14  O2  UNL     1      29.324   0.916  53.693  1.00  0.00    -0.388 OA
HETATM   15  C6  UNL     1      28.766   2.188  53.628  1.00  0.00     0.187 C 
HETATM   16  C7  UNL     1      27.289   2.244  53.584  1.00  0.00     0.143 C 
ENDBRANCH  10  11
ENDBRANCH   9  10
ENDBRANCH   1   7
BRANCH   2  17
HETATM   17  C10 UNL     1      24.852   3.561  49.316  1.00  0.00    -0.020 A 
HETATM   18  C11 UNL     1      24.869   4.864  49.167  1.00  0.00     0.010 A 
HETATM   19  C12 UNL     1      26.145   5.471  49.107  1.00  0.00    -0.003 A 
HETATM   20  C13 UNL     1      27.010   4.453  49.230  1.00  0.00    -0.022 A 
HETATM   21  C14 UNL     1      26.283   3.146  49.373  1.00  0.00     0.068 A 
ENDBRANCH   2  17
TORSDOF 4
ENDMDL
MODEL 4
REMARK VINA RESULT:      -7.3      1.510      3.574
REMARK  4 active torsions:
REMARK  status: ('A' for Active; 'I' for Inactive)
REMARK    1  A    between atoms: C1_2  and  C8_11 
REMARK    2  A    between atoms: C2_3  and  C3_4 
REMARK    3  A    between atoms: C3_4  and  N1_5 
REMARK    4  A    between atoms: C9_12  and  C10_13 
ROOT
HETATM    1  C8  UNL     1      21.797   0.261  52.616  1.00  0.00     0.011 A 
HETATM    2  C9  UNL     1      20.993   0.593  51.620  1.00  0.00     0.090 A 
HETATM    3  O3  UNL     1      19.661   0.249  51.674  1.00  0.00    -0.322 OA
HETATM    4  C15 UNL     1      19.010  -0.434  52.676  1.00  0.00     0.139 A 
HETATM    5  C16 UNL     1      19.853  -0.738  53.628  1.00  0.00     0.002 A 
HETATM    6  C17 UNL     1      21.264  -0.500  53.802  1.00  0.00     0.073 A 
ENDROOT
BRANCH   1   7
HETATM    7  C1  UNL     1      23.206   0.599  52.607  1.00  0.00     0.079 A 
HETATM    8  O1  UNL     1      23.803  -0.160  53.448  1.00  0.00    -0.347 OA
HETATM    9  C2  UNL     1      24.621   0.910  52.624  1.00  0.00     0.229 A 
BRANCH   9  10
HETATM   10  C3  UNL     1      25.490   0.097  53.547  1.00  0.00     0.148 C 
BRANCH  10  11
HETATM   11  N1  UNL     1      26.851   0.560  53.419  1.00  0.00    -0.406 N 
HETATM   12  C4  UNL     1      27.035   1.959  53.397  1.00  0.00     0.143 C 
HETATM   13  C5  UNL     1      28.500   2.367  53.513  1.00  0.00     0.187 C 
HETATM   14  O2  UNL     1      28.945   1.875  54.736  1.00  0.00    -0.388 OA
HETATM   15  C6  UNL     1      29.022   0.491  54.623  1.00  0.00     0.187 C 
HETATM   16  C7  UNL     1      27.786  -0.190  54.184  1.00  0.00     0.143 C 
ENDBRANCH  10  11
ENDBRANCH   9  10
ENDBRANCH   1   7
BRANCH   2  17
HETATM   17  C10 UNL     1      21.431   1.312  50.445  1.00  0.00    -0.020 A 
HETATM   18  C11 UNL     1      21.557   0.805  49.243  1.00  0.00     0.010 A 
HETATM   19  C12 UNL     1      22.002   1.689  48.232  1.00  0.00    -0.003 A 
HETATM   20  C13 UNL     1      22.171   2.862  48.861  1.00  0.00    -0.022 A 
HETATM   21  C14 UNL     1      21.829   2.743  50.319  1.00  0.00     0.068 A 
ENDBRANCH   2  17
TORSDOF 4
ENDMDL
MODEL 5
REMARK VINA RESULT:      -7.0      1.987      3.900
REMARK  4 active torsions:
REMARK  status: ('A' for Active; 'I' for Inactive)
REMARK    1  A    between atoms: C1_2  and  C8_11 
REMARK    2  A    between atoms: C2_3  and  C3_4 
REMARK    3  A    between atoms: C3_4  and  N1_5 
REMARK    4  A    between atoms: C9_12  and  C10_13 
ROOT
HETATM    1  C8  UNL     1      22.833   1.518  52.548  1.00  0.00     0.011 A 
HETATM    2  C9  UNL     1      22.428   2.521  51.788  1.00  0.00     0.090 A 
HETATM    3  O3  UNL     1      21.090   2.841  51.735  1.00  0.00    -0.322 OA
HETATM    4  C15 UNL     1      20.052   2.227  52.398  1.00  0.00     0.139 A 
HETATM    5  C16 UNL     1      20.511   1.244  53.128  1.00  0.00     0.002 A 
HETATM    6  C17 UNL     1      21.835   0.718  53.347  1.00  0.00     0.073 A 
ENDROOT
BRANCH   1   7
HETATM    7  C1  UNL     1      24.229   1.139  52.638  1.00  0.00     0.079 A 
HETATM    8  O1  UNL     1      24.291  -0.042  53.128  1.00  0.00    -0.347 OA
HETATM    9  C2  UNL     1      25.615   0.729  52.743  1.00  0.00     0.229 A 
BRANCH   9  10
HETATM   10  C3  UNL     1      25.881  -0.652  53.283  1.00  0.00     0.148 C 
BRANCH  10  11
HETATM   11  N1  UNL     1      27.215  -0.678  53.832  1.00  0.00    -0.406 N 
HETATM   12  C4  UNL     1      28.199  -1.321  53.052  1.00  0.00     0.143 C 
HETATM   13  C5  UNL     1      29.614  -1.089  53.571  1.00  0.00     0.187 C 
HETATM   14  O2  UNL     1      29.828   0.285  53.521  1.00  0.00    -0.388 OA
HETATM   15  C6  UNL     1      29.040   0.864  54.509  1.00  0.00     0.187 C 
HETATM   16  C7  UNL     1      27.599   0.539  54.460  1.00  0.00     0.143 C 
ENDBRANCH  10  11
ENDBRANCH   9  10
ENDBRANCH   1   7
BRANCH   2  17
HETATM   17  C10 UNL     1      23.321   3.326  50.987  1.00  0.00    -0.020 A 
HETATM   18  C11 UNL     1      23.915   4.427  51.379  1.00  0.00     0.010 A 
HETATM   19  C12 UNL     1      24.754   5.060  50.431  1.00  0.00    -0.003 A 
HETATM   20  C13 UNL     1      24.678   4.280  49.341  1.00  0.00    -0.022 A 
HETATM   21  C14 UNL     1      23.768   3.110  49.581  1.00  0.00     0.068 A 
ENDBRANCH   2  17
TORSDOF 4
ENDMDL
MODEL 6
REMARK VINA RESULT:      -6.9      3.222      5.595
REMARK  4 active torsions:
REMARK  status: ('A' for Active; 'I' for Inactive)
REMARK    1  A    between atoms: C1_2  and  C8_11 
REMARK    2  A    between atoms: C2_3  and  C3_4 
REMARK    3  A    between atoms: C3_4  and  N1_5 
REMARK    4  A    between atoms: C9_12  and  C10_13 
ROOT
HETATM    1  C8  UNL     1      25.186   1.053  52.789  1.00  0.00     0.011 A 
HETATM    2  C9  UNL     1      24.646  -0.114  53.095  1.00  0.00     0.090 A 
HETATM    3  O3  UNL     1      25.424  -1.250  53.083  1.00  0.00    -0.322 OA
HETATM    4  C15 UNL     1      26.762  -1.349  52.777  1.00  0.00     0.139 A 
HETATM    5  C16 UNL     1      27.238  -0.169  52.479  1.00  0.00     0.002 A 
HETATM    6  C17 UNL     1      26.643   1.143  52.416  1.00  0.00     0.073 A 
ENDROOT
BRANCH   1   7
HETATM    7  C1  UNL     1      24.411   2.278  52.785  1.00  0.00     0.079 A 
HETATM    8  O1  UNL     1      24.220   2.626  51.568  1.00  0.00    -0.347 OA
HETATM    9  C2  UNL     1      23.638   3.503  52.745  1.00  0.00     0.229 A 
BRANCH   9  10
HETATM   10  C3  UNL     1      23.297   4.053  51.385  1.00  0.00     0.148 C 
BRANCH  10  11
HETATM   11  N1  UNL     1      23.129   5.482  51.499  1.00  0.00    -0.406 N 
HETATM   12  C4  UNL     1      24.169   6.276  50.971  1.00  0.00     0.143 C 
HETATM   13  C5  UNL     1      23.809   7.757  50.902  1.00  0.00     0.187 C 
HETATM   14  O2  UNL     1      22.702   7.849  50.063  1.00  0.00    -0.388 OA
HETATM   15  C6  UNL     1      21.620   7.302  50.742  1.00  0.00     0.187 C 
HETATM   16  C7  UNL     1      21.802   5.925  51.246  1.00  0.00     0.143 C 
ENDBRANCH  10  11
ENDBRANCH   9  10
ENDBRANCH   1   7
BRANCH   2  17
HETATM   17  C10 UNL     1      23.256  -0.282  53.451  1.00  0.00    -0.020 A 
HETATM   18  C11 UNL     1      22.238  -0.152  52.634  1.00  0.00     0.010 A 
HETATM   19  C12 UNL     1      20.955  -0.362  53.193  1.00  0.00    -0.003 A 
HETATM   20  C13 UNL     1      21.191  -0.652  54.481  1.00  0.00    -0.022 A 
HETATM   21  C14 UNL     1      22.664  -0.630  54.775  1.00  0.00     0.068 A 
ENDBRANCH   2  17
TORSDOF 4
ENDMDL
MODEL 7
REMARK VINA RESULT:      -6.8      1.919      2.231
REMARK  4 active torsions:
REMARK  status: ('A' for Active; 'I' for Inactive)
REMARK    1  A    between atoms: C1_2  and  C8_11 
REMARK    2  A    between atoms: C2_3  and  C3_4 
REMARK    3  A    between atoms: C3_4  and  N1_5 
REMARK    4  A    between atoms: C9_12  and  C10_13 
ROOT
HETATM    1  C8  UNL     1      23.219   2.368  52.319  1.00  0.00     0.011 A 
HETATM    2  C9  UNL     1      22.054   1.860  52.684  1.00  0.00     0.090 A 
HETATM    3  O3  UNL     1      20.905   2.601  52.526  1.00  0.00    -0.322 OA
HETATM    4  C15 UNL     1      20.791   3.873  52.013  1.00  0.00     0.139 A 
HETATM    5  C16 UNL     1      21.970   4.324  51.675  1.00  0.00     0.002 A 
HETATM    6  C17 UNL     1      23.294   3.758  51.742  1.00  0.00     0.073 A 
ENDROOT
BRANCH   1   7
HETATM    7  C1  UNL     1      24.457   1.629  52.466  1.00  0.00     0.079 A 
HETATM    8  O1  UNL     1      25.101   2.122  53.457  1.00  0.00    -0.347 OA
HETATM    9  C2  UNL     1      25.704   0.912  52.641  1.00  0.00     0.229 A 
BRANCH   9  10
HETATM   10  C3  UNL     1      26.588   1.344  53.781  1.00  0.00     0.148 C 
BRANCH  10  11
HETATM   11  N1  UNL     1      27.571   0.313  54.013  1.00  0.00    -0.406 N 
HETATM   12  C4  UNL     1      27.514  -0.806  53.156  1.00  0.00     0.143 C 
HETATM   13  C5  UNL     1      28.726  -1.723  53.295  1.00  0.00     0.187 C 
HETATM   14  O2  UNL     1      29.836  -0.955  52.959  1.00  0.00    -0.388 OA
HETATM   15  C6  UNL     1      30.030  -0.033  53.982  1.00  0.00     0.187 C 
HETATM   16  C7  UNL     1      28.867   0.815  54.316  1.00  0.00     0.143 C 
ENDBRANCH  10  11
ENDBRANCH   9  10
ENDBRANCH   1   7
BRANCH   2  17
HETATM   17  C10 UNL     1      21.902   0.540  53.254  1.00  0.00    -0.020 A 
HETATM   18  C11 UNL     1      21.382   0.271  54.428  1.00  0.00     0.010 A 
HETATM   19  C12 UNL     1      21.329  -1.095  54.792  1.00  0.00    -0.003 A 
HETATM   20  C13 UNL     1      21.866  -1.743  53.747  1.00  0.00    -0.022 A 
HETATM   21  C14 UNL     1      22.282  -0.780  52.673  1.00  0.00     0.068 A 
ENDBRANCH   2  17
TORSDOF 4
ENDMDL
MODEL 8
REMARK VINA RESULT:      -6.6      2.689      4.037
REMARK  4 active torsions:
REMARK  status: ('A' for Active; 'I' for Inactive)
REMARK    1  A    between atoms: C1_2  and  C8_11 
REMARK    2  A    between atoms: C2_3  and  C3_4 
REMARK    3  A    between atoms: C3_4  and  N1_5 
REMARK    4  A    between atoms: C9_12  and  C10_13 
ROOT
HETATM    1  C8  UNL     1      24.714   4.379  49.716  1.00  0.00     0.011 A 
HETATM    2  C9  UNL     1      23.597   4.258  49.020  1.00  0.00     0.090 A 
HETATM    3  O3  UNL     1      23.217   5.262  48.158  1.00  0.00    -0.322 OA
HETATM    4  C15 UNL     1      23.873   6.444  47.904  1.00  0.00     0.139 A 
HETATM    5  C16 UNL     1      24.965   6.510  48.621  1.00  0.00     0.002 A 
HETATM    6  C17 UNL     1      25.567   5.614  49.577  1.00  0.00     0.073 A 
ENDROOT
BRANCH   1   7
HETATM    7  C1  UNL     1      25.158   3.352  50.637  1.00  0.00     0.079 A 
HETATM    8  O1  UNL     1      26.433   3.425  50.732  1.00  0.00    -0.347 OA
HETATM    9  C2  UNL     1      25.637   2.336  51.554  1.00  0.00     0.229 A 
BRANCH   9  10
HETATM   10  C3  UNL     1      27.121   2.287  51.806  1.00  0.00     0.148 C 
BRANCH  10  11
HETATM   11  N1  UNL     1      27.413   1.101  52.576  1.00  0.00    -0.406 N 
HETATM   12  C4  UNL     1      27.963   1.310  53.858  1.00  0.00     0.143 C 
HETATM   13  C5  UNL     1      28.008   0.038  54.699  1.00  0.00     0.187 C 
HETATM   14  O2  UNL     1      26.689  -0.384  54.838  1.00  0.00    -0.388 OA
HETATM   15  C6  UNL     1      26.269  -0.851  53.598  1.00  0.00     0.187 C 
HETATM   16  C7  UNL     1      26.419   0.089  52.468  1.00  0.00     0.143 C 
ENDBRANCH  10  11
ENDBRANCH   9  10
ENDBRANCH   1   7
BRANCH   2  17
HETATM   17  C10 UNL     1      22.722   3.111  49.108  1.00  0.00    -0.020 A 
HETATM   18  C11 UNL     1      22.526   2.226  48.159  1.00  0.00     0.010 A 
HETATM   19  C12 UNL     1      21.626   1.176  48.457  1.00  0.00    -0.003 A 
HETATM   20  C13 UNL     1      21.220   1.426  49.711  1.00  0.00    -0.022 A 
HETATM   21  C14 UNL     1      21.868   2.670  50.248  1.00  0.00     0.068 A 
ENDBRANCH   2  17
TORSDOF 4
ENDMDL
MODEL 9
REMARK VINA RESULT:      -6.4     23.444     25.582
REMARK  4 active torsions:
REMARK  status: ('A' for Active; 'I' for Inactive)
REMARK    1  A    between atoms: C1_2  and  C8_11 
REMARK    2  A    between atoms: C2_3  and  C3_4 
REMARK    3  A    between atoms: C3_4  and  N1_5 
REMARK    4  A    between atoms: C9_12  and  C10_13 
ROOT
HETATM    1  C8  UNL     1      44.834   5.746  66.394  1.00  0.00     0.011 A 
HETATM    2  C9  UNL     1      44.686   7.018  66.726  1.00  0.00     0.090 A 
HETATM    3  O3  UNL     1      44.859   7.997  65.775  1.00  0.00    -0.322 OA
HETATM    4  C15 UNL     1      45.186   7.831  64.449  1.00  0.00     0.139 A 
HETATM    5  C16 UNL     1      45.324   6.559  64.180  1.00  0.00     0.002 A 
HETATM    6  C17 UNL     1      45.202   5.368  64.983  1.00  0.00     0.073 A 
ENDROOT
BRANCH   1   7
HETATM    7  C1  UNL     1      44.664   4.678  67.358  1.00  0.00     0.079 A 
HETATM    8  O1  UNL     1      44.432   3.595  66.716  1.00  0.00    -0.347 OA
HETATM    9  C2  UNL     1      44.488   3.585  68.294  1.00  0.00     0.229 A 
BRANCH   9  10
HETATM   10  C3  UNL     1      44.226   2.221  67.712  1.00  0.00     0.148 C 
BRANCH  10  11
HETATM   11  N1  UNL     1      43.197   1.580  68.496  1.00  0.00    -0.406 N 
HETATM   12  C4  UNL     1      42.344   2.436  69.224  1.00  0.00     0.143 C 
HETATM   13  C5  UNL     1      41.140   1.711  69.818  1.00  0.00     0.187 C 
HETATM   14  O2  UNL     1      40.435   1.182  68.742  1.00  0.00    -0.388 OA
HETATM   15  C6  UNL     1      41.193   0.140  68.220  1.00  0.00     0.187 C 
HETATM   16  C7  UNL     1      42.581   0.478  67.842  1.00  0.00     0.143 C 
ENDBRANCH  10  11
ENDBRANCH   9  10
ENDBRANCH   1   7
BRANCH   2  17
HETATM   17  C10 UNL     1      44.345   7.459  68.060  1.00  0.00    -0.020 A 
HETATM   18  C11 UNL     1      45.194   7.892  68.961  1.00  0.00     0.010 A 
HETATM   19  C12 UNL     1      44.644   8.278  70.206  1.00  0.00    -0.003 A 
HETATM   20  C13 UNL     1      43.326   8.066  70.073  1.00  0.00    -0.022 A 
HETATM   21  C14 UNL     1      43.004   7.529  68.708  1.00  0.00     0.068 A 
ENDBRANCH   2  17
TORSDOF 4
ENDMDL
