MODEL 1
REMARK VINA RESULT:      -7.9      0.000      0.000
REMARK  2 active torsions:
REMARK  status: ('A' for Active; 'I' for Inactive)
REMARK    1  A    between atoms: C5_6  and  O1_7 
REMARK    2  A    between atoms: O1_7  and  C6_8 
ROOT
HETATM    1  C1  UNL     1      21.150   0.216  54.210  1.00  0.00     0.125 A 
HETATM    2  N1  UNL     1      21.210  -0.795  54.983  1.00  0.00    -0.296 NA
HETATM    3  C2  UNL     1      22.529  -1.374  54.897  1.00  0.00     0.188 A 
HETATM    4  C3  UNL     1      23.273  -0.529  53.925  1.00  0.00    -0.021 A 
HETATM    5  C4  UNL     1      24.529  -0.526  53.407  1.00  0.00     0.049 A 
HETATM    6  C5  UNL     1      25.008   0.383  52.492  1.00  0.00     0.106 A 
HETATM    7  C11 UNL     1      24.124   1.375  52.075  1.00  0.00     0.136 A 
HETATM    8  C12 UNL     1      22.824   1.407  52.584  1.00  0.00     0.117 A 
HETATM    9  C13 UNL     1      22.402   0.465  53.500  1.00  0.00     0.025 A 
HETATM   10  O3  UNL     1      21.956   2.403  52.155  1.00  0.00    -0.345 OA
HETATM   11  C14 UNL     1      22.435   3.685  51.817  1.00  0.00     0.202 C 
HETATM   12  C15 UNL     1      23.845   3.686  51.281  1.00  0.00     0.202 C 
HETATM   13  O4  UNL     1      24.376   2.378  51.180  1.00  0.00    -0.344 OA
ENDROOT
BRANCH   6  14
HETATM   14  O1  UNL     1      26.258   0.430  51.943  1.00  0.00    -0.343 OA
BRANCH  14  15
HETATM   15  C6  UNL     1      27.481   0.715  52.508  1.00  0.00     0.133 C 
HETATM   16  C7  UNL     1      27.549   2.151  52.984  1.00  0.00     0.058 C 
HETATM   17  C8  UNL     1      28.811   2.424  53.767  1.00  0.00     0.170 C 
HETATM   18  O2  UNL     1      28.984   1.506  54.800  1.00  0.00    -0.391 OA
HETATM   19  C9  UNL     1      29.188   0.261  54.222  1.00  0.00     0.170 C 
HETATM   20  C10 UNL     1      27.967  -0.262  53.523  1.00  0.00     0.058 C 
ENDBRANCH  14  15
ENDBRANCH   6  14
TORSDOF 2
ENDMDL
MODEL 2
REMARK VINA RESULT:      -7.4      1.856      4.687
REMARK  2 active torsions:
REMARK  status: ('A' for Active; 'I' for Inactive)
REMARK    1  A    between atoms: C5_6  and  O1_7 
REMARK    2  A    between atoms: O1_7  and  C6_8 
ROOT
HETATM    1  C1  UNL     1      24.326  -1.263  55.715  1.00  0.00     0.125 A 
HETATM    2  N1  UNL     1      23.097  -1.561  55.563  1.00  0.00    -0.296 NA
HETATM    3  C2  UNL     1      22.628  -1.004  54.317  1.00  0.00     0.188 A 
HETATM    4  C3  UNL     1      23.801  -0.307  53.727  1.00  0.00    -0.021 A 
HETATM    5  C4  UNL     1      24.035   0.405  52.593  1.00  0.00     0.049 A 
HETATM    6  C5  UNL     1      25.239   0.975  52.248  1.00  0.00     0.106 A 
HETATM    7  C11 UNL     1      26.293   0.799  53.141  1.00  0.00     0.136 A 
HETATM    8  C12 UNL     1      26.094   0.074  54.317  1.00  0.00     0.117 A 
HETATM    9  C13 UNL     1      24.861  -0.474  54.609  1.00  0.00     0.025 A 
HETATM   10  O3  UNL     1      27.157  -0.090  55.197  1.00  0.00    -0.345 OA
HETATM   11  C14 UNL     1      28.480  -0.183  54.724  1.00  0.00     0.202 C 
HETATM   12  C15 UNL     1      28.723   0.575  53.442  1.00  0.00     0.202 C 
HETATM   13  O4  UNL     1      27.569   1.271  53.009  1.00  0.00    -0.344 OA
ENDROOT
BRANCH   6  14
HETATM   14  O1  UNL     1      25.525   1.697  51.124  1.00  0.00    -0.343 OA
BRANCH  14  15
HETATM   15  C6  UNL     1      25.338   3.031  50.837  1.00  0.00     0.133 C 
HETATM   16  C7  UNL     1      26.397   3.546  49.885  1.00  0.00     0.058 C 
HETATM   17  C8  UNL     1      26.099   4.951  49.420  1.00  0.00     0.170 C 
HETATM   18  O2  UNL     1      24.811   5.060  48.902  1.00  0.00    -0.391 OA
HETATM   19  C9  UNL     1      23.922   4.835  49.943  1.00  0.00     0.170 C 
HETATM   20  C10 UNL     1      23.955   3.418  50.440  1.00  0.00     0.058 C 
ENDBRANCH  14  15
ENDBRANCH   6  14
TORSDOF 2
ENDMDL
MODEL 3
REMARK VINA RESULT:      -7.4      2.463      5.586
REMARK  2 active torsions:
REMARK  status: ('A' for Active; 'I' for Inactive)
REMARK    1  A    between atoms: C5_6  and  O1_7 
REMARK    2  A    between atoms: O1_7  and  C6_8 
ROOT
HETATM    1  C1  UNL     1      28.070   0.292  54.999  1.00  0.00     0.125 A 
HETATM    2  N1  UNL     1      29.019   1.078  54.675  1.00  0.00    -0.296 NA
HETATM    3  C2  UNL     1      28.607   1.870  53.541  1.00  0.00     0.188 A 
HETATM    4  C3  UNL     1      27.224   1.426  53.227  1.00  0.00    -0.021 A 
HETATM    5  C4  UNL     1      26.287   1.760  52.301  1.00  0.00     0.049 A 
HETATM    6  C5  UNL     1      25.036   1.196  52.198  1.00  0.00     0.106 A 
HETATM    7  C11 UNL     1      24.718   0.206  53.125  1.00  0.00     0.136 A 
HETATM    8  C12 UNL     1      25.654  -0.165  54.094  1.00  0.00     0.117 A 
HETATM    9  C13 UNL     1      26.894   0.438  54.145  1.00  0.00     0.025 A 
HETATM   10  O3  UNL     1      25.320  -1.155  55.009  1.00  0.00    -0.345 OA
HETATM   11  C14 UNL     1      23.992  -1.312  55.454  1.00  0.00     0.202 C 
HETATM   12  C15 UNL     1      22.957  -0.901  54.437  1.00  0.00     0.202 C 
HETATM   13  O4  UNL     1      23.545  -0.489  53.217  1.00  0.00    -0.344 OA
ENDROOT
BRANCH   6  14
HETATM   14  O1  UNL     1      24.060   1.494  51.289  1.00  0.00    -0.343 OA
BRANCH  14  15
HETATM   15  C6  UNL     1      23.386   2.670  51.044  1.00  0.00     0.133 C 
HETATM   16  C7  UNL     1      23.048   3.392  52.332  1.00  0.00     0.058 C 
HETATM   17  C8  UNL     1      22.474   4.764  52.073  1.00  0.00     0.170 C 
HETATM   18  O2  UNL     1      23.296   5.515  51.235  1.00  0.00    -0.391 OA
HETATM   19  C9  UNL     1      23.306   4.895  49.994  1.00  0.00     0.170 C 
HETATM   20  C10 UNL     1      23.995   3.561  50.017  1.00  0.00     0.058 C 
ENDBRANCH  14  15
ENDBRANCH   6  14
TORSDOF 2
ENDMDL
MODEL 4
REMARK VINA RESULT:      -7.3      3.486      5.443
REMARK  2 active torsions:
REMARK  status: ('A' for Active; 'I' for Inactive)
REMARK    1  A    between atoms: C5_6  and  O1_7 
REMARK    2  A    between atoms: O1_7  and  C6_8 
ROOT
HETATM    1  C1  UNL     1      26.129   6.570  49.066  1.00  0.00     0.125 A 
HETATM    2  N1  UNL     1      27.186   6.348  48.390  1.00  0.00    -0.296 NA
HETATM    3  C2  UNL     1      27.578   4.970  48.569  1.00  0.00     0.188 A 
HETATM    4  C3  UNL     1      26.562   4.383  49.483  1.00  0.00    -0.021 A 
HETATM    5  C4  UNL     1      26.351   3.161  50.038  1.00  0.00     0.049 A 
HETATM    6  C5  UNL     1      25.312   2.842  50.881  1.00  0.00     0.106 A 
HETATM    7  C11 UNL     1      24.412   3.862  51.180  1.00  0.00     0.136 A 
HETATM    8  C12 UNL     1      24.595   5.133  50.629  1.00  0.00     0.117 A 
HETATM    9  C13 UNL     1      25.658   5.392  49.790  1.00  0.00     0.025 A 
HETATM   10  O3  UNL     1      23.688   6.138  50.940  1.00  0.00    -0.345 OA
HETATM   11  C14 UNL     1      22.330   5.843  51.175  1.00  0.00     0.202 C 
HETATM   12  C15 UNL     1      22.099   4.468  51.753  1.00  0.00     0.202 C 
HETATM   13  O4  UNL     1      23.312   3.779  51.988  1.00  0.00    -0.344 OA
ENDROOT
BRANCH   6  14
HETATM   14  O1  UNL     1      25.054   1.633  51.463  1.00  0.00    -0.343 OA
BRANCH  14  15
HETATM   15  C6  UNL     1      25.671   0.989  52.514  1.00  0.00     0.133 C 
HETATM   16  C7  UNL     1      24.663   0.282  53.396  1.00  0.00     0.058 C 
HETATM   17  C8  UNL     1      25.336  -0.576  54.440  1.00  0.00     0.170 C 
HETATM   18  O2  UNL     1      26.260  -1.449  53.872  1.00  0.00    -0.391 OA
HETATM   19  C9  UNL     1      27.282  -0.682  53.332  1.00  0.00     0.170 C 
HETATM   20  C10 UNL     1      26.835   0.133  52.153  1.00  0.00     0.058 C 
ENDBRANCH  14  15
ENDBRANCH   6  14
TORSDOF 2
ENDMDL
MODEL 5
REMARK VINA RESULT:      -7.2      1.719      4.584
REMARK  2 active torsions:
REMARK  status: ('A' for Active; 'I' for Inactive)
REMARK    1  A    between atoms: C5_6  and  O1_7 
REMARK    2  A    between atoms: O1_7  and  C6_8 
ROOT
HETATM    1  C1  UNL     1      22.528  -1.268  54.934  1.00  0.00     0.125 A 
HETATM    2  N1  UNL     1      21.254  -1.278  54.958  1.00  0.00    -0.296 NA
HETATM    3  C2  UNL     1      20.758  -0.422  53.907  1.00  0.00     0.188 A 
HETATM    4  C3  UNL     1      21.966   0.118  53.229  1.00  0.00    -0.021 A 
HETATM    5  C4  UNL     1      22.197   0.960  52.188  1.00  0.00     0.049 A 
HETATM    6  C5  UNL     1      23.439   1.327  51.724  1.00  0.00     0.106 A 
HETATM    7  C11 UNL     1      24.539   0.783  52.384  1.00  0.00     0.136 A 
HETATM    8  C12 UNL     1      24.343  -0.087  53.459  1.00  0.00     0.117 A 
HETATM    9  C13 UNL     1      23.071  -0.417  53.878  1.00  0.00     0.025 A 
HETATM   10  O3  UNL     1      25.452  -0.618  54.106  1.00  0.00    -0.345 OA
HETATM   11  C14 UNL     1      26.641  -0.892  53.400  1.00  0.00     0.202 C 
HETATM   12  C15 UNL     1      26.870   0.020  52.220  1.00  0.00     0.202 C 
HETATM   13  O4  UNL     1      25.858   1.002  52.102  1.00  0.00    -0.344 OA
ENDROOT
BRANCH   6  14
HETATM   14  O1  UNL     1      23.725   2.166  50.685  1.00  0.00    -0.343 OA
BRANCH  14  15
HETATM   15  C6  UNL     1      23.493   3.515  50.525  1.00  0.00     0.133 C 
HETATM   16  C7  UNL     1      23.794   4.281  51.797  1.00  0.00     0.058 C 
HETATM   17  C8  UNL     1      23.721   5.774  51.583  1.00  0.00     0.170 C 
HETATM   18  O2  UNL     1      24.511   6.179  50.510  1.00  0.00    -0.391 OA
HETATM   19  C9  UNL     1      23.967   5.629  49.359  1.00  0.00     0.170 C 
HETATM   20  C10 UNL     1      24.096   4.134  49.312  1.00  0.00     0.058 C 
ENDBRANCH  14  15
ENDBRANCH   6  14
TORSDOF 2
ENDMDL
MODEL 6
REMARK VINA RESULT:      -7.0      2.567      5.604
REMARK  2 active torsions:
REMARK  status: ('A' for Active; 'I' for Inactive)
REMARK    1  A    between atoms: C5_6  and  O1_7 
REMARK    2  A    between atoms: O1_7  and  C6_8 
ROOT
HETATM    1  C1  UNL     1      28.738   1.675  53.272  1.00  0.00     0.125 A 
HETATM    2  N1  UNL     1      29.057   0.864  54.201  1.00  0.00    -0.296 NA
HETATM    3  C2  UNL     1      27.905   0.065  54.544  1.00  0.00     0.188 A 
HETATM    4  C3  UNL     1      26.815   0.535  53.650  1.00  0.00    -0.021 A 
HETATM    5  C4  UNL     1      25.509   0.209  53.462  1.00  0.00     0.049 A 
HETATM    6  C5  UNL     1      24.667   0.800  52.548  1.00  0.00     0.106 A 
HETATM    7  C11 UNL     1      25.211   1.809  51.758  1.00  0.00     0.136 A 
HETATM    8  C12 UNL     1      26.550   2.173  51.920  1.00  0.00     0.117 A 
HETATM    9  C13 UNL     1      27.344   1.543  52.856  1.00  0.00     0.025 A 
HETATM   10  O3  UNL     1      27.075   3.184  51.124  1.00  0.00    -0.345 OA
HETATM   11  C14 UNL     1      26.620   3.376  49.804  1.00  0.00     0.202 C 
HETATM   12  C15 UNL     1      25.182   2.974  49.592  1.00  0.00     0.202 C 
HETATM   13  O4  UNL     1      24.571   2.532  50.790  1.00  0.00    -0.344 OA
ENDROOT
BRANCH   6  14
HETATM   14  O1  UNL     1      23.352   0.510  52.320  1.00  0.00    -0.343 OA
BRANCH  14  15
HETATM   15  C6  UNL     1      22.336   0.186  53.192  1.00  0.00     0.133 C 
HETATM   16  C7  UNL     1      20.983   0.577  52.634  1.00  0.00     0.058 C 
HETATM   17  C8  UNL     1      19.852   0.064  53.493  1.00  0.00     0.170 C 
HETATM   18  O2  UNL     1      19.963  -1.305  53.726  1.00  0.00    -0.391 OA
HETATM   19  C9  UNL     1      21.106  -1.508  54.487  1.00  0.00     0.170 C 
HETATM   20  C10 UNL     1      22.367  -1.202  53.733  1.00  0.00     0.058 C 
ENDBRANCH  14  15
ENDBRANCH   6  14
TORSDOF 2
ENDMDL
MODEL 7
REMARK VINA RESULT:      -7.0      2.831      5.943
REMARK  2 active torsions:
REMARK  status: ('A' for Active; 'I' for Inactive)
REMARK    1  A    between atoms: C5_6  and  O1_7 
REMARK    2  A    between atoms: O1_7  and  C6_8 
ROOT
HETATM    1  C1  UNL     1      26.214   4.767  49.641  1.00  0.00     0.125 A 
HETATM    2  N1  UNL     1      25.377   5.404  48.921  1.00  0.00    -0.296 NA
HETATM    3  C2  UNL     1      24.086   4.768  49.027  1.00  0.00     0.188 A 
HETATM    4  C3  UNL     1      24.282   3.619  49.949  1.00  0.00    -0.021 A 
HETATM    5  C4  UNL     1      23.489   2.640  50.459  1.00  0.00     0.049 A 
HETATM    6  C5  UNL     1      23.904   1.652  51.322  1.00  0.00     0.106 A 
HETATM    7  C11 UNL     1      25.245   1.670  51.695  1.00  0.00     0.136 A 
HETATM    8  C12 UNL     1      26.093   2.660  51.194  1.00  0.00     0.117 A 
HETATM    9  C13 UNL     1      25.617   3.625  50.330  1.00  0.00     0.025 A 
HETATM   10  O3  UNL     1      27.428   2.662  51.577  1.00  0.00    -0.345 OA
HETATM   11  C14 UNL     1      27.815   2.218  52.858  1.00  0.00     0.202 C 
HETATM   12  C15 UNL     1      26.907   1.161  53.435  1.00  0.00     0.202 C 
HETATM   13  O4  UNL     1      25.877   0.796  52.536  1.00  0.00    -0.344 OA
ENDROOT
BRANCH   6  14
HETATM   14  O1  UNL     1      23.150   0.648  51.861  1.00  0.00    -0.343 OA
BRANCH  14  15
HETATM   15  C6  UNL     1      22.776   0.401  53.164  1.00  0.00     0.133 C 
HETATM   16  C7  UNL     1      21.285   0.580  53.355  1.00  0.00     0.058 C 
HETATM   17  C8  UNL     1      20.837   0.136  54.727  1.00  0.00     0.170 C 
HETATM   18  O2  UNL     1      21.266  -1.157  55.015  1.00  0.00    -0.391 OA
HETATM   19  C9  UNL     1      22.651  -1.132  55.085  1.00  0.00     0.170 C 
HETATM   20  C10 UNL     1      23.295  -0.864  53.755  1.00  0.00     0.058 C 
ENDBRANCH  14  15
ENDBRANCH   6  14
TORSDOF 2
ENDMDL
MODEL 8
REMARK VINA RESULT:      -6.9      2.493      4.761
REMARK  2 active torsions:
REMARK  status: ('A' for Active; 'I' for Inactive)
REMARK    1  A    between atoms: C5_6  and  O1_7 
REMARK    2  A    between atoms: O1_7  and  C6_8 
ROOT
HETATM    1  C1  UNL     1      25.578  -0.729  54.769  1.00  0.00     0.125 A 
HETATM    2  N1  UNL     1      26.834  -0.553  54.643  1.00  0.00    -0.296 NA
HETATM    3  C2  UNL     1      27.076   0.307  53.510  1.00  0.00     0.188 A 
HETATM    4  C3  UNL     1      25.733   0.629  52.960  1.00  0.00    -0.021 A 
HETATM    5  C4  UNL     1      25.265   1.371  51.922  1.00  0.00     0.049 A 
HETATM    6  C5  UNL     1      23.937   1.527  51.594  1.00  0.00     0.106 A 
HETATM    7  C11 UNL     1      23.012   0.867  52.399  1.00  0.00     0.136 A 
HETATM    8  C12 UNL     1      23.454   0.095  53.476  1.00  0.00     0.117 A 
HETATM    9  C13 UNL     1      24.800  -0.024  53.754  1.00  0.00     0.025 A 
HETATM   10  O3  UNL     1      22.516  -0.557  54.267  1.00  0.00    -0.345 OA
HETATM   11  C14 UNL     1      21.243   0.004  54.492  1.00  0.00     0.202 C 
HETATM   12  C15 UNL     1      20.746   0.860  53.354  1.00  0.00     0.202 C 
HETATM   13  O4  UNL     1      21.652   0.877  52.266  1.00  0.00    -0.344 OA
ENDROOT
BRANCH   6  14
HETATM   14  O1  UNL     1      23.415   2.260  50.566  1.00  0.00    -0.343 OA
BRANCH  14  15
HETATM   15  C6  UNL     1      23.572   3.588  50.234  1.00  0.00     0.133 C 
HETATM   16  C7  UNL     1      23.454   4.479  51.453  1.00  0.00     0.058 C 
HETATM   17  C8  UNL     1      23.804   5.913  51.136  1.00  0.00     0.170 C 
HETATM   18  O2  UNL     1      25.046   6.014  50.514  1.00  0.00    -0.391 OA
HETATM   19  C9  UNL     1      24.946   5.392  49.278  1.00  0.00     0.170 C 
HETATM   20  C10 UNL     1      24.756   3.907  49.388  1.00  0.00     0.058 C 
ENDBRANCH  14  15
ENDBRANCH   6  14
TORSDOF 2
ENDMDL
MODEL 9
REMARK VINA RESULT:      -6.9      2.801      6.140
REMARK  2 active torsions:
REMARK  status: ('A' for Active; 'I' for Inactive)
REMARK    1  A    between atoms: C5_6  and  O1_7 
REMARK    2  A    between atoms: O1_7  and  C6_8 
ROOT
HETATM    1  C1  UNL     1      27.675   0.289  54.739  1.00  0.00     0.125 A 
HETATM    2  N1  UNL     1      28.535   1.161  54.389  1.00  0.00    -0.296 NA
HETATM    3  C2  UNL     1      27.905   2.116  53.508  1.00  0.00     0.188 A 
HETATM    4  C3  UNL     1      26.493   1.669  53.381  1.00  0.00    -0.021 A 
HETATM    5  C4  UNL     1      25.393   2.112  52.718  1.00  0.00     0.049 A 
HETATM    6  C5  UNL     1      24.153   1.516  52.750  1.00  0.00     0.106 A 
HETATM    7  C11 UNL     1      24.030   0.369  53.530  1.00  0.00     0.136 A 
HETATM    8  C12 UNL     1      25.137  -0.118  54.228  1.00  0.00     0.117 A 
HETATM    9  C13 UNL     1      26.357   0.524  54.155  1.00  0.00     0.025 A 
HETATM   10  O3  UNL     1      24.996  -1.264  55.001  1.00  0.00    -0.345 OA
HETATM   11  C14 UNL     1      23.779  -1.556  55.648  1.00  0.00     0.202 C 
HETATM   12  C15 UNL     1      22.565  -1.025  54.928  1.00  0.00     0.202 C 
HETATM   13  O4  UNL     1      22.905  -0.384  53.712  1.00  0.00    -0.344 OA
ENDROOT
BRANCH   6  14
HETATM   14  O1  UNL     1      23.019   1.921  52.104  1.00  0.00    -0.343 OA
BRANCH  14  15
HETATM   15  C6  UNL     1      22.329   1.355  51.055  1.00  0.00     0.133 C 
HETATM   16  C7  UNL     1      20.847   1.267  51.351  1.00  0.00     0.058 C 
HETATM   17  C8  UNL     1      20.058   0.821  50.144  1.00  0.00     0.170 C 
HETATM   18  O2  UNL     1      20.338   1.604  49.027  1.00  0.00    -0.391 OA
HETATM   19  C9  UNL     1      21.664   1.385  48.685  1.00  0.00     0.170 C 
HETATM   20  C10 UNL     1      22.624   1.920  49.708  1.00  0.00     0.058 C 
ENDBRANCH  14  15
ENDBRANCH   6  14
TORSDOF 2
ENDMDL
