MODEL 1
REMARK VINA RESULT:      -7.9      0.000      0.000
REMARK  8 active torsions:
REMARK  status: ('A' for Active; 'I' for Inactive)
REMARK    1  A    between atoms: C2_2  and  C3_3 
REMARK    2  A    between atoms: C5_7  and  C6_8 
REMARK    3  A    between atoms: C6_8  and  O2_9 
REMARK    4  A    between atoms: O2_9  and  C7_10 
REMARK    5  A    between atoms: C8_12  and  N3_13 
REMARK    6  A    between atoms: C10_15  and  N4_16 
REMARK    7  A    between atoms: N4_16  and  O3_17 
REMARK    8  A    between atoms: C17_27  and  O4_28 
ROOT
HETATM    1  C7  UNL     1      22.598   1.776  52.351  1.00  0.00     0.142 C 
HETATM    2  N2  UNL     1      21.976   2.731  51.946  1.00  0.00    -0.237 NA
HETATM    3  C8  UNL     1      21.617   4.042  51.940  1.00  0.00     0.273 C 
HETATM    4  C12 UNL     1      20.350   4.354  51.181  1.00  0.00     0.297 C 
HETATM    5  N6  UNL     1      19.661   3.735  50.274  1.00  0.00    -0.418 NA
HETATM    6  C13 UNL     1      20.106   2.439  49.797  1.00  0.00     0.136 C 
HETATM    7  C14 UNL     1      19.760   1.487  50.878  1.00  0.00     0.011 C 
HETATM    8  C15 UNL     1      20.503   0.695  51.684  1.00  0.00     0.017 C 
HETATM    9 CL1  UNL     1      19.892  -0.390  52.936  1.00  0.00    -0.089 Cl
HETATM   10  C16 UNL     1      21.972   0.849  51.379  1.00  0.00     0.136 C 
ENDROOT
BRANCH   1  11
HETATM   11  O2  UNL     1      23.530   1.695  53.365  1.00  0.00    -0.337 OA
BRANCH  11  12
HETATM   12  C6  UNL     1      24.589   2.639  53.405  1.00  0.00     0.186 C 
BRANCH  12  13
HETATM   13  C5  UNL     1      25.892   1.923  53.292  1.00  0.00     0.070 C 
HETATM   14  C4  UNL     1      25.790   0.438  53.592  1.00  0.00     0.287 C 
HETATM   15  N1  UNL     1      26.933  -0.056  52.860  1.00  0.00     0.097 N 
HETATM   16  C3  UNL     1      28.115  -0.799  53.013  1.00  0.00     0.374 A 
HETATM   17  C19 UNL     1      26.584   0.487  51.534  1.00  0.00     0.310 C 
HETATM   18  O1  UNL     1      27.381  -0.624  54.038  1.00  0.00    -0.144 OA
HETATM   19  C17 UNL     1      26.485   1.980  51.881  1.00  0.00     0.157 C 
BRANCH  16  20
HETATM   20  C2  UNL     1      29.182  -1.577  53.573  1.00  0.00     0.042 C 
HETATM   21  C1  UNL     1      30.168  -0.696  53.685  1.00  0.00     0.012 C 
ENDBRANCH  16  20
BRANCH  19  22
HETATM   22  O4  UNL     1      25.675   2.645  50.987  1.00  0.00    -0.388 OA
HETATM   23  C18 UNL     1      26.507   3.258  50.047  1.00  0.00     0.202 C 
ENDBRANCH  19  22
ENDBRANCH  12  13
ENDBRANCH  11  12
ENDBRANCH   1  11
BRANCH   3  24
HETATM   24  N3  UNL     1      22.649   4.834  51.251  1.00  0.00    -0.248 N 
HETATM   25  C9  UNL     1      23.553   5.630  51.851  1.00  0.00     0.148 A 
HETATM   26  C10 UNL     1      24.348   6.203  50.860  1.00  0.00     0.090 A 
HETATM   27  C11 UNL     1      23.867   5.706  49.668  1.00  0.00     0.171 A 
HETATM   28  N5  UNL     1      22.839   4.881  49.934  1.00  0.00    -0.180 NA
BRANCH  26  29
HETATM   29  N4  UNL     1      25.442   7.115  50.963  1.00  0.00    -0.267 N 
HETATM   30  H11 UNL     1      25.640   7.987  51.500  1.00  0.00     0.194 HD
BRANCH  29  31
HETATM   31  O3  UNL     1      26.493   6.792  50.185  1.00  0.00    -0.289 OA
HETATM   32  H12 UNL     1      26.868   5.913  50.385  1.00  0.00     0.244 HD
ENDBRANCH  29  31
ENDBRANCH  26  29
ENDBRANCH   3  24
TORSDOF 8
ENDMDL
MODEL 2
REMARK VINA RESULT:      -7.8      2.182      2.990
REMARK  8 active torsions:
REMARK  status: ('A' for Active; 'I' for Inactive)
REMARK    1  A    between atoms: C2_2  and  C3_3 
REMARK    2  A    between atoms: C5_7  and  C6_8 
REMARK    3  A    between atoms: C6_8  and  O2_9 
REMARK    4  A    between atoms: O2_9  and  C7_10 
REMARK    5  A    between atoms: C8_12  and  N3_13 
REMARK    6  A    between atoms: C10_15  and  N4_16 
REMARK    7  A    between atoms: N4_16  and  O3_17 
REMARK    8  A    between atoms: C17_27  and  O4_28 
ROOT
HETATM    1  C7  UNL     1      23.958   3.822  50.787  1.00  0.00     0.142 C 
HETATM    2  N2  UNL     1      23.398   4.729  50.215  1.00  0.00    -0.237 NA
HETATM    3  C8  UNL     1      22.886   5.984  50.124  1.00  0.00     0.273 C 
HETATM    4  C12 UNL     1      21.949   6.209  48.961  1.00  0.00     0.297 C 
HETATM    5  N6  UNL     1      21.728   5.592  47.843  1.00  0.00    -0.418 NA
HETATM    6  C13 UNL     1      22.492   4.402  47.518  1.00  0.00     0.136 C 
HETATM    7  C14 UNL     1      21.915   3.328  48.360  1.00  0.00     0.011 C 
HETATM    8  C15 UNL     1      22.419   2.563  49.356  1.00  0.00     0.017 C 
HETATM    9 CL1  UNL     1      21.554   1.313  50.253  1.00  0.00    -0.089 Cl
HETATM   10  C16 UNL     1      23.863   2.913  49.620  1.00  0.00     0.136 C 
ENDROOT
BRANCH   1  11
HETATM   11  O2  UNL     1      24.462   3.765  52.071  1.00  0.00    -0.337 OA
BRANCH  11  12
HETATM   12  C6  UNL     1      24.154   2.641  52.882  1.00  0.00     0.186 C 
BRANCH  12  13
HETATM   13  C5  UNL     1      25.277   1.661  52.812  1.00  0.00     0.070 C 
HETATM   14  C4  UNL     1      26.279   1.813  53.941  1.00  0.00     0.287 C 
HETATM   15  N1  UNL     1      26.834   0.479  53.979  1.00  0.00     0.097 N 
HETATM   16  C3  UNL     1      28.049  -0.222  53.905  1.00  0.00     0.374 A 
HETATM   17  C19 UNL     1      25.575  -0.268  54.161  1.00  0.00     0.310 C 
HETATM   18  O1  UNL     1      28.084   1.047  53.814  1.00  0.00    -0.144 OA
HETATM   19  C17 UNL     1      24.808   0.208  52.918  1.00  0.00     0.157 C 
BRANCH  16  20
HETATM   20  C2  UNL     1      29.442  -0.541  53.786  1.00  0.00     0.042 C 
HETATM   21  C1  UNL     1      29.426  -1.797  53.355  1.00  0.00     0.012 C 
ENDBRANCH  16  20
BRANCH  19  22
HETATM   22  O4  UNL     1      23.447   0.096  53.103  1.00  0.00    -0.388 OA
HETATM   23  C18 UNL     1      23.242  -0.801  54.154  1.00  0.00     0.202 C 
ENDBRANCH  19  22
ENDBRANCH  12  13
ENDBRANCH  11  12
ENDBRANCH   1  11
BRANCH   3  24
HETATM   24  N3  UNL     1      23.976   6.946  49.892  1.00  0.00    -0.248 N 
HETATM   25  C9  UNL     1      25.124   7.009  50.593  1.00  0.00     0.148 A 
HETATM   26  C10 UNL     1      25.890   8.050  50.071  1.00  0.00     0.090 A 
HETATM   27  C11 UNL     1      25.140   8.581  49.045  1.00  0.00     0.171 A 
HETATM   28  N5  UNL     1      23.987   7.895  48.959  1.00  0.00    -0.180 NA
BRANCH  26  29
HETATM   29  N4  UNL     1      27.180   8.531  50.452  1.00  0.00    -0.267 N 
HETATM   30  H11 UNL     1      28.162   8.192  50.356  1.00  0.00     0.194 HD
BRANCH  29  31
HETATM   31  O3  UNL     1      27.150   9.712  51.097  1.00  0.00    -0.289 OA
HETATM   32  H12 UNL     1      27.826   9.789  51.798  1.00  0.00     0.244 HD
ENDBRANCH  29  31
ENDBRANCH  26  29
ENDBRANCH   3  24
TORSDOF 8
ENDMDL
MODEL 3
REMARK VINA RESULT:      -7.5      2.715      4.946
REMARK  8 active torsions:
REMARK  status: ('A' for Active; 'I' for Inactive)
REMARK    1  A    between atoms: C2_2  and  C3_3 
REMARK    2  A    between atoms: C5_7  and  C6_8 
REMARK    3  A    between atoms: C6_8  and  O2_9 
REMARK    4  A    between atoms: O2_9  and  C7_10 
REMARK    5  A    between atoms: C8_12  and  N3_13 
REMARK    6  A    between atoms: C10_15  and  N4_16 
REMARK    7  A    between atoms: N4_16  and  O3_17 
REMARK    8  A    between atoms: C17_27  and  O4_28 
ROOT
HETATM    1  C7  UNL     1      23.144   3.287  51.311  1.00  0.00     0.142 C 
HETATM    2  N2  UNL     1      22.548   2.544  50.567  1.00  0.00    -0.237 NA
HETATM    3  C8  UNL     1      22.135   1.325  50.131  1.00  0.00     0.273 C 
HETATM    4  C12 UNL     1      21.576   1.304  48.728  1.00  0.00     0.297 C 
HETATM    5  N6  UNL     1      21.110   2.209  47.924  1.00  0.00    -0.418 NA
HETATM    6  C13 UNL     1      21.061   3.594  48.356  1.00  0.00     0.136 C 
HETATM    7  C14 UNL     1      22.460   4.075  48.275  1.00  0.00     0.011 C 
HETATM    8  C15 UNL     1      23.339   4.519  49.203  1.00  0.00     0.017 C 
HETATM    9 CL1  UNL     1      24.993   5.058  48.902  1.00  0.00    -0.089 Cl
HETATM   10  C16 UNL     1      22.719   4.503  50.578  1.00  0.00     0.136 C 
ENDROOT
BRANCH   1  11
HETATM   11  O2  UNL     1      23.916   2.996  52.418  1.00  0.00    -0.337 OA
BRANCH  11  12
HETATM   12  C6  UNL     1      23.721   1.760  53.089  1.00  0.00     0.186 C 
BRANCH  12  13
HETATM   13  C5  UNL     1      24.991   0.979  53.061  1.00  0.00     0.070 C 
HETATM   14  C4  UNL     1      26.130   1.657  53.799  1.00  0.00     0.287 C 
HETATM   15  N1  UNL     1      26.950   0.512  54.124  1.00  0.00     0.097 N 
HETATM   16  C3  UNL     1      28.250  -0.000  53.981  1.00  0.00     0.374 A 
HETATM   17  C19 UNL     1      25.932  -0.280  54.839  1.00  0.00     0.310 C 
HETATM   18  O1  UNL     1      28.000   1.144  53.483  1.00  0.00    -0.144 OA
HETATM   19  C17 UNL     1      24.866  -0.388  53.739  1.00  0.00     0.157 C 
BRANCH  16  20
HETATM   20  C2  UNL     1      29.633  -0.153  53.631  1.00  0.00     0.042 C 
HETATM   21  C1  UNL     1      29.789  -1.471  53.597  1.00  0.00     0.012 C 
ENDBRANCH  16  20
BRANCH  19  22
HETATM   22  O4  UNL     1      23.617  -0.606  54.279  1.00  0.00    -0.388 OA
HETATM   23  C18 UNL     1      23.796  -1.310  55.472  1.00  0.00     0.202 C 
ENDBRANCH  19  22
ENDBRANCH  12  13
ENDBRANCH  11  12
ENDBRANCH   1  11
BRANCH   3  24
HETATM   24  N3  UNL     1      21.017   0.854  50.965  1.00  0.00    -0.248 N 
HETATM   25  C9  UNL     1      21.138   0.166  52.115  1.00  0.00     0.148 A 
HETATM   26  C10 UNL     1      19.857  -0.093  52.599  1.00  0.00     0.090 A 
HETATM   27  C11 UNL     1      18.996   0.472  51.684  1.00  0.00     0.171 A 
HETATM   28  N5  UNL     1      19.725   1.038  50.705  1.00  0.00    -0.180 NA
BRANCH  26  29
HETATM   29  N4  UNL     1      19.434  -0.785  53.775  1.00  0.00    -0.267 N 
HETATM   30  H11 UNL     1      18.520  -0.977  54.240  1.00  0.00     0.194 HD
BRANCH  29  31
HETATM   31  O3  UNL     1      20.444  -1.333  54.476  1.00  0.00    -0.289 OA
HETATM   32  H12 UNL     1      21.239  -1.511  53.937  1.00  0.00     0.244 HD
ENDBRANCH  29  31
ENDBRANCH  26  29
ENDBRANCH   3  24
TORSDOF 8
ENDMDL
MODEL 4
REMARK VINA RESULT:      -7.4      3.053      6.659
REMARK  8 active torsions:
REMARK  status: ('A' for Active; 'I' for Inactive)
REMARK    1  A    between atoms: C2_2  and  C3_3 
REMARK    2  A    between atoms: C5_7  and  C6_8 
REMARK    3  A    between atoms: C6_8  and  O2_9 
REMARK    4  A    between atoms: O2_9  and  C7_10 
REMARK    5  A    between atoms: C8_12  and  N3_13 
REMARK    6  A    between atoms: C10_15  and  N4_16 
REMARK    7  A    between atoms: N4_16  and  O3_17 
REMARK    8  A    between atoms: C17_27  and  O4_28 
ROOT
HETATM    1  C7  UNL     1      22.358   1.176  51.686  1.00  0.00     0.142 C 
HETATM    2  N2  UNL     1      22.702   0.393  52.541  1.00  0.00    -0.237 NA
HETATM    3  C8  UNL     1      23.512  -0.562  53.068  1.00  0.00     0.273 C 
HETATM    4  C12 UNL     1      22.932  -1.317  54.239  1.00  0.00     0.297 C 
HETATM    5  N6  UNL     1      21.965  -1.093  55.073  1.00  0.00    -0.418 NA
HETATM    6  C13 UNL     1      21.189   0.128  54.957  1.00  0.00     0.136 C 
HETATM    7  C14 UNL     1      20.295  -0.088  53.796  1.00  0.00     0.011 C 
HETATM    8  C15 UNL     1      20.179   0.521  52.593  1.00  0.00     0.017 C 
HETATM    9 CL1  UNL     1      19.029   0.109  51.319  1.00  0.00    -0.089 Cl
HETATM   10  C16 UNL     1      21.183   1.639  52.461  1.00  0.00     0.136 C 
ENDROOT
BRANCH   1  11
HETATM   11  O2  UNL     1      22.931   1.453  50.461  1.00  0.00    -0.337 OA
BRANCH  11  12
HETATM   12  C6  UNL     1      23.719   2.626  50.319  1.00  0.00     0.186 C 
BRANCH  12  13
HETATM   13  C5  UNL     1      23.281   3.369  49.102  1.00  0.00     0.070 C 
HETATM   14  C4  UNL     1      22.415   2.540  48.171  1.00  0.00     0.287 C 
HETATM   15  N1  UNL     1      21.690   3.587  47.487  1.00  0.00     0.097 N 
HETATM   16  C3  UNL     1      21.403   4.086  46.206  1.00  0.00     0.374 A 
HETATM   17  C19 UNL     1      21.123   4.258  48.671  1.00  0.00     0.310 C 
HETATM   18  O1  UNL     1      22.149   3.058  46.294  1.00  0.00    -0.144 OA
HETATM   19  C17 UNL     1      22.419   4.591  49.427  1.00  0.00     0.157 C 
BRANCH  16  20
HETATM   20  C2  UNL     1      21.358   4.267  44.784  1.00  0.00     0.042 C 
HETATM   21  C1  UNL     1      21.686   5.545  44.634  1.00  0.00     0.012 C 
ENDBRANCH  16  20
BRANCH  19  22
HETATM   22  O4  UNL     1      22.182   4.736  50.777  1.00  0.00    -0.388 OA
HETATM   23  C18 UNL     1      20.822   5.015  50.934  1.00  0.00     0.202 C 
ENDBRANCH  19  22
ENDBRANCH  12  13
ENDBRANCH  11  12
ENDBRANCH   1  11
BRANCH   3  24
HETATM   24  N3  UNL     1      24.726   0.066  53.616  1.00  0.00    -0.248 N 
HETATM   25  C9  UNL     1      25.266   1.223  53.191  1.00  0.00     0.148 A 
HETATM   26  C10 UNL     1      26.402   1.475  53.958  1.00  0.00     0.090 A 
HETATM   27  C11 UNL     1      26.493   0.420  54.840  1.00  0.00     0.171 A 
HETATM   28  N5  UNL     1      25.467  -0.418  54.610  1.00  0.00    -0.180 NA
BRANCH  26  29
HETATM   29  N4  UNL     1      27.327   2.562  53.912  1.00  0.00    -0.267 N 
HETATM   30  H11 UNL     1      27.671   3.279  54.586  1.00  0.00     0.194 HD
BRANCH  29  31
HETATM   31  O3  UNL     1      27.917   2.723  52.712  1.00  0.00    -0.289 OA
HETATM   32  H12 UNL     1      28.884   2.595  52.734  1.00  0.00     0.244 HD
ENDBRANCH  29  31
ENDBRANCH  26  29
ENDBRANCH   3  24
TORSDOF 8
ENDMDL
MODEL 5
REMARK VINA RESULT:      -7.4      2.070      3.284
REMARK  8 active torsions:
REMARK  status: ('A' for Active; 'I' for Inactive)
REMARK    1  A    between atoms: C2_2  and  C3_3 
REMARK    2  A    between atoms: C5_7  and  C6_8 
REMARK    3  A    between atoms: C6_8  and  O2_9 
REMARK    4  A    between atoms: O2_9  and  C7_10 
REMARK    5  A    between atoms: C8_12  and  N3_13 
REMARK    6  A    between atoms: C10_15  and  N4_16 
REMARK    7  A    between atoms: N4_16  and  O3_17 
REMARK    8  A    between atoms: C17_27  and  O4_28 
ROOT
HETATM    1  C7  UNL     1      22.190   2.684  50.704  1.00  0.00     0.142 C 
HETATM    2  N2  UNL     1      22.716   3.765  50.828  1.00  0.00    -0.237 NA
HETATM    3  C8  UNL     1      23.662   4.616  51.304  1.00  0.00     0.273 C 
HETATM    4  C12 UNL     1      23.324   6.082  51.182  1.00  0.00     0.297 C 
HETATM    5  N6  UNL     1      22.482   6.762  50.467  1.00  0.00    -0.418 NA
HETATM    6  C13 UNL     1      21.614   6.069  49.532  1.00  0.00     0.136 C 
HETATM    7  C14 UNL     1      20.570   5.435  50.369  1.00  0.00     0.011 C 
HETATM    8  C15 UNL     1      20.228   4.146  50.601  1.00  0.00     0.017 C 
HETATM    9 CL1  UNL     1      18.927   3.583  51.653  1.00  0.00    -0.089 Cl
HETATM   10  C16 UNL     1      21.119   3.209  49.824  1.00  0.00     0.136 C 
ENDROOT
BRANCH   1  11
HETATM   11  O2  UNL     1      22.546   1.462  51.239  1.00  0.00    -0.337 OA
BRANCH  11  12
HETATM   12  C6  UNL     1      22.999   1.404  52.584  1.00  0.00     0.186 C 
BRANCH  12  13
HETATM   13  C5  UNL     1      24.237   0.576  52.651  1.00  0.00     0.070 C 
HETATM   14  C4  UNL     1      25.390   1.274  53.347  1.00  0.00     0.287 C 
HETATM   15  N1  UNL     1      26.159   0.133  53.789  1.00  0.00     0.097 N 
HETATM   16  C3  UNL     1      27.439  -0.440  53.718  1.00  0.00     0.374 A 
HETATM   17  C19 UNL     1      25.099  -0.551  54.554  1.00  0.00     0.310 C 
HETATM   18  O1  UNL     1      27.243   0.662  53.113  1.00  0.00    -0.144 OA
HETATM   19  C17 UNL     1      24.046  -0.718  53.448  1.00  0.00     0.157 C 
BRANCH  16  20
HETATM   20  C2  UNL     1      28.820  -0.677  53.410  1.00  0.00     0.042 C 
HETATM   21  C1  UNL     1      29.407   0.456  53.776  1.00  0.00     0.012 C 
ENDBRANCH  16  20
BRANCH  19  22
HETATM   22  O4  UNL     1      22.781  -0.837  53.981  1.00  0.00    -0.388 OA
HETATM   23  C18 UNL     1      22.923  -1.311  55.288  1.00  0.00     0.202 C 
ENDBRANCH  19  22
ENDBRANCH  12  13
ENDBRANCH  11  12
ENDBRANCH   1  11
BRANCH   3  24
HETATM   24  N3  UNL     1      24.898   4.471  50.518  1.00  0.00    -0.248 N 
HETATM   25  C9  UNL     1      25.590   5.479  49.958  1.00  0.00     0.148 A 
HETATM   26  C10 UNL     1      26.692   4.934  49.301  1.00  0.00     0.090 A 
HETATM   27  C11 UNL     1      26.608   3.574  49.507  1.00  0.00     0.171 A 
HETATM   28  N5  UNL     1      25.512   3.322  50.246  1.00  0.00    -0.180 NA
BRANCH  26  29
HETATM   29  N4  UNL     1      27.732   5.567  48.556  1.00  0.00    -0.267 N 
HETATM   30  H11 UNL     1      27.780   6.190  47.720  1.00  0.00     0.194 HD
BRANCH  29  31
HETATM   31  O3  UNL     1      28.969   5.316  49.027  1.00  0.00    -0.289 OA
HETATM   32  H12 UNL     1      29.108   4.381  49.270  1.00  0.00     0.244 HD
ENDBRANCH  29  31
ENDBRANCH  26  29
ENDBRANCH   3  24
TORSDOF 8
ENDMDL
MODEL 6
REMARK VINA RESULT:      -7.4      2.417      3.964
REMARK  8 active torsions:
REMARK  status: ('A' for Active; 'I' for Inactive)
REMARK    1  A    between atoms: C2_2  and  C3_3 
REMARK    2  A    between atoms: C5_7  and  C6_8 
REMARK    3  A    between atoms: C6_8  and  O2_9 
REMARK    4  A    between atoms: O2_9  and  C7_10 
REMARK    5  A    between atoms: C8_12  and  N3_13 
REMARK    6  A    between atoms: C10_15  and  N4_16 
REMARK    7  A    between atoms: N4_16  and  O3_17 
REMARK    8  A    between atoms: C17_27  and  O4_28 
ROOT
HETATM    1  C7  UNL     1      24.752   3.691  50.514  1.00  0.00     0.142 C 
HETATM    2  N2  UNL     1      24.197   4.684  50.104  1.00  0.00    -0.237 NA
HETATM    3  C8  UNL     1      23.849   5.997  50.152  1.00  0.00     0.273 C 
HETATM    4  C12 UNL     1      22.700   6.387  49.254  1.00  0.00     0.297 C 
HETATM    5  N6  UNL     1      22.139   5.851  48.215  1.00  0.00    -0.418 NA
HETATM    6  C13 UNL     1      22.640   4.588  47.703  1.00  0.00     0.136 C 
HETATM    7  C14 UNL     1      22.143   3.562  48.648  1.00  0.00     0.011 C 
HETATM    8  C15 UNL     1      22.764   2.698  49.484  1.00  0.00     0.017 C 
HETATM    9 CL1  UNL     1      21.980   1.529  50.550  1.00  0.00    -0.089 Cl
HETATM   10  C16 UNL     1      24.262   2.851  49.395  1.00  0.00     0.136 C 
ENDROOT
BRANCH   1  11
HETATM   11  O2  UNL     1      25.535   3.517  51.637  1.00  0.00    -0.337 OA
BRANCH  11  12
HETATM   12  C6  UNL     1      26.068   2.230  51.912  1.00  0.00     0.186 C 
BRANCH  12  13
HETATM   13  C5  UNL     1      25.241   1.568  52.961  1.00  0.00     0.070 C 
HETATM   14  C4  UNL     1      24.654   0.241  52.516  1.00  0.00     0.287 C 
HETATM   15  N1  UNL     1      24.463  -0.403  53.796  1.00  0.00     0.097 N 
HETATM   16  C3  UNL     1      23.486  -1.014  54.598  1.00  0.00     0.374 A 
HETATM   17  C19 UNL     1      25.848  -0.301  54.292  1.00  0.00     0.310 C 
HETATM   18  O1  UNL     1      23.132  -0.569  53.459  1.00  0.00    -0.144 OA
HETATM   19  C17 UNL     1      26.039   1.222  54.221  1.00  0.00     0.157 C 
BRANCH  16  20
HETATM   20  C2  UNL     1      22.242  -1.540  55.081  1.00  0.00     0.042 C 
HETATM   21  C1  UNL     1      21.362  -0.618  54.710  1.00  0.00     0.012 C 
ENDBRANCH  16  20
BRANCH  19  22
HETATM   22  O4  UNL     1      27.373   1.550  54.117  1.00  0.00    -0.388 OA
HETATM   23  C18 UNL     1      28.109   0.456  54.578  1.00  0.00     0.202 C 
ENDBRANCH  19  22
ENDBRANCH  12  13
ENDBRANCH  11  12
ENDBRANCH   1  11
BRANCH   3  24
HETATM   24  N3  UNL     1      24.970   6.823  49.675  1.00  0.00    -0.248 N 
HETATM   25  C9  UNL     1      25.766   7.582  50.451  1.00  0.00     0.148 A 
HETATM   26  C10 UNL     1      26.701   8.207  49.627  1.00  0.00     0.090 A 
HETATM   27  C11 UNL     1      26.411   7.779  48.350  1.00  0.00     0.171 A 
HETATM   28  N5  UNL     1      25.359   6.944  48.408  1.00  0.00    -0.180 NA
BRANCH  26  29
HETATM   29  N4  UNL     1      27.761   9.108  49.948  1.00  0.00    -0.267 N 
HETATM   30  H11 UNL     1      28.570   9.522  49.436  1.00  0.00     0.194 HD
BRANCH  29  31
HETATM   31  O3  UNL     1      27.734   9.547  51.221  1.00  0.00    -0.289 OA
HETATM   32  H12 UNL     1      26.984  10.144  51.410  1.00  0.00     0.244 HD
ENDBRANCH  29  31
ENDBRANCH  26  29
ENDBRANCH   3  24
TORSDOF 8
ENDMDL
MODEL 7
REMARK VINA RESULT:      -7.3      2.950      7.251
REMARK  8 active torsions:
REMARK  status: ('A' for Active; 'I' for Inactive)
REMARK    1  A    between atoms: C2_2  and  C3_3 
REMARK    2  A    between atoms: C5_7  and  C6_8 
REMARK    3  A    between atoms: C6_8  and  O2_9 
REMARK    4  A    between atoms: O2_9  and  C7_10 
REMARK    5  A    between atoms: C8_12  and  N3_13 
REMARK    6  A    between atoms: C10_15  and  N4_16 
REMARK    7  A    between atoms: N4_16  and  O3_17 
REMARK    8  A    between atoms: C17_27  and  O4_28 
ROOT
HETATM    1  C7  UNL     1      25.151   2.501  52.998  1.00  0.00     0.142 C 
HETATM    2  N2  UNL     1      24.977   1.374  53.400  1.00  0.00    -0.237 NA
HETATM    3  C8  UNL     1      24.381   0.433  54.178  1.00  0.00     0.273 C 
HETATM    4  C12 UNL     1      25.108  -0.887  54.256  1.00  0.00     0.297 C 
HETATM    5  N6  UNL     1      26.015  -1.467  53.532  1.00  0.00    -0.418 NA
HETATM    6  C13 UNL     1      26.526  -0.794  52.352  1.00  0.00     0.136 C 
HETATM    7  C14 UNL     1      27.439   0.253  52.867  1.00  0.00     0.011 C 
HETATM    8  C15 UNL     1      27.422   1.604  52.805  1.00  0.00     0.017 C 
HETATM    9 CL1  UNL     1      28.626   2.697  53.495  1.00  0.00    -0.089 Cl
HETATM   10  C16 UNL     1      26.212   2.090  52.048  1.00  0.00     0.136 C 
ENDROOT
BRANCH   1  11
HETATM   11  O2  UNL     1      24.528   3.676  53.366  1.00  0.00    -0.337 OA
BRANCH  11  12
HETATM   12  C6  UNL     1      23.705   4.345  52.422  1.00  0.00     0.186 C 
BRANCH  12  13
HETATM   13  C5  UNL     1      22.595   3.439  52.008  1.00  0.00     0.070 C 
HETATM   14  C4  UNL     1      21.217   4.020  52.266  1.00  0.00     0.287 C 
HETATM   15  N1  UNL     1      20.439   3.293  51.289  1.00  0.00     0.097 N 
HETATM   16  C3  UNL     1      19.317   2.458  51.160  1.00  0.00     0.374 A 
HETATM   17  C19 UNL     1      21.214   3.657  50.089  1.00  0.00     0.310 C 
HETATM   18  O1  UNL     1      19.621   2.875  52.324  1.00  0.00    -0.144 OA
HETATM   19  C17 UNL     1      22.599   3.138  50.506  1.00  0.00     0.157 C 
BRANCH  16  20
HETATM   20  C2  UNL     1      18.157   1.666  51.450  1.00  0.00     0.042 C 
HETATM   21  C1  UNL     1      18.261   0.657  50.593  1.00  0.00     0.012 C 
ENDBRANCH  16  20
BRANCH  19  22
HETATM   22  O4  UNL     1      23.601   3.800  49.830  1.00  0.00    -0.388 OA
HETATM   23  C18 UNL     1      22.997   4.543  48.814  1.00  0.00     0.202 C 
ENDBRANCH  19  22
ENDBRANCH  12  13
ENDBRANCH  11  12
ENDBRANCH   1  11
BRANCH   3  24
HETATM   24  N3  UNL     1      23.068   0.083  53.611  1.00  0.00    -0.248 N 
HETATM   25  C9  UNL     1      21.953  -0.171  54.321  1.00  0.00     0.148 A 
HETATM   26  C10 UNL     1      20.928  -0.463  53.424  1.00  0.00     0.090 A 
HETATM   27  C11 UNL     1      21.495  -0.366  52.172  1.00  0.00     0.171 A 
HETATM   28  N5  UNL     1      22.791  -0.036  52.315  1.00  0.00    -0.180 NA
BRANCH  26  29
HETATM   29  N4  UNL     1      19.560  -0.798  53.659  1.00  0.00    -0.267 N 
HETATM   30  H11 UNL     1      18.640  -0.330  53.510  1.00  0.00     0.194 HD
BRANCH  29  31
HETATM   31  O3  UNL     1      19.386  -2.015  54.208  1.00  0.00    -0.289 OA
HETATM   32  H12 UNL     1      19.501  -2.024  55.177  1.00  0.00     0.244 HD
ENDBRANCH  29  31
ENDBRANCH  26  29
ENDBRANCH   3  24
TORSDOF 8
ENDMDL
MODEL 8
REMARK VINA RESULT:      -7.3      2.557      6.378
REMARK  8 active torsions:
REMARK  status: ('A' for Active; 'I' for Inactive)
REMARK    1  A    between atoms: C2_2  and  C3_3 
REMARK    2  A    between atoms: C5_7  and  C6_8 
REMARK    3  A    between atoms: C6_8  and  O2_9 
REMARK    4  A    between atoms: O2_9  and  C7_10 
REMARK    5  A    between atoms: C8_12  and  N3_13 
REMARK    6  A    between atoms: C10_15  and  N4_16 
REMARK    7  A    between atoms: N4_16  and  O3_17 
REMARK    8  A    between atoms: C17_27  and  O4_28 
ROOT
HETATM    1  C7  UNL     1      22.487   1.237  51.809  1.00  0.00     0.142 C 
HETATM    2  N2  UNL     1      22.843   0.412  52.617  1.00  0.00    -0.237 NA
HETATM    3  C8  UNL     1      23.664  -0.565  53.085  1.00  0.00     0.273 C 
HETATM    4  C12 UNL     1      23.098  -1.388  54.217  1.00  0.00     0.297 C 
HETATM    5  N6  UNL     1      22.135  -1.218  55.068  1.00  0.00    -0.418 NA
HETATM    6  C13 UNL     1      21.349   0.002  55.025  1.00  0.00     0.136 C 
HETATM    7  C14 UNL     1      20.449  -0.157  53.859  1.00  0.00     0.011 C 
HETATM    8  C15 UNL     1      20.320   0.517  52.693  1.00  0.00     0.017 C 
HETATM    9 CL1  UNL     1      19.163   0.166  51.406  1.00  0.00    -0.089 Cl
HETATM   10  C16 UNL     1      21.314   1.648  52.616  1.00  0.00     0.136 C 
ENDROOT
BRANCH   1  11
HETATM   11  O2  UNL     1      23.048   1.587  50.597  1.00  0.00    -0.337 OA
BRANCH  11  12
HETATM   12  C6  UNL     1      24.017   2.625  50.560  1.00  0.00     0.186 C 
BRANCH  12  13
HETATM   13  C5  UNL     1      23.366   3.889  50.109  1.00  0.00     0.070 C 
HETATM   14  C4  UNL     1      22.885   4.760  51.255  1.00  0.00     0.287 C 
HETATM   15  N1  UNL     1      22.885   6.056  50.616  1.00  0.00     0.097 N 
HETATM   16  C3  UNL     1      22.058   7.154  50.330  1.00  0.00     0.374 A 
HETATM   17  C19 UNL     1      24.292   6.073  50.174  1.00  0.00     0.310 C 
HETATM   18  O1  UNL     1      21.553   6.176  50.970  1.00  0.00    -0.144 OA
HETATM   19  C17 UNL     1      24.312   4.798  49.319  1.00  0.00     0.157 C 
BRANCH  16  20
HETATM   20  C2  UNL     1      20.928   8.034  50.246  1.00  0.00     0.042 C 
HETATM   21  C1  UNL     1      20.096   7.378  49.445  1.00  0.00     0.012 C 
ENDBRANCH  16  20
BRANCH  19  22
HETATM   22  O4  UNL     1      25.588   4.287  49.220  1.00  0.00    -0.388 OA
HETATM   23  C18 UNL     1      26.444   5.356  48.943  1.00  0.00     0.202 C 
ENDBRANCH  19  22
ENDBRANCH  12  13
ENDBRANCH  11  12
ENDBRANCH   1  11
BRANCH   3  24
HETATM   24  N3  UNL     1      24.877   0.042  53.658  1.00  0.00    -0.248 N 
HETATM   25  C9  UNL     1      25.433   1.201  53.261  1.00  0.00     0.148 A 
HETATM   26  C10 UNL     1      26.561   1.429  54.046  1.00  0.00     0.090 A 
HETATM   27  C11 UNL     1      26.632   0.357  54.909  1.00  0.00     0.171 A 
HETATM   28  N5  UNL     1      25.601  -0.467  54.652  1.00  0.00    -0.180 NA
BRANCH  26  29
HETATM   29  N4  UNL     1      27.497   2.508  54.031  1.00  0.00    -0.267 N 
HETATM   30  H11 UNL     1      27.882   3.172  54.736  1.00  0.00     0.194 HD
BRANCH  29  31
HETATM   31  O3  UNL     1      28.029   2.747  52.817  1.00  0.00    -0.289 OA
HETATM   32  H12 UNL     1      28.216   3.692  52.655  1.00  0.00     0.244 HD
ENDBRANCH  29  31
ENDBRANCH  26  29
ENDBRANCH   3  24
TORSDOF 8
ENDMDL
MODEL 9
REMARK VINA RESULT:      -7.3      2.619      6.005
REMARK  8 active torsions:
REMARK  status: ('A' for Active; 'I' for Inactive)
REMARK    1  A    between atoms: C2_2  and  C3_3 
REMARK    2  A    between atoms: C5_7  and  C6_8 
REMARK    3  A    between atoms: C6_8  and  O2_9 
REMARK    4  A    between atoms: O2_9  and  C7_10 
REMARK    5  A    between atoms: C8_12  and  N3_13 
REMARK    6  A    between atoms: C10_15  and  N4_16 
REMARK    7  A    between atoms: N4_16  and  O3_17 
REMARK    8  A    between atoms: C17_27  and  O4_28 
ROOT
HETATM    1  C7  UNL     1      22.357   1.165  51.902  1.00  0.00     0.142 C 
HETATM    2  N2  UNL     1      22.775   0.347  52.688  1.00  0.00    -0.237 NA
HETATM    3  C8  UNL     1      23.652  -0.600  53.115  1.00  0.00     0.273 C 
HETATM    4  C12 UNL     1      23.160  -1.457  54.257  1.00  0.00     0.297 C 
HETATM    5  N6  UNL     1      22.221  -1.335  55.143  1.00  0.00    -0.418 NA
HETATM    6  C13 UNL     1      21.384  -0.149  55.141  1.00  0.00     0.136 C 
HETATM    7  C14 UNL     1      20.451  -0.333  54.006  1.00  0.00     0.011 C 
HETATM    8  C15 UNL     1      20.254   0.346  52.853  1.00  0.00     0.017 C 
HETATM    9 CL1  UNL     1      19.068  -0.039  51.602  1.00  0.00    -0.089 Cl
HETATM   10  C16 UNL     1      21.198   1.518  52.754  1.00  0.00     0.136 C 
ENDROOT
BRANCH   1  11
HETATM   11  O2  UNL     1      22.861   1.549  50.676  1.00  0.00    -0.337 OA
BRANCH  11  12
HETATM   12  C6  UNL     1      22.196   2.570  49.946  1.00  0.00     0.186 C 
BRANCH  12  13
HETATM   13  C5  UNL     1      23.036   3.802  49.946  1.00  0.00     0.070 C 
HETATM   14  C4  UNL     1      24.256   3.697  49.049  1.00  0.00     0.287 C 
HETATM   15  N1  UNL     1      24.500   5.095  48.774  1.00  0.00     0.097 N 
HETATM   16  C3  UNL     1      25.489   6.087  48.858  1.00  0.00     0.374 A 
HETATM   17  C19 UNL     1      23.173   5.437  48.230  1.00  0.00     0.310 C 
HETATM   18  O1  UNL     1      25.783   4.915  49.258  1.00  0.00    -0.144 OA
HETATM   19  C17 UNL     1      22.291   5.033  49.422  1.00  0.00     0.157 C 
BRANCH  16  20
HETATM   20  C2  UNL     1      26.724   6.775  49.103  1.00  0.00     0.042 C 
HETATM   21  C1  UNL     1      27.589   6.123  48.336  1.00  0.00     0.012 C 
ENDBRANCH  16  20
BRANCH  19  22
HETATM   22  O4  UNL     1      21.006   4.748  49.014  1.00  0.00    -0.388 OA
HETATM   23  C18 UNL     1      20.185   5.781  49.471  1.00  0.00     0.202 C 
ENDBRANCH  19  22
ENDBRANCH  12  13
ENDBRANCH  11  12
ENDBRANCH   1  11
BRANCH   3  24
HETATM   24  N3  UNL     1      24.857   0.051  53.654  1.00  0.00    -0.248 N 
HETATM   25  C9  UNL     1      25.312   1.267  53.300  1.00  0.00     0.148 A 
HETATM   26  C10 UNL     1      26.473   1.521  54.029  1.00  0.00     0.090 A 
HETATM   27  C11 UNL     1      26.666   0.407  54.815  1.00  0.00     0.171 A 
HETATM   28  N5  UNL     1      25.675  -0.468  54.567  1.00  0.00    -0.180 NA
BRANCH  26  29
HETATM   29  N4  UNL     1      27.335   2.660  54.028  1.00  0.00    -0.267 N 
HETATM   30  H11 UNL     1      27.240   3.669  53.784  1.00  0.00     0.194 HD
BRANCH  29  31
HETATM   31  O3  UNL     1      28.589   2.391  54.439  1.00  0.00    -0.289 OA
HETATM   32  H12 UNL     1      28.633   1.688  55.116  1.00  0.00     0.244 HD
ENDBRANCH  29  31
ENDBRANCH  26  29
ENDBRANCH   3  24
TORSDOF 8
ENDMDL
