MODEL 1
REMARK VINA RESULT:      -8.8      0.000      0.000
REMARK  2 active torsions:
REMARK  status: ('A' for Active; 'I' for Inactive)
REMARK    1  A    between atoms: O1_1  and  C1_2 
REMARK    2  A    between atoms: C5_6  and  N1_7 
REMARK       I    between atoms: N1_7  and  C6_8 
ROOT
HETATM    1  N1  UNL     1      25.204   1.131  52.467  1.00  0.00    -0.188 N 
HETATM    2  C6  UNL     1      24.837   2.210  51.621  1.00  0.00     0.724 C 
HETATM    3  N2  UNL     1      25.666   2.472  50.638  1.00  0.00    -0.079 NA
HETATM    4  C7  UNL     1      25.268   3.581  49.787  1.00  0.00     0.344 C 
HETATM    5  O2  UNL     1      25.865   4.796  50.256  1.00  0.00    -0.330 OA
HETATM    6  C8  UNL     1      25.412   6.019  49.812  1.00  0.00     0.072 C 
HETATM    7  C9  UNL     1      25.485   6.331  48.503  1.00  0.00     0.036 C 
HETATM    8  C10 UNL     1      24.620   7.340  47.857  1.00  0.00    -0.001 C 
HETATM    9  C11 UNL     1      23.636   8.049  48.435  1.00  0.00    -0.021 C 
HETATM   10  C12 UNL     1      22.969   8.000  49.738  1.00  0.00     0.083 C 
HETATM   11  C13 UNL     1      23.552   7.091  50.728  1.00  0.00     0.011 C 
HETATM   12  C14 UNL     1      24.873   6.881  50.896  1.00  0.00     0.061 C 
HETATM   13  N3  UNL     1      22.611   6.408  51.533  1.00  0.00    -0.383 N 
HETATM   14  C15 UNL     1      22.102   5.150  51.917  1.00  0.00     0.132 C 
HETATM   15  C16 UNL     1      22.071   3.864  52.161  1.00  0.00     0.020 C 
HETATM   16  C17 UNL     1      22.538   2.464  52.277  1.00  0.00     0.134 C 
HETATM   17  N4  UNL     1      23.638   2.935  51.855  1.00  0.00    -0.076 NA
HETATM   18  H5  UNL     1      24.441   0.476  52.792  1.00  0.00     0.184 HD
HETATM   19  H14 UNL     1      22.065   7.115  52.058  1.00  0.00     0.160 HD
ENDROOT
BRANCH   1  20
HETATM   20  C5  UNL     1      26.533   0.887  52.900  1.00  0.00     0.052 A 
HETATM   21  C4  UNL     1      27.089  -0.389  52.749  1.00  0.00     0.030 A 
HETATM   22  C3  UNL     1      28.361  -0.711  53.145  1.00  0.00     0.005 A 
HETATM   23  C2  UNL     1      29.169   0.241  53.724  1.00  0.00     0.036 A 
HETATM   24  C1  UNL     1      28.655   1.509  53.889  1.00  0.00     0.067 A 
HETATM   25  C18 UNL     1      27.375   1.780  53.476  1.00  0.00     0.066 A 
BRANCH  24  26
HETATM   26  O1  UNL     1      29.460   2.482  54.473  1.00  0.00    -0.361 OA
HETATM   27  H1  UNL     1      30.002   3.084  53.868  1.00  0.00     0.217 HD
ENDBRANCH  24  26
ENDBRANCH   1  20
TORSDOF 2
ENDMDL
MODEL 2
REMARK VINA RESULT:      -8.5      2.861      5.031
REMARK  2 active torsions:
REMARK  status: ('A' for Active; 'I' for Inactive)
REMARK    1  A    between atoms: O1_1  and  C1_2 
REMARK    2  A    between atoms: C5_6  and  N1_7 
REMARK       I    between atoms: N1_7  and  C6_8 
ROOT
HETATM    1  N1  UNL     1      26.826   2.487  52.085  1.00  0.00    -0.188 N 
HETATM    2  C6  UNL     1      25.412   2.497  51.956  1.00  0.00     0.724 C 
HETATM    3  N2  UNL     1      24.740   2.083  53.004  1.00  0.00    -0.079 NA
HETATM    4  C7  UNL     1      23.295   2.102  52.846  1.00  0.00     0.344 C 
HETATM    5  O2  UNL     1      22.836   0.826  52.385  1.00  0.00    -0.330 OA
HETATM    6  C8  UNL     1      21.565   0.678  51.874  1.00  0.00     0.072 C 
HETATM    7  C9  UNL     1      20.494   0.932  52.651  1.00  0.00     0.036 C 
HETATM    8  C10 UNL     1      19.164   1.286  52.114  1.00  0.00    -0.001 C 
HETATM    9  C11 UNL     1      18.832   1.445  50.821  1.00  0.00    -0.021 C 
HETATM   10  C12 UNL     1      19.591   1.506  49.569  1.00  0.00     0.083 C 
HETATM   11  C13 UNL     1      21.018   1.187  49.665  1.00  0.00     0.011 C 
HETATM   12  C14 UNL     1      21.542   0.232  50.457  1.00  0.00     0.061 C 
HETATM   13  N3  UNL     1      21.857   1.977  48.845  1.00  0.00    -0.383 N 
HETATM   14  C15 UNL     1      22.924   2.899  48.816  1.00  0.00     0.132 C 
HETATM   15  C16 UNL     1      24.015   3.522  49.185  1.00  0.00     0.020 C 
HETATM   16  C17 UNL     1      25.203   3.874  49.997  1.00  0.00     0.134 C 
HETATM   17  N4  UNL     1      24.800   2.937  50.752  1.00  0.00    -0.076 NA
HETATM   18  H5  UNL     1      27.365   3.300  51.681  1.00  0.00     0.184 HD
HETATM   19  H14 UNL     1      21.579   1.823  47.858  1.00  0.00     0.160 HD
ENDROOT
BRANCH   1  20
HETATM   20  C5  UNL     1      27.550   1.447  52.723  1.00  0.00     0.052 A 
HETATM   21  C4  UNL     1      28.629   1.763  53.558  1.00  0.00     0.030 A 
HETATM   22  C3  UNL     1      29.384   0.822  54.207  1.00  0.00     0.005 A 
HETATM   23  C2  UNL     1      29.101  -0.518  54.058  1.00  0.00     0.036 A 
HETATM   24  C1  UNL     1      28.046  -0.867  53.243  1.00  0.00     0.067 A 
HETATM   25  C18 UNL     1      27.322   0.115  52.615  1.00  0.00     0.066 A 
BRANCH  24  26
HETATM   26  O1  UNL     1      27.749  -2.216  53.083  1.00  0.00    -0.361 OA
HETATM   27  H1  UNL     1      27.921  -2.643  52.181  1.00  0.00     0.217 HD
ENDBRANCH  24  26
ENDBRANCH   1  20
TORSDOF 2
ENDMDL
MODEL 3
REMARK VINA RESULT:      -8.1      3.319      5.822
REMARK  2 active torsions:
REMARK  status: ('A' for Active; 'I' for Inactive)
REMARK    1  A    between atoms: O1_1  and  C1_2 
REMARK    2  A    between atoms: C5_6  and  N1_7 
REMARK       I    between atoms: N1_7  and  C6_8 
ROOT
HETATM    1  N1  UNL     1      22.296   0.395  53.003  1.00  0.00    -0.188 N 
HETATM    2  C6  UNL     1      22.977   1.586  52.636  1.00  0.00     0.724 C 
HETATM    3  N2  UNL     1      22.280   2.694  52.733  1.00  0.00    -0.079 NA
HETATM    4  C7  UNL     1      22.999   3.899  52.352  1.00  0.00     0.344 C 
HETATM    5  O2  UNL     1      22.765   4.191  50.969  1.00  0.00    -0.330 OA
HETATM    6  C8  UNL     1      23.560   5.092  50.296  1.00  0.00     0.072 C 
HETATM    7  C9  UNL     1      23.609   6.378  50.698  1.00  0.00     0.036 C 
HETATM    8  C10 UNL     1      24.740   7.281  50.403  1.00  0.00    -0.001 C 
HETATM    9  C11 UNL     1      25.874   6.968  49.751  1.00  0.00    -0.021 C 
HETATM   10  C12 UNL     1      26.469   5.717  49.276  1.00  0.00     0.083 C 
HETATM   11  C13 UNL     1      25.627   4.523  49.377  1.00  0.00     0.011 C 
HETATM   12  C14 UNL     1      24.299   4.496  49.154  1.00  0.00     0.061 C 
HETATM   13  N3  UNL     1      26.314   3.343  49.745  1.00  0.00    -0.383 N 
HETATM   14  C15 UNL     1      26.432   2.314  50.703  1.00  0.00     0.132 C 
HETATM   15  C16 UNL     1      26.088   1.471  51.644  1.00  0.00     0.020 C 
HETATM   16  C17 UNL     1      25.236   0.765  52.628  1.00  0.00     0.134 C 
HETATM   17  N4  UNL     1      24.328   1.540  52.200  1.00  0.00    -0.076 NA
HETATM   18  H5  UNL     1      22.831  -0.331  53.554  1.00  0.00     0.184 HD
HETATM   19  H14 UNL     1      27.028   3.147  49.020  1.00  0.00     0.160 HD
ENDROOT
BRANCH   1  20
HETATM   20  C5  UNL     1      20.944   0.127  52.668  1.00  0.00     0.052 A 
HETATM   21  C4  UNL     1      20.468   0.448  51.390  1.00  0.00     0.030 A 
HETATM   22  C3  UNL     1      19.177   0.228  50.987  1.00  0.00     0.005 A 
HETATM   23  C2  UNL     1      18.267  -0.338  51.851  1.00  0.00     0.036 A 
HETATM   24  C1  UNL     1      18.700  -0.668  53.118  1.00  0.00     0.067 A 
HETATM   25  C18 UNL     1      20.003  -0.426  53.472  1.00  0.00     0.066 A 
BRANCH  24  26
HETATM   26  O1  UNL     1      17.791  -1.241  54.002  1.00  0.00    -0.361 OA
HETATM   27  H1  UNL     1      16.912  -1.580  53.635  1.00  0.00     0.217 HD
ENDBRANCH  24  26
ENDBRANCH   1  20
TORSDOF 2
ENDMDL
MODEL 4
REMARK VINA RESULT:      -8.1      2.669      4.681
REMARK  2 active torsions:
REMARK  status: ('A' for Active; 'I' for Inactive)
REMARK    1  A    between atoms: O1_1  and  C1_2 
REMARK    2  A    between atoms: C5_6  and  N1_7 
REMARK       I    between atoms: N1_7  and  C6_8 
ROOT
HETATM    1  N1  UNL     1      26.186   2.997  51.575  1.00  0.00    -0.188 N 
HETATM    2  C6  UNL     1      24.780   3.113  51.420  1.00  0.00     0.724 C 
HETATM    3  N2  UNL     1      24.063   2.822  52.480  1.00  0.00    -0.079 NA
HETATM    4  C7  UNL     1      22.627   2.948  52.296  1.00  0.00     0.344 C 
HETATM    5  O2  UNL     1      22.071   1.687  51.906  1.00  0.00    -0.330 OA
HETATM    6  C8  UNL     1      20.799   1.610  51.384  1.00  0.00     0.072 C 
HETATM    7  C9  UNL     1      19.742   1.998  52.125  1.00  0.00     0.036 C 
HETATM    8  C10 UNL     1      18.452   2.424  51.543  1.00  0.00    -0.001 C 
HETATM    9  C11 UNL     1      18.151   2.528  50.237  1.00  0.00    -0.021 C 
HETATM   10  C12 UNL     1      18.927   2.448  48.998  1.00  0.00     0.083 C 
HETATM   11  C13 UNL     1      20.322   2.022  49.138  1.00  0.00     0.011 C 
HETATM   12  C14 UNL     1      20.757   1.080  49.997  1.00  0.00     0.061 C 
HETATM   13  N3  UNL     1      21.233   2.688  48.286  1.00  0.00    -0.383 N 
HETATM   14  C15 UNL     1      22.372   3.517  48.218  1.00  0.00     0.132 C 
HETATM   15  C16 UNL     1      23.506   4.071  48.568  1.00  0.00     0.020 C 
HETATM   16  C17 UNL     1      24.708   4.377  49.376  1.00  0.00     0.134 C 
HETATM   17  N4  UNL     1      24.221   3.525  50.180  1.00  0.00    -0.076 NA
HETATM   18  H5  UNL     1      26.795   3.737  51.130  1.00  0.00     0.184 HD
HETATM   19  H14 UNL     1      20.956   2.495  47.306  1.00  0.00     0.160 HD
ENDROOT
BRANCH   1  20
HETATM   20  C5  UNL     1      26.815   1.944  52.288  1.00  0.00     0.052 A 
HETATM   21  C4  UNL     1      26.614   0.617  51.886  1.00  0.00     0.030 A 
HETATM   22  C3  UNL     1      27.178  -0.458  52.521  1.00  0.00     0.005 A 
HETATM   23  C2  UNL     1      27.993  -0.269  53.614  1.00  0.00     0.036 A 
HETATM   24  C1  UNL     1      28.214   1.024  54.038  1.00  0.00     0.067 A 
HETATM   25  C18 UNL     1      27.625   2.066  53.368  1.00  0.00     0.066 A 
BRANCH  24  26
HETATM   26  O1  UNL     1      29.036   1.230  55.141  1.00  0.00    -0.361 OA
HETATM   27  H1  UNL     1      29.151   0.474  55.803  1.00  0.00     0.217 HD
ENDBRANCH  24  26
ENDBRANCH   1  20
TORSDOF 2
ENDMDL
MODEL 5
REMARK VINA RESULT:      -8.0      2.936      6.697
REMARK  2 active torsions:
REMARK  status: ('A' for Active; 'I' for Inactive)
REMARK    1  A    between atoms: O1_1  and  C1_2 
REMARK    2  A    between atoms: C5_6  and  N1_7 
REMARK       I    between atoms: N1_7  and  C6_8 
ROOT
HETATM    1  N1  UNL     1      25.568   3.431  50.449  1.00  0.00    -0.188 N 
HETATM    2  C6  UNL     1      24.425   2.605  50.613  1.00  0.00     0.724 C 
HETATM    3  N2  UNL     1      23.440   2.821  49.773  1.00  0.00    -0.079 NA
HETATM    4  C7  UNL     1      22.281   1.964  49.962  1.00  0.00     0.344 C 
HETATM    5  O2  UNL     1      21.332   2.606  50.821  1.00  0.00    -0.330 OA
HETATM    6  C8  UNL     1      20.302   1.890  51.392  1.00  0.00     0.072 C 
HETATM    7  C9  UNL     1      19.386   1.287  50.608  1.00  0.00     0.036 C 
HETATM    8  C10 UNL     1      18.574   0.133  51.046  1.00  0.00    -0.001 C 
HETATM    9  C11 UNL     1      18.643  -0.500  52.231  1.00  0.00    -0.021 C 
HETATM   10  C12 UNL     1      19.558  -0.438  53.373  1.00  0.00     0.083 C 
HETATM   11  C13 UNL     1      20.559   0.631  53.339  1.00  0.00     0.011 C 
HETATM   12  C14 UNL     1      20.340   1.878  52.877  1.00  0.00     0.061 C 
HETATM   13  N3  UNL     1      21.832   0.267  53.837  1.00  0.00    -0.383 N 
HETATM   14  C15 UNL     1      23.202   0.121  53.536  1.00  0.00     0.132 C 
HETATM   15  C16 UNL     1      24.356   0.325  52.953  1.00  0.00     0.020 C 
HETATM   16  C17 UNL     1      25.362   0.908  52.035  1.00  0.00     0.134 C 
HETATM   17  N4  UNL     1      24.388   1.616  51.632  1.00  0.00    -0.076 NA
HETATM   18  H5  UNL     1      26.520   2.984  50.555  1.00  0.00     0.184 HD
HETATM   19  H14 UNL     1      21.721  -0.011  54.829  1.00  0.00     0.160 HD
ENDROOT
BRANCH   1  20
HETATM   20  C5  UNL     1      25.502   4.817  50.155  1.00  0.00     0.052 A 
HETATM   21  C4  UNL     1      26.187   5.324  49.043  1.00  0.00     0.030 A 
HETATM   22  C3  UNL     1      26.180   6.649  48.691  1.00  0.00     0.005 A 
HETATM   23  C2  UNL     1      25.475   7.562  49.442  1.00  0.00     0.036 A 
HETATM   24  C1  UNL     1      24.789   7.099  50.544  1.00  0.00     0.067 A 
HETATM   25  C18 UNL     1      24.828   5.763  50.853  1.00  0.00     0.066 A 
BRANCH  24  26
HETATM   26  O1  UNL     1      24.072   8.011  51.312  1.00  0.00    -0.361 OA
HETATM   27  H1  UNL     1      23.342   7.660  51.917  1.00  0.00     0.217 HD
ENDBRANCH  24  26
ENDBRANCH   1  20
TORSDOF 2
ENDMDL
MODEL 6
REMARK VINA RESULT:      -8.0      3.087      5.003
REMARK  2 active torsions:
REMARK  status: ('A' for Active; 'I' for Inactive)
REMARK    1  A    between atoms: O1_1  and  C1_2 
REMARK    2  A    between atoms: C5_6  and  N1_7 
REMARK       I    between atoms: N1_7  and  C6_8 
ROOT
HETATM    1  N1  UNL     1      24.964   2.678  53.139  1.00  0.00    -0.188 N 
HETATM    2  C6  UNL     1      23.606   2.567  52.738  1.00  0.00     0.724 C 
HETATM    3  N2  UNL     1      22.979   1.488  53.143  1.00  0.00    -0.079 NA
HETATM    4  C7  UNL     1      21.591   1.397  52.720  1.00  0.00     0.344 C 
HETATM    5  O2  UNL     1      21.500   0.663  51.493  1.00  0.00    -0.330 OA
HETATM    6  C8  UNL     1      20.349   0.696  50.737  1.00  0.00     0.072 C 
HETATM    7  C9  UNL     1      19.191   0.238  51.252  1.00  0.00     0.036 C 
HETATM    8  C10 UNL     1      17.861   0.660  50.767  1.00  0.00    -0.001 C 
HETATM    9  C11 UNL     1      17.602   1.560  49.802  1.00  0.00    -0.021 C 
HETATM   10  C12 UNL     1      18.417   2.514  49.047  1.00  0.00     0.083 C 
HETATM   11  C13 UNL     1      19.866   2.416  49.237  1.00  0.00     0.011 C 
HETATM   12  C14 UNL     1      20.548   1.263  49.378  1.00  0.00     0.061 C 
HETATM   13  N3  UNL     1      20.544   3.656  49.271  1.00  0.00    -0.383 N 
HETATM   14  C15 UNL     1      21.348   4.524  50.040  1.00  0.00     0.132 C 
HETATM   15  C16 UNL     1      22.218   4.914  50.938  1.00  0.00     0.020 C 
HETATM   16  C17 UNL     1      23.214   4.830  52.030  1.00  0.00     0.134 C 
HETATM   17  N4  UNL     1      22.999   3.582  51.951  1.00  0.00    -0.076 NA
HETATM   18  H5  UNL     1      25.314   3.629  53.440  1.00  0.00     0.184 HD
HETATM   19  H14 UNL     1      20.390   4.132  48.363  1.00  0.00     0.160 HD
ENDROOT
BRANCH   1  20
HETATM   20  C5  UNL     1      25.872   1.589  53.153  1.00  0.00     0.052 A 
HETATM   21  C4  UNL     1      25.999   0.777  52.018  1.00  0.00     0.030 A 
HETATM   22  C3  UNL     1      26.847  -0.297  51.949  1.00  0.00     0.005 A 
HETATM   23  C2  UNL     1      27.634  -0.631  53.029  1.00  0.00     0.036 A 
HETATM   24  C1  UNL     1      27.535   0.146  54.163  1.00  0.00     0.067 A 
HETATM   25  C18 UNL     1      26.670   1.211  54.181  1.00  0.00     0.066 A 
BRANCH  24  26
HETATM   26  O1  UNL     1      28.324  -0.179  55.262  1.00  0.00    -0.361 OA
HETATM   27  H1  UNL     1      28.366   0.474  56.033  1.00  0.00     0.217 HD
ENDBRANCH  24  26
ENDBRANCH   1  20
TORSDOF 2
ENDMDL
MODEL 7
REMARK VINA RESULT:      -7.8      3.389      6.432
REMARK  2 active torsions:
REMARK  status: ('A' for Active; 'I' for Inactive)
REMARK    1  A    between atoms: O1_1  and  C1_2 
REMARK    2  A    between atoms: C5_6  and  N1_7 
REMARK       I    between atoms: N1_7  and  C6_8 
ROOT
HETATM    1  N1  UNL     1      24.068   5.655  50.551  1.00  0.00    -0.188 N 
HETATM    2  C6  UNL     1      23.412   4.640  51.296  1.00  0.00     0.724 C 
HETATM    3  N2  UNL     1      24.190   3.874  52.025  1.00  0.00    -0.079 NA
HETATM    4  C7  UNL     1      23.494   2.843  52.778  1.00  0.00     0.344 C 
HETATM    5  O2  UNL     1      23.457   1.627  52.022  1.00  0.00    -0.330 OA
HETATM    6  C8  UNL     1      22.606   0.604  52.378  1.00  0.00     0.072 C 
HETATM    7  C9  UNL     1      22.732   0.010  53.582  1.00  0.00     0.036 C 
HETATM    8  C10 UNL     1      21.630  -0.708  54.255  1.00  0.00    -0.001 C 
HETATM    9  C11 UNL     1      20.368  -0.844  53.814  1.00  0.00    -0.021 C 
HETATM   10  C12 UNL     1      19.600  -0.262  52.711  1.00  0.00     0.083 C 
HETATM   11  C13 UNL     1      20.358   0.549  51.755  1.00  0.00     0.011 C 
HETATM   12  C14 UNL     1      21.607   0.271  51.331  1.00  0.00     0.061 C 
HETATM   13  N3  UNL     1      19.681   1.697  51.283  1.00  0.00    -0.383 N 
HETATM   14  C15 UNL     1      19.691   3.105  51.202  1.00  0.00     0.132 C 
HETATM   15  C16 UNL     1      20.163   4.325  51.154  1.00  0.00     0.020 C 
HETATM   16  C17 UNL     1      21.147   5.431  51.136  1.00  0.00     0.134 C 
HETATM   17  N4  UNL     1      22.000   4.496  51.234  1.00  0.00    -0.076 NA
HETATM   18  H5  UNL     1      23.608   6.605  50.498  1.00  0.00     0.184 HD
HETATM   19  H14 UNL     1      18.820   1.384  50.797  1.00  0.00     0.160 HD
ENDROOT
BRANCH   1  20
HETATM   20  C5  UNL     1      25.299   5.462  49.873  1.00  0.00     0.052 A 
HETATM   21  C4  UNL     1      25.839   4.174  49.769  1.00  0.00     0.030 A 
HETATM   22  C3  UNL     1      27.024   3.900  49.137  1.00  0.00     0.005 A 
HETATM   23  C2  UNL     1      27.753   4.915  48.560  1.00  0.00     0.036 A 
HETATM   24  C1  UNL     1      27.252   6.196  48.643  1.00  0.00     0.067 A 
HETATM   25  C18 UNL     1      26.061   6.417  49.287  1.00  0.00     0.066 A 
BRANCH  24  26
HETATM   26  O1  UNL     1      27.978   7.233  48.064  1.00  0.00    -0.361 OA
HETATM   27  H1  UNL     1      28.739   6.997  47.440  1.00  0.00     0.217 HD
ENDBRANCH  24  26
ENDBRANCH   1  20
TORSDOF 2
ENDMDL
MODEL 8
REMARK VINA RESULT:      -7.5      3.376      6.700
REMARK  2 active torsions:
REMARK  status: ('A' for Active; 'I' for Inactive)
REMARK    1  A    between atoms: O1_1  and  C1_2 
REMARK    2  A    between atoms: C5_6  and  N1_7 
REMARK       I    between atoms: N1_7  and  C6_8 
ROOT
HETATM    1  N1  UNL     1      23.346   7.477  50.180  1.00  0.00    -0.188 N 
HETATM    2  C6  UNL     1      22.907   6.261  50.767  1.00  0.00     0.724 C 
HETATM    3  N2  UNL     1      23.689   5.761  51.695  1.00  0.00    -0.079 NA
HETATM    4  C7  UNL     1      23.218   4.515  52.280  1.00  0.00     0.344 C 
HETATM    5  O2  UNL     1      23.787   3.401  51.581  1.00  0.00    -0.330 OA
HETATM    6  C8  UNL     1      23.272   2.134  51.742  1.00  0.00     0.072 C 
HETATM    7  C9  UNL     1      23.285   1.550  52.957  1.00  0.00     0.036 C 
HETATM    8  C10 UNL     1      22.360   0.467  53.350  1.00  0.00    -0.001 C 
HETATM    9  C11 UNL     1      21.372  -0.060  52.606  1.00  0.00    -0.021 C 
HETATM   10  C12 UNL     1      20.756   0.292  51.325  1.00  0.00     0.083 C 
HETATM   11  C13 UNL     1      21.409   1.362  50.568  1.00  0.00     0.011 C 
HETATM   12  C14 UNL     1      22.741   1.545  50.485  1.00  0.00     0.061 C 
HETATM   13  N3  UNL     1      20.525   2.241  49.900  1.00  0.00    -0.383 N 
HETATM   14  C15 UNL     1      20.077   3.573  49.777  1.00  0.00     0.132 C 
HETATM   15  C16 UNL     1      20.103   4.882  49.810  1.00  0.00     0.020 C 
HETATM   16  C17 UNL     1      20.626   6.253  50.008  1.00  0.00     0.134 C 
HETATM   17  N4  UNL     1      21.691   5.655  50.351  1.00  0.00    -0.076 NA
HETATM   18  H5  UNL     1      22.620   8.219  49.980  1.00  0.00     0.184 HD
HETATM   19  H14 UNL     1      19.972   1.685  49.221  1.00  0.00     0.160 HD
ENDROOT
BRANCH   1  20
HETATM   20  C5  UNL     1      24.698   7.747  49.846  1.00  0.00     0.052 A 
HETATM   21  C4  UNL     1      25.271   7.134  48.724  1.00  0.00     0.030 A 
HETATM   22  C3  UNL     1      26.569   7.335  48.334  1.00  0.00     0.005 A 
HETATM   23  C2  UNL     1      27.388   8.176  49.054  1.00  0.00     0.036 A 
HETATM   24  C1  UNL     1      26.857   8.796  50.165  1.00  0.00     0.067 A 
HETATM   25  C18 UNL     1      25.551   8.561  50.513  1.00  0.00     0.066 A 
BRANCH  24  26
HETATM   26  O1  UNL     1      27.673   9.649  50.903  1.00  0.00    -0.361 OA
HETATM   27  H1  UNL     1      27.335  10.581  51.105  1.00  0.00     0.217 HD
ENDBRANCH  24  26
ENDBRANCH   1  20
TORSDOF 2
ENDMDL
MODEL 9
REMARK VINA RESULT:      -7.4      3.244      4.271
REMARK  2 active torsions:
REMARK  status: ('A' for Active; 'I' for Inactive)
REMARK    1  A    between atoms: O1_1  and  C1_2 
REMARK    2  A    between atoms: C5_6  and  N1_7 
REMARK       I    between atoms: N1_7  and  C6_8 
ROOT
HETATM    1  N1  UNL     1      25.252   3.193  52.410  1.00  0.00    -0.188 N 
HETATM    2  C6  UNL     1      24.104   3.418  51.606  1.00  0.00     0.724 C 
HETATM    3  N2  UNL     1      23.091   2.611  51.819  1.00  0.00    -0.079 NA
HETATM    4  C7  UNL     1      21.928   2.863  50.984  1.00  0.00     0.344 C 
HETATM    5  O2  UNL     1      21.984   2.045  49.809  1.00  0.00    -0.330 OA
HETATM    6  C8  UNL     1      21.171   2.309  48.728  1.00  0.00     0.072 C 
HETATM    7  C9  UNL     1      19.831   2.256  48.865  1.00  0.00     0.036 C 
HETATM    8  C10 UNL     1      18.893   2.972  47.976  1.00  0.00    -0.001 C 
HETATM    9  C11 UNL     1      19.211   3.790  46.957  1.00  0.00    -0.021 C 
HETATM   10  C12 UNL     1      20.459   4.384  46.473  1.00  0.00     0.083 C 
HETATM   11  C13 UNL     1      21.689   3.909  47.111  1.00  0.00     0.011 C 
HETATM   12  C14 UNL     1      21.919   2.636  47.488  1.00  0.00     0.061 C 
HETATM   13  N3  UNL     1      22.668   4.906  47.327  1.00  0.00    -0.383 N 
HETATM   14  C15 UNL     1      23.433   5.599  48.288  1.00  0.00     0.132 C 
HETATM   15  C16 UNL     1      24.077   5.832  49.404  1.00  0.00     0.020 C 
HETATM   16  C17 UNL     1      24.637   5.602  50.756  1.00  0.00     0.134 C 
HETATM   17  N4  UNL     1      24.089   4.464  50.644  1.00  0.00    -0.076 NA
HETATM   18  H5  UNL     1      25.768   4.036  52.783  1.00  0.00     0.184 HD
HETATM   19  H14 UNL     1      22.937   5.297  46.405  1.00  0.00     0.160 HD
ENDROOT
BRANCH   1  20
HETATM   20  C5  UNL     1      25.744   1.902  52.734  1.00  0.00     0.052 A 
HETATM   21  C4  UNL     1      26.269   1.085  51.725  1.00  0.00     0.030 A 
HETATM   22  C3  UNL     1      26.759  -0.174  51.950  1.00  0.00     0.005 A 
HETATM   23  C2  UNL     1      26.755  -0.703  53.222  1.00  0.00     0.036 A 
HETATM   24  C1  UNL     1      26.246   0.073  54.241  1.00  0.00     0.067 A 
HETATM   25  C18 UNL     1      25.767   1.328  53.962  1.00  0.00     0.066 A 
BRANCH  24  26
HETATM   26  O1  UNL     1      26.236  -0.448  55.531  1.00  0.00    -0.361 OA
HETATM   27  H1  UNL     1      27.112  -0.757  55.932  1.00  0.00     0.217 HD
ENDBRANCH  24  26
ENDBRANCH   1  20
TORSDOF 2
ENDMDL
