MODEL 1
REMARK VINA RESULT:      -7.5      0.000      0.000
REMARK  6 active torsions:
REMARK  status: ('A' for Active; 'I' for Inactive)
REMARK    1  A    between atoms: C2_2  and  C3_4 
REMARK    2  A    between atoms: C11_13  and  C12_14 
REMARK    3  A    between atoms: C12_14  and  C13_15 
REMARK    4  A    between atoms: C13_15  and  C14_16 
REMARK    5  A    between atoms: C14_16  and  O2_17 
REMARK    6  A    between atoms: C14_16  and  P1_18 
ROOT
HETATM    1  C3  UNL     1      23.931   3.059  50.683  1.00  0.00     0.109 C 
HETATM    2  C4  UNL     1      23.148   3.069  49.439  1.00  0.00     0.045 C 
HETATM    3  C5  UNL     1      23.312   4.506  48.890  1.00  0.00    -0.026 C 
HETATM    4  C6  UNL     1      24.504   5.186  48.940  1.00  0.00    -0.004 C 
HETATM    5  C7  UNL     1      25.940   5.207  49.285  1.00  0.00    -0.003 C 
HETATM    6  C8  UNL     1      26.812   4.240  49.692  1.00  0.00    -0.007 C 
HETATM    7  C9  UNL     1      26.252   2.954  49.754  1.00  0.00     0.155 C 
HETATM    8  N1  UNL     1      26.062   2.118  50.837  1.00  0.00    -0.355 N 
HETATM    9  C10 UNL     1      26.808   1.231  51.517  1.00  0.00     0.099 A 
HETATM   10  C11 UNL     1      25.906   0.599  52.389  1.00  0.00    -0.034 A 
HETATM   11  C15 UNL     1      24.617   1.100  52.245  1.00  0.00    -0.031 A 
HETATM   12  C16 UNL     1      23.399   0.692  52.968  1.00  0.00     0.051 C 
HETATM   13  C17 UNL     1      24.769   2.065  51.251  1.00  0.00     0.029 A 
ENDROOT
BRANCH  10  14
HETATM   14  C12 UNL     1      26.397  -0.466  53.297  1.00  0.00     0.047 C 
BRANCH  14  15
HETATM   15  C13 UNL     1      26.832  -1.709  52.588  1.00  0.00     0.070 C 
BRANCH  15  16
HETATM   16  C14 UNL     1      28.205  -2.044  53.118  1.00  0.00     0.049 C 
BRANCH  16  17
HETATM   17  O2  UNL     1      28.645  -3.351  53.341  1.00  0.00    -0.364 OA
HETATM   18  H18 UNL     1      29.251  -3.808  52.669  1.00  0.00     0.217 HD
ENDBRANCH  16  17
BRANCH  16  19
HETATM   19  P1  UNL     1      29.440  -1.016  53.538  1.00  0.00    -0.042 P 
HETATM   20  H19 UNL     1      29.389   0.413  53.291  1.00  0.00     0.069 HD
ENDBRANCH  16  19
ENDBRANCH  15  16
ENDBRANCH  14  15
ENDBRANCH  10  14
BRANCH   1  21
HETATM   21  C2  UNL     1      23.085   3.770  51.795  1.00  0.00     0.133 C 
HETATM   22  C1  UNL     1      23.453   4.708  52.847  1.00  0.00     0.091 C 
HETATM   23  O1  UNL     1      21.865   3.565  51.881  1.00  0.00    -0.298 OA
ENDBRANCH   1  21
TORSDOF 6
ENDMDL
MODEL 2
REMARK VINA RESULT:      -7.3      1.722      3.708
REMARK  6 active torsions:
REMARK  status: ('A' for Active; 'I' for Inactive)
REMARK    1  A    between atoms: C2_2  and  C3_4 
REMARK    2  A    between atoms: C11_13  and  C12_14 
REMARK    3  A    between atoms: C12_14  and  C13_15 
REMARK    4  A    between atoms: C13_15  and  C14_16 
REMARK    5  A    between atoms: C14_16  and  O2_17 
REMARK    6  A    between atoms: C14_16  and  P1_18 
ROOT
HETATM    1  C3  UNL     1      22.951   2.665  51.699  1.00  0.00     0.109 C 
HETATM    2  C4  UNL     1      22.397   3.846  52.375  1.00  0.00     0.045 C 
HETATM    3  C5  UNL     1      20.872   3.753  52.132  1.00  0.00    -0.026 C 
HETATM    4  C6  UNL     1      20.186   2.564  52.185  1.00  0.00    -0.004 C 
HETATM    5  C7  UNL     1      20.185   1.109  52.432  1.00  0.00    -0.003 C 
HETATM    6  C8  UNL     1      21.123   0.250  52.927  1.00  0.00    -0.007 C 
HETATM    7  C9  UNL     1      22.315   0.874  53.328  1.00  0.00     0.155 C 
HETATM    8  N1  UNL     1      23.600   0.734  52.840  1.00  0.00    -0.355 N 
HETATM    9  C10 UNL     1      24.621  -0.117  53.035  1.00  0.00     0.099 A 
HETATM   10  C11 UNL     1      25.702   0.457  52.346  1.00  0.00    -0.034 A 
HETATM   11  C15 UNL     1      25.342   1.651  51.731  1.00  0.00    -0.031 A 
HETATM   12  C16 UNL     1      26.191   2.551  50.928  1.00  0.00     0.051 C 
HETATM   13  C17 UNL     1      23.996   1.781  52.070  1.00  0.00     0.029 A 
ENDROOT
BRANCH  10  14
HETATM   14  C12 UNL     1      27.020  -0.224  52.361  1.00  0.00     0.047 C 
BRANCH  14  15
HETATM   15  C13 UNL     1      26.940  -1.684  52.673  1.00  0.00     0.070 C 
BRANCH  15  16
HETATM   16  C14 UNL     1      28.309  -2.093  53.159  1.00  0.00     0.049 C 
BRANCH  16  17
HETATM   17  O2  UNL     1      28.694  -3.423  53.343  1.00  0.00    -0.364 OA
HETATM   18  H18 UNL     1      29.591  -3.747  52.998  1.00  0.00     0.217 HD
ENDBRANCH  16  17
BRANCH  16  19
HETATM   19  P1  UNL     1      29.600  -1.131  53.569  1.00  0.00    -0.042 P 
HETATM   20  H19 UNL     1      30.978  -1.563  53.422  1.00  0.00     0.069 HD
ENDBRANCH  16  19
ENDBRANCH  15  16
ENDBRANCH  14  15
ENDBRANCH  10  14
BRANCH   1  21
HETATM   21  C2  UNL     1      22.999   2.964  50.161  1.00  0.00     0.133 C 
HETATM   22  C1  UNL     1      22.650   2.155  49.001  1.00  0.00     0.091 C 
HETATM   23  O1  UNL     1      23.391   4.066  49.749  1.00  0.00    -0.298 OA
ENDBRANCH   1  21
TORSDOF 6
ENDMDL
MODEL 3
REMARK VINA RESULT:      -7.2      3.012      4.444
REMARK  6 active torsions:
REMARK  status: ('A' for Active; 'I' for Inactive)
REMARK    1  A    between atoms: C2_2  and  C3_4 
REMARK    2  A    between atoms: C11_13  and  C12_14 
REMARK    3  A    between atoms: C12_14  and  C13_15 
REMARK    4  A    between atoms: C13_15  and  C14_16 
REMARK    5  A    between atoms: C14_16  and  O2_17 
REMARK    6  A    between atoms: C14_16  and  P1_18 
ROOT
HETATM    1  C3  UNL     1      21.981   0.498  52.673  1.00  0.00     0.109 C 
HETATM    2  C4  UNL     1      21.370  -0.141  51.499  1.00  0.00     0.045 C 
HETATM    3  C5  UNL     1      19.887   0.299  51.547  1.00  0.00    -0.026 C 
HETATM    4  C6  UNL     1      19.504   1.571  51.895  1.00  0.00    -0.004 C 
HETATM    5  C7  UNL     1      19.874   2.950  52.274  1.00  0.00    -0.003 C 
HETATM    6  C8  UNL     1      21.065   3.615  52.313  1.00  0.00    -0.007 C 
HETATM    7  C9  UNL     1      22.157   2.859  51.859  1.00  0.00     0.155 C 
HETATM    8  N1  UNL     1      23.284   2.431  52.534  1.00  0.00    -0.355 N 
HETATM    9  C10 UNL     1      24.479   2.957  52.850  1.00  0.00     0.099 A 
HETATM   10  C11 UNL     1      25.213   1.883  53.382  1.00  0.00    -0.034 A 
HETATM   11  C15 UNL     1      24.468   0.709  53.393  1.00  0.00    -0.031 A 
HETATM   12  C16 UNL     1      24.885  -0.626  53.861  1.00  0.00     0.051 C 
HETATM   13  C17 UNL     1      23.249   1.110  52.849  1.00  0.00     0.029 A 
ENDROOT
BRANCH  10  14
HETATM   14  C12 UNL     1      26.609   2.106  53.832  1.00  0.00     0.047 C 
BRANCH  14  15
HETATM   15  C13 UNL     1      27.638   1.725  52.815  1.00  0.00     0.070 C 
BRANCH  15  16
HETATM   16  C14 UNL     1      28.777   1.093  53.576  1.00  0.00     0.049 C 
BRANCH  16  17
HETATM   17  O2  UNL     1      29.784   1.829  54.205  1.00  0.00    -0.364 OA
HETATM   18  H18 UNL     1      29.550   2.646  54.759  1.00  0.00     0.217 HD
ENDBRANCH  16  17
BRANCH  16  19
HETATM   19  P1  UNL     1      29.092  -0.518  53.833  1.00  0.00    -0.042 P 
HETATM   20  H19 UNL     1      29.595  -1.394  52.790  1.00  0.00     0.069 HD
ENDBRANCH  16  19
ENDBRANCH  15  16
ENDBRANCH  14  15
ENDBRANCH  10  14
BRANCH   1  21
HETATM   21  C2  UNL     1      21.589  -0.337  53.940  1.00  0.00     0.133 C 
HETATM   22  C1  UNL     1      21.618  -1.768  54.209  1.00  0.00     0.091 C 
HETATM   23  O1  UNL     1      21.166   0.231  54.958  1.00  0.00    -0.298 OA
ENDBRANCH   1  21
TORSDOF 6
ENDMDL
MODEL 4
REMARK VINA RESULT:      -6.9      3.021      6.437
REMARK  6 active torsions:
REMARK  status: ('A' for Active; 'I' for Inactive)
REMARK    1  A    between atoms: C2_2  and  C3_4 
REMARK    2  A    between atoms: C11_13  and  C12_14 
REMARK    3  A    between atoms: C12_14  and  C13_15 
REMARK    4  A    between atoms: C13_15  and  C14_16 
REMARK    5  A    between atoms: C14_16  and  O2_17 
REMARK    6  A    between atoms: C14_16  and  P1_18 
ROOT
HETATM    1  C3  UNL     1      25.816   1.067  52.296  1.00  0.00     0.109 C 
HETATM    2  C4  UNL     1      26.390  -0.268  52.077  1.00  0.00     0.045 C 
HETATM    3  C5  UNL     1      26.131  -1.023  53.403  1.00  0.00    -0.026 C 
HETATM    4  C6  UNL     1      24.957  -0.903  54.105  1.00  0.00    -0.004 C 
HETATM    5  C7  UNL     1      23.595  -0.344  54.215  1.00  0.00    -0.003 C 
HETATM    6  C8  UNL     1      22.805   0.357  53.350  1.00  0.00    -0.007 C 
HETATM    7  C9  UNL     1      23.377   0.548  52.083  1.00  0.00     0.155 C 
HETATM    8  N1  UNL     1      23.742   1.716  51.440  1.00  0.00    -0.355 N 
HETATM    9  C10 UNL     1      23.120   2.647  50.698  1.00  0.00     0.099 A 
HETATM   10  C11 UNL     1      24.154   3.461  50.206  1.00  0.00    -0.034 A 
HETATM   11  C15 UNL     1      25.400   3.031  50.648  1.00  0.00    -0.031 A 
HETATM   12  C16 UNL     1      26.721   3.612  50.344  1.00  0.00     0.051 C 
HETATM   13  C17 UNL     1      25.085   1.923  51.432  1.00  0.00     0.029 A 
ENDROOT
BRANCH  10  14
HETATM   14  C12 UNL     1      23.822   4.605  49.321  1.00  0.00     0.047 C 
BRANCH  14  15
HETATM   15  C13 UNL     1      23.165   5.746  50.032  1.00  0.00     0.070 C 
BRANCH  15  16
HETATM   16  C14 UNL     1      24.269   6.520  50.709  1.00  0.00     0.049 C 
BRANCH  16  17
HETATM   17  O2  UNL     1      24.373   6.658  52.095  1.00  0.00    -0.364 OA
HETATM   18  H18 UNL     1      24.381   7.580  52.517  1.00  0.00     0.217 HD
ENDBRANCH  16  17
BRANCH  16  19
HETATM   19  P1  UNL     1      25.539   7.341  50.022  1.00  0.00    -0.042 P 
HETATM   20  H19 UNL     1      25.914   7.184  48.629  1.00  0.00     0.069 HD
ENDBRANCH  16  19
ENDBRANCH  15  16
ENDBRANCH  14  15
ENDBRANCH  10  14
BRANCH   1  21
HETATM   21  C2  UNL     1      26.823   1.892  53.169  1.00  0.00     0.133 C 
HETATM   22  C1  UNL     1      28.264   2.084  53.072  1.00  0.00     0.091 C 
HETATM   23  O1  UNL     1      26.421   2.539  54.147  1.00  0.00    -0.298 OA
ENDBRANCH   1  21
TORSDOF 6
ENDMDL
MODEL 5
REMARK VINA RESULT:      -6.8      2.905      4.737
REMARK  6 active torsions:
REMARK  status: ('A' for Active; 'I' for Inactive)
REMARK    1  A    between atoms: C2_2  and  C3_4 
REMARK    2  A    between atoms: C11_13  and  C12_14 
REMARK    3  A    between atoms: C12_14  and  C13_15 
REMARK    4  A    between atoms: C13_15  and  C14_16 
REMARK    5  A    between atoms: C14_16  and  O2_17 
REMARK    6  A    between atoms: C14_16  and  P1_18 
ROOT
HETATM    1  C3  UNL     1      21.589   2.098  51.766  1.00  0.00     0.109 C 
HETATM    2  C4  UNL     1      20.830   3.277  52.207  1.00  0.00     0.045 C 
HETATM    3  C5  UNL     1      19.385   3.010  51.724  1.00  0.00    -0.026 C 
HETATM    4  C6  UNL     1      18.799   1.770  51.792  1.00  0.00    -0.004 C 
HETATM    5  C7  UNL     1      18.874   0.351  52.194  1.00  0.00    -0.003 C 
HETATM    6  C8  UNL     1      19.777  -0.360  52.930  1.00  0.00    -0.007 C 
HETATM    7  C9  UNL     1      20.824   0.414  53.452  1.00  0.00     0.155 C 
HETATM    8  N1  UNL     1      22.182   0.356  53.204  1.00  0.00    -0.355 N 
HETATM    9  C10 UNL     1      23.219  -0.367  53.660  1.00  0.00     0.099 A 
HETATM   10  C11 UNL     1      24.354   0.245  53.102  1.00  0.00    -0.034 A 
HETATM   11  C15 UNL     1      24.011   1.334  52.308  1.00  0.00    -0.031 A 
HETATM   12  C16 UNL     1      24.913   2.234  51.564  1.00  0.00     0.051 C 
HETATM   13  C17 UNL     1      22.621   1.361  52.401  1.00  0.00     0.029 A 
ENDROOT
BRANCH  10  14
HETATM   14  C12 UNL     1      25.700  -0.297  53.411  1.00  0.00     0.047 C 
BRANCH  14  15
HETATM   15  C13 UNL     1      26.311   0.278  54.649  1.00  0.00     0.070 C 
BRANCH  15  16
HETATM   16  C14 UNL     1      27.464   1.140  54.196  1.00  0.00     0.049 C 
BRANCH  16  17
HETATM   17  O2  UNL     1      27.371   2.524  54.031  1.00  0.00    -0.364 OA
HETATM   18  H18 UNL     1      26.469   2.984  54.079  1.00  0.00     0.217 HD
ENDBRANCH  16  17
BRANCH  16  19
HETATM   19  P1  UNL     1      29.014   0.687  53.806  1.00  0.00    -0.042 P 
HETATM   20  H19 UNL     1      29.821  -0.164  54.661  1.00  0.00     0.069 HD
ENDBRANCH  16  19
ENDBRANCH  15  16
ENDBRANCH  14  15
ENDBRANCH  10  14
BRANCH   1  21
HETATM   21  C2  UNL     1      21.883   2.254  50.234  1.00  0.00     0.133 C 
HETATM   22  C1  UNL     1      21.779   1.318  49.123  1.00  0.00     0.091 C 
HETATM   23  O1  UNL     1      22.282   3.337  49.781  1.00  0.00    -0.298 OA
ENDBRANCH   1  21
TORSDOF 6
ENDMDL
MODEL 6
REMARK VINA RESULT:      -6.4      2.534      3.479
REMARK  6 active torsions:
REMARK  status: ('A' for Active; 'I' for Inactive)
REMARK    1  A    between atoms: C2_2  and  C3_4 
REMARK    2  A    between atoms: C11_13  and  C12_14 
REMARK    3  A    between atoms: C12_14  and  C13_15 
REMARK    4  A    between atoms: C13_15  and  C14_16 
REMARK    5  A    between atoms: C14_16  and  O2_17 
REMARK    6  A    between atoms: C14_16  and  P1_18 
ROOT
HETATM    1  C3  UNL     1      21.726   1.261  50.989  1.00  0.00     0.109 C 
HETATM    2  C4  UNL     1      21.140   0.570  49.832  1.00  0.00     0.045 C 
HETATM    3  C5  UNL     1      20.140   1.589  49.237  1.00  0.00    -0.026 C 
HETATM    4  C6  UNL     1      20.417   2.931  49.148  1.00  0.00    -0.004 C 
HETATM    5  C7  UNL     1      21.363   4.048  49.343  1.00  0.00    -0.003 C 
HETATM    6  C8  UNL     1      22.684   4.098  49.680  1.00  0.00    -0.007 C 
HETATM    7  C9  UNL     1      23.284   2.838  49.828  1.00  0.00     0.155 C 
HETATM    8  N1  UNL     1      23.843   2.245  50.944  1.00  0.00    -0.355 N 
HETATM    9  C10 UNL     1      25.035   2.280  51.563  1.00  0.00     0.099 A 
HETATM   10  C11 UNL     1      24.960   1.271  52.538  1.00  0.00    -0.034 A 
HETATM   11  C15 UNL     1      23.729   0.626  52.516  1.00  0.00    -0.031 A 
HETATM   12  C16 UNL     1      23.270  -0.486  53.370  1.00  0.00     0.051 C 
HETATM   13  C17 UNL     1      23.053   1.284  51.490  1.00  0.00     0.029 A 
ENDROOT
BRANCH  10  14
HETATM   14  C12 UNL     1      26.130   1.017  53.415  1.00  0.00     0.047 C 
BRANCH  14  15
HETATM   15  C13 UNL     1      26.862   2.258  53.817  1.00  0.00     0.070 C 
BRANCH  15  16
HETATM   16  C14 UNL     1      28.327   1.986  53.582  1.00  0.00     0.049 C 
BRANCH  16  17
HETATM   17  O2  UNL     1      29.209   2.929  53.049  1.00  0.00    -0.364 OA
HETATM   18  H18 UNL     1      28.862   3.672  52.453  1.00  0.00     0.217 HD
ENDBRANCH  16  17
BRANCH  16  19
HETATM   19  P1  UNL     1      29.189   0.596  53.876  1.00  0.00    -0.042 P 
HETATM   20  H19 UNL     1      30.051  -0.017  52.882  1.00  0.00     0.069 HD
ENDBRANCH  16  19
ENDBRANCH  15  16
ENDBRANCH  14  15
ENDBRANCH  10  14
BRANCH   1  21
HETATM   21  C2  UNL     1      20.692   1.202  52.166  1.00  0.00     0.133 C 
HETATM   22  C1  UNL     1      19.809   0.141  52.633  1.00  0.00     0.091 C 
HETATM   23  O1  UNL     1      20.517   2.189  52.896  1.00  0.00    -0.298 OA
ENDBRANCH   1  21
TORSDOF 6
ENDMDL
MODEL 7
REMARK VINA RESULT:      -6.2      7.880     10.648
REMARK  6 active torsions:
REMARK  status: ('A' for Active; 'I' for Inactive)
REMARK    1  A    between atoms: C2_2  and  C3_4 
REMARK    2  A    between atoms: C11_13  and  C12_14 
REMARK    3  A    between atoms: C12_14  and  C13_15 
REMARK    4  A    between atoms: C13_15  and  C14_16 
REMARK    5  A    between atoms: C14_16  and  O2_17 
REMARK    6  A    between atoms: C14_16  and  P1_18 
ROOT
HETATM    1  C3  UNL     1      32.928   6.032  46.044  1.00  0.00     0.109 C 
HETATM    2  C4  UNL     1      33.246   5.463  44.726  1.00  0.00     0.045 C 
HETATM    3  C5  UNL     1      34.500   4.591  44.974  1.00  0.00    -0.026 C 
HETATM    4  C6  UNL     1      34.650   3.813  46.096  1.00  0.00    -0.004 C 
HETATM    5  C7  UNL     1      34.100   3.296  47.364  1.00  0.00    -0.003 C 
HETATM    6  C8  UNL     1      32.867   3.374  47.943  1.00  0.00    -0.007 C 
HETATM    7  C9  UNL     1      31.909   4.037  47.160  1.00  0.00     0.155 C 
HETATM    8  N1  UNL     1      31.218   5.209  47.405  1.00  0.00    -0.355 N 
HETATM    9  C10 UNL     1      30.109   5.555  48.079  1.00  0.00     0.099 A 
HETATM   10  C11 UNL     1      29.889   6.900  47.738  1.00  0.00    -0.034 A 
HETATM   11  C15 UNL     1      30.860   7.373  46.863  1.00  0.00    -0.031 A 
HETATM   12  C16 UNL     1      30.970   8.719  46.270  1.00  0.00     0.051 C 
HETATM   13  C17 UNL     1      31.684   6.263  46.685  1.00  0.00     0.029 A 
ENDROOT
BRANCH  10  14
HETATM   14  C12 UNL     1      28.717   7.612  48.305  1.00  0.00     0.047 C 
BRANCH  14  15
HETATM   15  C13 UNL     1      29.081   8.768  49.182  1.00  0.00     0.070 C 
BRANCH  15  16
HETATM   16  C14 UNL     1      27.802   9.225  49.840  1.00  0.00     0.049 C 
BRANCH  16  17
HETATM   17  O2  UNL     1      27.703   9.533  51.198  1.00  0.00    -0.364 OA
HETATM   18  H18 UNL     1      28.116  10.386  51.559  1.00  0.00     0.217 HD
ENDBRANCH  16  17
BRANCH  16  19
HETATM   19  P1  UNL     1      26.303   9.453  49.159  1.00  0.00    -0.042 P 
HETATM   20  H19 UNL     1      26.112   9.661  47.735  1.00  0.00     0.069 HD
ENDBRANCH  16  19
ENDBRANCH  15  16
ENDBRANCH  14  15
ENDBRANCH  10  14
BRANCH   1  21
HETATM   21  C2  UNL     1      33.918   7.217  46.313  1.00  0.00     0.133 C 
HETATM   22  C1  UNL     1      34.621   7.643  47.515  1.00  0.00     0.091 C 
HETATM   23  O1  UNL     1      34.226   7.996  45.398  1.00  0.00    -0.298 OA
ENDBRANCH   1  21
TORSDOF 6
ENDMDL
MODEL 8
REMARK VINA RESULT:      -6.2      3.768      6.593
REMARK  6 active torsions:
REMARK  status: ('A' for Active; 'I' for Inactive)
REMARK    1  A    between atoms: C2_2  and  C3_4 
REMARK    2  A    between atoms: C11_13  and  C12_14 
REMARK    3  A    between atoms: C12_14  and  C13_15 
REMARK    4  A    between atoms: C13_15  and  C14_16 
REMARK    5  A    between atoms: C14_16  and  O2_17 
REMARK    6  A    between atoms: C14_16  and  P1_18 
ROOT
HETATM    1  C3  UNL     1      23.376   2.831  50.663  1.00  0.00     0.109 C 
HETATM    2  C4  UNL     1      22.740   1.720  49.939  1.00  0.00     0.045 C 
HETATM    3  C5  UNL     1      21.556   1.298  50.841  1.00  0.00    -0.026 C 
HETATM    4  C6  UNL     1      20.768   2.208  51.502  1.00  0.00    -0.004 C 
HETATM    5  C7  UNL     1      20.423   3.614  51.793  1.00  0.00    -0.003 C 
HETATM    6  C8  UNL     1      20.839   4.801  51.264  1.00  0.00    -0.007 C 
HETATM    7  C9  UNL     1      21.740   4.667  50.197  1.00  0.00     0.155 C 
HETATM    8  N1  UNL     1      23.057   5.071  50.089  1.00  0.00    -0.355 N 
HETATM    9  C10 UNL     1      23.696   6.209  49.770  1.00  0.00     0.099 A 
HETATM   10  C11 UNL     1      25.049   5.844  49.674  1.00  0.00    -0.034 A 
HETATM   11  C15 UNL     1      25.235   4.492  49.936  1.00  0.00    -0.031 A 
HETATM   12  C16 UNL     1      26.498   3.730  49.926  1.00  0.00     0.051 C 
HETATM   13  C17 UNL     1      23.941   4.046  50.198  1.00  0.00     0.029 A 
ENDROOT
BRANCH  10  14
HETATM   14  C12 UNL     1      26.058   6.873  49.317  1.00  0.00     0.047 C 
BRANCH  14  15
HETATM   15  C13 UNL     1      25.864   8.177  50.024  1.00  0.00     0.070 C 
BRANCH  15  16
HETATM   16  C14 UNL     1      27.219   8.838  50.079  1.00  0.00     0.049 C 
BRANCH  16  17
HETATM   17  O2  UNL     1      27.677   9.562  51.182  1.00  0.00    -0.364 OA
HETATM   18  H18 UNL     1      27.052  10.189  51.677  1.00  0.00     0.217 HD
ENDBRANCH  16  17
BRANCH  16  19
HETATM   19  P1  UNL     1      28.412   8.868  48.924  1.00  0.00    -0.042 P 
HETATM   20  H19 UNL     1      28.446   9.850  47.855  1.00  0.00     0.069 HD
ENDBRANCH  16  19
ENDBRANCH  15  16
ENDBRANCH  14  15
ENDBRANCH  10  14
BRANCH   1  21
HETATM   21  C2  UNL     1      24.242   2.223  51.820  1.00  0.00     0.133 C 
HETATM   22  C1  UNL     1      24.501   2.674  53.180  1.00  0.00     0.091 C 
HETATM   23  O1  UNL     1      24.862   1.164  51.647  1.00  0.00    -0.298 OA
ENDBRANCH   1  21
TORSDOF 6
ENDMDL
MODEL 9
REMARK VINA RESULT:      -6.1      2.273      3.506
REMARK  6 active torsions:
REMARK  status: ('A' for Active; 'I' for Inactive)
REMARK    1  A    between atoms: C2_2  and  C3_4 
REMARK    2  A    between atoms: C11_13  and  C12_14 
REMARK    3  A    between atoms: C12_14  and  C13_15 
REMARK    4  A    between atoms: C13_15  and  C14_16 
REMARK    5  A    between atoms: C14_16  and  O2_17 
REMARK    6  A    between atoms: C14_16  and  P1_18 
ROOT
HETATM    1  C3  UNL     1      22.421   3.353  51.153  1.00  0.00     0.109 C 
HETATM    2  C4  UNL     1      21.342   4.320  51.396  1.00  0.00     0.045 C 
HETATM    3  C5  UNL     1      20.746   4.596  49.995  1.00  0.00    -0.026 C 
HETATM    4  C6  UNL     1      20.564   3.606  49.061  1.00  0.00    -0.004 C 
HETATM    5  C7  UNL     1      20.640   2.178  48.693  1.00  0.00    -0.003 C 
HETATM    6  C8  UNL     1      20.898   1.046  49.410  1.00  0.00    -0.007 C 
HETATM    7  C9  UNL     1      21.084   1.270  50.783  1.00  0.00     0.155 C 
HETATM    8  N1  UNL     1      22.199   1.066  51.574  1.00  0.00    -0.355 N 
HETATM    9  C10 UNL     1      22.746   0.027  52.225  1.00  0.00     0.099 A 
HETATM   10  C11 UNL     1      23.781   0.589  52.992  1.00  0.00    -0.034 A 
HETATM   11  C15 UNL     1      23.865   1.965  52.807  1.00  0.00    -0.031 A 
HETATM   12  C16 UNL     1      24.807   2.909  53.437  1.00  0.00     0.051 C 
HETATM   13  C17 UNL     1      22.844   2.219  51.894  1.00  0.00     0.029 A 
ENDROOT
BRANCH  10  14
HETATM   14  C12 UNL     1      24.603  -0.288  53.861  1.00  0.00     0.047 C 
BRANCH  14  15
HETATM   15  C13 UNL     1      25.865  -0.764  53.216  1.00  0.00     0.070 C 
BRANCH  15  16
HETATM   16  C14 UNL     1      27.001  -0.139  53.986  1.00  0.00     0.049 C 
BRANCH  16  17
HETATM   17  O2  UNL     1      27.248  -0.397  55.337  1.00  0.00    -0.364 OA
HETATM   18  H18 UNL     1      26.584  -0.099  56.043  1.00  0.00     0.217 HD
ENDBRANCH  16  17
BRANCH  16  19
HETATM   19  P1  UNL     1      28.154   0.934  53.457  1.00  0.00    -0.042 P 
HETATM   20  H19 UNL     1      29.156   1.506  54.337  1.00  0.00     0.069 HD
ENDBRANCH  16  19
ENDBRANCH  15  16
ENDBRANCH  14  15
ENDBRANCH  10  14
BRANCH   1  21
HETATM   21  C2  UNL     1      23.656   4.135  50.588  1.00  0.00     0.133 C 
HETATM   22  C1  UNL     1      24.602   3.822  49.525  1.00  0.00     0.091 C 
HETATM   23  O1  UNL     1      23.972   5.236  51.063  1.00  0.00    -0.298 OA
ENDBRANCH   1  21
TORSDOF 6
ENDMDL
