MODEL 1
REMARK VINA RESULT:      -9.1      0.000      0.000
REMARK  3 active torsions:
REMARK  status: ('A' for Active; 'I' for Inactive)
REMARK       I    between atoms: C3_3  and  N1_5 
REMARK    1  A    between atoms: N1_5  and  C4_6 
REMARK    2  A    between atoms: C7_9  and  N2_10 
REMARK    3  A    between atoms: N2_10  and  C8_11 
ROOT
HETATM    1  C1  UNL     1      30.200  -0.382  53.553  1.00  0.00     0.022 C 
HETATM    2  C2  UNL     1      29.041  -0.748  53.544  1.00  0.00    -0.016 C 
HETATM    3  C3  UNL     1      27.650  -1.168  53.543  1.00  0.00     0.301 C 
HETATM    4  O1  UNL     1      27.268  -2.188  52.912  1.00  0.00    -0.258 OA
HETATM    5  N1  UNL     1      26.750  -0.353  54.301  1.00  0.00    -0.301 N 
HETATM    6  H2  UNL     1      27.031   0.498  54.836  1.00  0.00     0.171 HD
ENDROOT
BRANCH   5   7
HETATM    7  C4  UNL     1      25.352  -0.600  54.423  1.00  0.00     0.130 A 
HETATM    8  C5  UNL     1      24.456  -0.198  53.550  1.00  0.00     0.070 A 
HETATM    9  C6  UNL     1      23.018  -0.426  53.630  1.00  0.00     0.069 A 
HETATM   10  C7  UNL     1      22.118   0.013  52.693  1.00  0.00     0.144 A 
HETATM   11  C15 UNL     1      22.647  -1.133  54.752  1.00  0.00     0.207 A 
HETATM   12  N3  UNL     1      20.853  -0.312  52.976  1.00  0.00    -0.223 NA
HETATM   13  C14 UNL     1      20.416  -0.991  54.035  1.00  0.00     0.238 A 
HETATM   14  N4  UNL     1      21.326  -1.409  54.938  1.00  0.00    -0.215 NA
HETATM   15  O2  UNL     1      23.564  -1.573  55.694  1.00  0.00    -0.215 OA
HETATM   16  N5  UNL     1      24.909  -1.327  55.562  1.00  0.00    -0.243 N 
HETATM   17  H10 UNL     1      25.506  -1.704  56.330  1.00  0.00     0.196 HD
BRANCH  10  18
HETATM   18  N2  UNL     1      22.571   0.736  51.567  1.00  0.00    -0.340 N 
HETATM   19  H4  UNL     1      22.597   0.290  50.633  1.00  0.00     0.167 HD
BRANCH  18  20
HETATM   20  C8  UNL     1      23.028   2.076  51.505  1.00  0.00     0.035 A 
HETATM   21  C9  UNL     1      22.424   3.105  52.187  1.00  0.00     0.029 A 
HETATM   22  C10 UNL     1      22.843   4.418  52.151  1.00  0.00     0.004 A 
HETATM   23  C11 UNL     1      23.931   4.769  51.399  1.00  0.00     0.019 A 
HETATM   24  C12 UNL     1      24.567   3.768  50.698  1.00  0.00     0.013 A 
HETATM   25 BR1  UNL     1      26.076   4.190  49.640  1.00  0.00    -0.051 Br
HETATM   26  C13 UNL     1      24.112   2.473  50.765  1.00  0.00     0.048 A 
ENDBRANCH  18  20
ENDBRANCH  10  18
ENDBRANCH   5   7
TORSDOF 3
ENDMDL
MODEL 2
REMARK VINA RESULT:      -8.6      1.914      5.228
REMARK  3 active torsions:
REMARK  status: ('A' for Active; 'I' for Inactive)
REMARK       I    between atoms: C3_3  and  N1_5 
REMARK    1  A    between atoms: N1_5  and  C4_6 
REMARK    2  A    between atoms: C7_9  and  N2_10 
REMARK    3  A    between atoms: N2_10  and  C8_11 
ROOT
HETATM    1  C1  UNL     1      18.737  -0.992  52.984  1.00  0.00     0.022 C 
HETATM    2  C2  UNL     1      19.812  -0.720  53.481  1.00  0.00    -0.016 C 
HETATM    3  C3  UNL     1      21.107  -0.403  54.057  1.00  0.00     0.301 C 
HETATM    4  O1  UNL     1      21.211   0.233  55.139  1.00  0.00    -0.258 OA
HETATM    5  N1  UNL     1      22.248  -0.857  53.322  1.00  0.00    -0.301 N 
HETATM    6  H2  UNL     1      22.199  -1.386  52.423  1.00  0.00     0.171 HD
ENDROOT
BRANCH   5   7
HETATM    7  C4  UNL     1      23.598  -0.644  53.722  1.00  0.00     0.130 A 
HETATM    8  C5  UNL     1      24.506  -0.064  52.970  1.00  0.00     0.070 A 
HETATM    9  C6  UNL     1      25.897   0.176  53.335  1.00  0.00     0.069 A 
HETATM   10  C7  UNL     1      26.811   0.787  52.514  1.00  0.00     0.144 A 
HETATM   11  C15 UNL     1      26.208  -0.276  54.597  1.00  0.00     0.207 A 
HETATM   12  N3  UNL     1      28.025   0.899  53.060  1.00  0.00    -0.223 NA
HETATM   13  C14 UNL     1      28.403   0.489  54.270  1.00  0.00     0.238 A 
HETATM   14  N4  UNL     1      27.480  -0.108  55.052  1.00  0.00    -0.215 NA
HETATM   15  O2  UNL     1      25.277  -0.893  55.419  1.00  0.00    -0.215 OA
HETATM   16  N5  UNL     1      23.978  -1.090  55.018  1.00  0.00    -0.243 N 
HETATM   17  H10 UNL     1      23.365  -1.564  55.717  1.00  0.00     0.196 HD
BRANCH  10  18
HETATM   18  N2  UNL     1      26.421   1.224  51.229  1.00  0.00    -0.340 N 
HETATM   19  H4  UNL     1      26.439   0.570  50.425  1.00  0.00     0.167 HD
BRANCH  18  20
HETATM   20  C8  UNL     1      25.973   2.507  50.831  1.00  0.00     0.035 A 
HETATM   21  C9  UNL     1      26.576   3.234  49.830  1.00  0.00     0.029 A 
HETATM   22  C10 UNL     1      26.166   4.483  49.417  1.00  0.00     0.004 A 
HETATM   23  C11 UNL     1      25.089   5.082  50.012  1.00  0.00     0.019 A 
HETATM   24  C12 UNL     1      24.455   4.390  51.020  1.00  0.00     0.013 A 
HETATM   25 BR1  UNL     1      22.962   5.165  51.882  1.00  0.00    -0.051 Br
HETATM   26  C13 UNL     1      24.901   3.146  51.399  1.00  0.00     0.048 A 
ENDBRANCH  18  20
ENDBRANCH  10  18
ENDBRANCH   5   7
TORSDOF 3
ENDMDL
MODEL 3
REMARK VINA RESULT:      -8.1      2.124      5.609
REMARK  3 active torsions:
REMARK  status: ('A' for Active; 'I' for Inactive)
REMARK       I    between atoms: C3_3  and  N1_5 
REMARK    1  A    between atoms: N1_5  and  C4_6 
REMARK    2  A    between atoms: C7_9  and  N2_10 
REMARK    3  A    between atoms: N2_10  and  C8_11 
ROOT
HETATM    1  C1  UNL     1      15.615  -0.861  52.204  1.00  0.00     0.022 C 
HETATM    2  C2  UNL     1      16.701  -1.154  52.664  1.00  0.00    -0.016 C 
HETATM    3  C3  UNL     1      18.006  -1.484  53.209  1.00  0.00     0.301 C 
HETATM    4  O1  UNL     1      18.226  -2.587  53.775  1.00  0.00    -0.258 OA
HETATM    5  N1  UNL     1      19.018  -0.482  53.063  1.00  0.00    -0.301 N 
HETATM    6  H2  UNL     1      18.871   0.442  52.600  1.00  0.00     0.171 HD
ENDROOT
BRANCH   5   7
HETATM    7  C4  UNL     1      20.356  -0.618  53.531  1.00  0.00     0.130 A 
HETATM    8  C5  UNL     1      21.394  -0.044  52.966  1.00  0.00     0.070 A 
HETATM    9  C6  UNL     1      22.780  -0.152  53.408  1.00  0.00     0.069 A 
HETATM   10  C7  UNL     1      23.834   0.467  52.785  1.00  0.00     0.144 A 
HETATM   11  C15 UNL     1      22.929  -0.946  54.523  1.00  0.00     0.207 A 
HETATM   12  N3  UNL     1      25.013   0.224  53.366  1.00  0.00    -0.223 NA
HETATM   13  C14 UNL     1      25.238  -0.529  54.441  1.00  0.00     0.238 A 
HETATM   14  N4  UNL     1      24.180  -1.123  55.030  1.00  0.00    -0.215 NA
HETATM   15  O2  UNL     1      21.857  -1.567  55.145  1.00  0.00    -0.215 OA
HETATM   16  N5  UNL     1      20.572  -1.426  54.682  1.00  0.00    -0.243 N 
HETATM   17  H10 UNL     1      19.845  -1.938  55.227  1.00  0.00     0.196 HD
BRANCH  10  18
HETATM   18  N2  UNL     1      23.606   1.265  51.642  1.00  0.00    -0.340 N 
HETATM   19  H4  UNL     1      23.279   0.835  50.759  1.00  0.00     0.167 HD
BRANCH  18  20
HETATM   20  C8  UNL     1      23.762   2.666  51.499  1.00  0.00     0.035 A 
HETATM   21  C9  UNL     1      23.069   3.578  52.261  1.00  0.00     0.029 A 
HETATM   22  C10 UNL     1      23.198   4.946  52.150  1.00  0.00     0.004 A 
HETATM   23  C11 UNL     1      24.063   5.480  51.234  1.00  0.00     0.019 A 
HETATM   24  C12 UNL     1      24.778   4.602  50.449  1.00  0.00     0.013 A 
HETATM   25 BR1  UNL     1      25.989   5.279  49.165  1.00  0.00    -0.051 Br
HETATM   26  C13 UNL     1      24.615   3.245  50.597  1.00  0.00     0.048 A 
ENDBRANCH  18  20
ENDBRANCH  10  18
ENDBRANCH   5   7
TORSDOF 3
ENDMDL
MODEL 4
REMARK VINA RESULT:      -7.9      2.587      3.552
REMARK  3 active torsions:
REMARK  status: ('A' for Active; 'I' for Inactive)
REMARK       I    between atoms: C3_3  and  N1_5 
REMARK    1  A    between atoms: N1_5  and  C4_6 
REMARK    2  A    between atoms: C7_9  and  N2_10 
REMARK    3  A    between atoms: N2_10  and  C8_11 
ROOT
HETATM    1  C1  UNL     1      30.114  -0.390  53.659  1.00  0.00     0.022 C 
HETATM    2  C2  UNL     1      28.917  -0.221  53.782  1.00  0.00    -0.016 C 
HETATM    3  C3  UNL     1      27.486  -0.010  53.907  1.00  0.00     0.301 C 
HETATM    4  O1  UNL     1      26.834  -0.462  54.885  1.00  0.00    -0.258 OA
HETATM    5  N1  UNL     1      26.868   0.740  52.856  1.00  0.00    -0.301 N 
HETATM    6  H2  UNL     1      27.376   1.130  52.031  1.00  0.00     0.171 HD
ENDROOT
BRANCH   5   7
HETATM    7  C4  UNL     1      25.479   1.051  52.800  1.00  0.00     0.130 A 
HETATM    8  C5  UNL     1      25.004   2.253  52.567  1.00  0.00     0.070 A 
HETATM    9  C6  UNL     1      23.594   2.620  52.500  1.00  0.00     0.069 A 
HETATM   10  C7  UNL     1      23.143   3.892  52.254  1.00  0.00     0.144 A 
HETATM   11  C15 UNL     1      22.749   1.553  52.711  1.00  0.00     0.207 A 
HETATM   12  N3  UNL     1      21.811   3.991  52.239  1.00  0.00    -0.223 NA
HETATM   13  C14 UNL     1      20.930   3.010  52.432  1.00  0.00     0.238 A 
HETATM   14  N4  UNL     1      21.406   1.772  52.671  1.00  0.00    -0.215 NA
HETATM   15  O2  UNL     1      23.215   0.271  52.959  1.00  0.00    -0.215 OA
HETATM   16  N5  UNL     1      24.558  -0.013  53.009  1.00  0.00    -0.243 N 
HETATM   17  H10 UNL     1      24.793  -1.010  53.203  1.00  0.00     0.196 HD
BRANCH  10  18
HETATM   18  N2  UNL     1      24.068   4.939  52.050  1.00  0.00    -0.340 N 
HETATM   19  H4  UNL     1      24.589   5.342  52.849  1.00  0.00     0.167 HD
BRANCH  18  20
HETATM   20  C8  UNL     1      24.428   5.575  50.836  1.00  0.00     0.035 A 
HETATM   21  C9  UNL     1      25.419   5.102  50.008  1.00  0.00     0.029 A 
HETATM   22  C10 UNL     1      25.793   5.693  48.820  1.00  0.00     0.004 A 
HETATM   23  C11 UNL     1      25.163   6.830  48.393  1.00  0.00     0.019 A 
HETATM   24  C12 UNL     1      24.163   7.339  49.192  1.00  0.00     0.013 A 
HETATM   25 BR1  UNL     1      23.254   8.908  48.656  1.00  0.00    -0.051 Br
HETATM   26  C13 UNL     1      23.825   6.714  50.369  1.00  0.00     0.048 A 
ENDBRANCH  18  20
ENDBRANCH  10  18
ENDBRANCH   5   7
TORSDOF 3
ENDMDL
MODEL 5
REMARK VINA RESULT:      -7.9      1.507      1.875
REMARK  3 active torsions:
REMARK  status: ('A' for Active; 'I' for Inactive)
REMARK       I    between atoms: C3_3  and  N1_5 
REMARK    1  A    between atoms: N1_5  and  C4_6 
REMARK    2  A    between atoms: C7_9  and  N2_10 
REMARK    3  A    between atoms: N2_10  and  C8_11 
ROOT
HETATM    1  C1  UNL     1      29.722   0.137  53.804  1.00  0.00     0.022 C 
HETATM    2  C2  UNL     1      28.568  -0.182  53.595  1.00  0.00    -0.016 C 
HETATM    3  C3  UNL     1      27.183  -0.542  53.345  1.00  0.00     0.301 C 
HETATM    4  O1  UNL     1      26.844  -1.728  53.091  1.00  0.00    -0.258 OA
HETATM    5  N1  UNL     1      26.236   0.529  53.406  1.00  0.00    -0.301 N 
HETATM    6  H2  UNL     1      26.481   1.523  53.614  1.00  0.00     0.171 HD
ENDROOT
BRANCH   5   7
HETATM    7  C4  UNL     1      24.837   0.377  53.191  1.00  0.00     0.130 A 
HETATM    8  C5  UNL     1      24.190   0.888  52.167  1.00  0.00     0.070 A 
HETATM    9  C6  UNL     1      22.762   0.760  51.904  1.00  0.00     0.069 A 
HETATM   10  C7  UNL     1      22.128   1.312  50.820  1.00  0.00     0.144 A 
HETATM   11  C15 UNL     1      22.102   0.023  52.862  1.00  0.00     0.207 A 
HETATM   12  N3  UNL     1      20.816   1.064  50.786  1.00  0.00    -0.223 NA
HETATM   13  C14 UNL     1      20.109   0.363  51.670  1.00  0.00     0.238 A 
HETATM   14  N4  UNL     1      20.761  -0.168  52.724  1.00  0.00    -0.215 NA
HETATM   15  O2  UNL     1      22.751  -0.532  53.955  1.00  0.00    -0.215 OA
HETATM   16  N5  UNL     1      24.102  -0.377  54.148  1.00  0.00    -0.243 N 
HETATM   17  H10 UNL     1      24.483  -0.836  55.003  1.00  0.00     0.196 HD
BRANCH  10  18
HETATM   18  N2  UNL     1      22.870   2.060  49.878  1.00  0.00    -0.340 N 
HETATM   19  H4  UNL     1      22.995   1.709  48.912  1.00  0.00     0.167 HD
BRANCH  18  20
HETATM   20  C8  UNL     1      23.516   3.308  50.055  1.00  0.00     0.035 A 
HETATM   21  C9  UNL     1      22.985   4.325  50.813  1.00  0.00     0.029 A 
HETATM   22  C10 UNL     1      23.587   5.550  51.008  1.00  0.00     0.004 A 
HETATM   23  C11 UNL     1      24.797   5.819  50.428  1.00  0.00     0.019 A 
HETATM   24  C12 UNL     1      25.365   4.827  49.659  1.00  0.00     0.013 A 
HETATM   25 BR1  UNL     1      27.036   5.138  48.830  1.00  0.00    -0.051 Br
HETATM   26  C13 UNL     1      24.726   3.621  49.493  1.00  0.00     0.048 A 
ENDBRANCH  18  20
ENDBRANCH  10  18
ENDBRANCH   5   7
TORSDOF 3
ENDMDL
MODEL 6
REMARK VINA RESULT:      -7.8      3.394      6.309
REMARK  3 active torsions:
REMARK  status: ('A' for Active; 'I' for Inactive)
REMARK       I    between atoms: C3_3  and  N1_5 
REMARK    1  A    between atoms: N1_5  and  C4_6 
REMARK    2  A    between atoms: C7_9  and  N2_10 
REMARK    3  A    between atoms: N2_10  and  C8_11 
ROOT
HETATM    1  C1  UNL     1      18.667   3.269  48.033  1.00  0.00     0.022 C 
HETATM    2  C2  UNL     1      18.889   2.484  48.934  1.00  0.00    -0.016 C 
HETATM    3  C3  UNL     1      19.172   1.559  50.017  1.00  0.00     0.301 C 
HETATM    4  O1  UNL     1      18.423   0.576  50.259  1.00  0.00    -0.258 OA
HETATM    5  N1  UNL     1      20.347   1.834  50.786  1.00  0.00    -0.301 N 
HETATM    6  H2  UNL     1      20.990   2.639  50.615  1.00  0.00     0.171 HD
ENDROOT
BRANCH   5   7
HETATM    7  C4  UNL     1      20.790   1.045  51.886  1.00  0.00     0.130 A 
HETATM    8  C5  UNL     1      22.054   0.844  52.185  1.00  0.00     0.070 A 
HETATM    9  C6  UNL     1      22.556   0.047  53.297  1.00  0.00     0.069 A 
HETATM   10  C7  UNL     1      23.888  -0.135  53.571  1.00  0.00     0.144 A 
HETATM   11  C15 UNL     1      21.552  -0.512  54.055  1.00  0.00     0.207 A 
HETATM   12  N3  UNL     1      24.112  -0.905  54.640  1.00  0.00    -0.223 NA
HETATM   13  C14 UNL     1      23.198  -1.479  55.421  1.00  0.00     0.238 A 
HETATM   14  N4  UNL     1      21.898  -1.280  55.126  1.00  0.00    -0.215 NA
HETATM   15  O2  UNL     1      20.209  -0.322  53.771  1.00  0.00    -0.215 OA
HETATM   16  N5  UNL     1      19.797   0.443  52.706  1.00  0.00    -0.243 N 
HETATM   17  H10 UNL     1      18.763   0.516  52.587  1.00  0.00     0.196 HD
BRANCH  10  18
HETATM   18  N2  UNL     1      24.865   0.467  52.747  1.00  0.00    -0.340 N 
HETATM   19  H4  UNL     1      24.620   0.788  51.793  1.00  0.00     0.167 HD
BRANCH  18  20
HETATM   20  C8  UNL     1      26.227   0.725  53.038  1.00  0.00     0.035 A 
HETATM   21  C9  UNL     1      26.720   1.990  53.257  1.00  0.00     0.029 A 
HETATM   22  C10 UNL     1      28.037   2.276  53.543  1.00  0.00     0.004 A 
HETATM   23  C11 UNL     1      28.955   1.265  53.628  1.00  0.00     0.019 A 
HETATM   24  C12 UNL     1      28.505  -0.020  53.415  1.00  0.00     0.013 A 
HETATM   25 BR1  UNL     1      29.725  -1.460  53.517  1.00  0.00    -0.051 Br
HETATM   26  C13 UNL     1      27.180  -0.256  53.131  1.00  0.00     0.048 A 
ENDBRANCH  18  20
ENDBRANCH  10  18
ENDBRANCH   5   7
TORSDOF 3
ENDMDL
MODEL 7
REMARK VINA RESULT:      -7.8      5.550      7.595
REMARK  3 active torsions:
REMARK  status: ('A' for Active; 'I' for Inactive)
REMARK       I    between atoms: C3_3  and  N1_5 
REMARK    1  A    between atoms: N1_5  and  C4_6 
REMARK    2  A    between atoms: C7_9  and  N2_10 
REMARK    3  A    between atoms: N2_10  and  C8_11 
ROOT
HETATM    1  C1  UNL     1      32.152   4.569  46.862  1.00  0.00     0.022 C 
HETATM    2  C2  UNL     1      31.268   5.116  47.491  1.00  0.00    -0.016 C 
HETATM    3  C3  UNL     1      30.196   5.752  48.237  1.00  0.00     0.301 C 
HETATM    4  O1  UNL     1      30.396   6.785  48.929  1.00  0.00    -0.258 OA
HETATM    5  N1  UNL     1      28.909   5.135  48.135  1.00  0.00    -0.301 N 
HETATM    6  H2  UNL     1      28.707   4.280  47.572  1.00  0.00     0.171 HD
ENDROOT
BRANCH   5   7
HETATM    7  C4  UNL     1      27.737   5.609  48.791  1.00  0.00     0.130 A 
HETATM    8  C5  UNL     1      26.781   4.830  49.244  1.00  0.00     0.070 A 
HETATM    9  C6  UNL     1      25.565   5.267  49.920  1.00  0.00     0.069 A 
HETATM   10  C7  UNL     1      24.593   4.414  50.377  1.00  0.00     0.144 A 
HETATM   11  C15 UNL     1      25.488   6.635  50.057  1.00  0.00     0.207 A 
HETATM   12  N3  UNL     1      23.569   5.040  50.965  1.00  0.00    -0.223 NA
HETATM   13  C14 UNL     1      23.422   6.353  51.135  1.00  0.00     0.238 A 
HETATM   14  N4  UNL     1      24.396   7.164  50.675  1.00  0.00    -0.215 NA
HETATM   15  O2  UNL     1      26.476   7.488  49.592  1.00  0.00    -0.215 OA
HETATM   16  N5  UNL     1      27.602   7.015  48.962  1.00  0.00    -0.243 N 
HETATM   17  H10 UNL     1      28.278   7.747  48.654  1.00  0.00     0.196 HD
BRANCH  10  18
HETATM   18  N2  UNL     1      24.738   3.021  50.199  1.00  0.00    -0.340 N 
HETATM   19  H4  UNL     1      24.643   2.600  49.258  1.00  0.00     0.167 HD
BRANCH  18  20
HETATM   20  C8  UNL     1      25.017   2.031  51.174  1.00  0.00     0.035 A 
HETATM   21  C9  UNL     1      26.294   1.642  51.502  1.00  0.00     0.029 A 
HETATM   22  C10 UNL     1      26.601   0.685  52.445  1.00  0.00     0.004 A 
HETATM   23  C11 UNL     1      25.599   0.052  53.130  1.00  0.00     0.019 A 
HETATM   24  C12 UNL     1      24.303   0.411  52.833  1.00  0.00     0.013 A 
HETATM   25 BR1  UNL     1      22.875  -0.428  53.744  1.00  0.00    -0.051 Br
HETATM   26  C13 UNL     1      24.047   1.372  51.883  1.00  0.00     0.048 A 
ENDBRANCH  18  20
ENDBRANCH  10  18
ENDBRANCH   5   7
TORSDOF 3
ENDMDL
MODEL 8
REMARK VINA RESULT:      -7.7      3.768      5.692
REMARK  3 active torsions:
REMARK  status: ('A' for Active; 'I' for Inactive)
REMARK       I    between atoms: C3_3  and  N1_5 
REMARK    1  A    between atoms: N1_5  and  C4_6 
REMARK    2  A    between atoms: C7_9  and  N2_10 
REMARK    3  A    between atoms: N2_10  and  C8_11 
ROOT
HETATM    1  C1  UNL     1      26.453   6.845  48.380  1.00  0.00     0.022 C 
HETATM    2  C2  UNL     1      26.470   5.758  48.922  1.00  0.00    -0.016 C 
HETATM    3  C3  UNL     1      26.473   4.465  49.584  1.00  0.00     0.301 C 
HETATM    4  O1  UNL     1      27.178   3.510  49.164  1.00  0.00    -0.258 OA
HETATM    5  N1  UNL     1      25.630   4.347  50.734  1.00  0.00    -0.301 N 
HETATM    6  H2  UNL     1      25.033   5.117  51.110  1.00  0.00     0.171 HD
ENDROOT
BRANCH   5   7
HETATM    7  C4  UNL     1      25.497   3.163  51.515  1.00  0.00     0.130 A 
HETATM    8  C5  UNL     1      24.346   2.666  51.906  1.00  0.00     0.070 A 
HETATM    9  C6  UNL     1      24.160   1.459  52.705  1.00  0.00     0.069 A 
HETATM   10  C7  UNL     1      22.935   0.976  53.090  1.00  0.00     0.144 A 
HETATM   11  C15 UNL     1      25.346   0.846  53.038  1.00  0.00     0.207 A 
HETATM   12  N3  UNL     1      23.008  -0.142  53.817  1.00  0.00    -0.223 NA
HETATM   13  C14 UNL     1      24.113  -0.794  54.179  1.00  0.00     0.238 A 
HETATM   14  N4  UNL     1      25.300  -0.293  53.783  1.00  0.00    -0.215 NA
HETATM   15  O2  UNL     1      26.579   1.341  52.643  1.00  0.00    -0.215 OA
HETATM   16  N5  UNL     1      26.690   2.485  51.889  1.00  0.00    -0.243 N 
HETATM   17  H10 UNL     1      27.666   2.765  51.650  1.00  0.00     0.196 HD
BRANCH  10  18
HETATM   18  N2  UNL     1      21.758   1.661  52.714  1.00  0.00    -0.340 N 
HETATM   19  H4  UNL     1      21.655   2.673  52.910  1.00  0.00     0.167 HD
BRANCH  18  20
HETATM   20  C8  UNL     1      20.610   1.149  52.061  1.00  0.00     0.035 A 
HETATM   21  C9  UNL     1      20.290   1.456  50.759  1.00  0.00     0.029 A 
HETATM   22  C10 UNL     1      19.184   0.975  50.092  1.00  0.00     0.004 A 
HETATM   23  C11 UNL     1      18.315   0.129  50.728  1.00  0.00     0.019 A 
HETATM   24  C12 UNL     1      18.598  -0.205  52.034  1.00  0.00     0.013 A 
HETATM   25 BR1  UNL     1      17.435  -1.369  52.966  1.00  0.00    -0.051 Br
HETATM   26  C13 UNL     1      19.714   0.301  52.657  1.00  0.00     0.048 A 
ENDBRANCH  18  20
ENDBRANCH  10  18
ENDBRANCH   5   7
TORSDOF 3
ENDMDL
MODEL 9
REMARK VINA RESULT:      -7.6      1.795      2.130
REMARK  3 active torsions:
REMARK  status: ('A' for Active; 'I' for Inactive)
REMARK       I    between atoms: C3_3  and  N1_5 
REMARK    1  A    between atoms: N1_5  and  C4_6 
REMARK    2  A    between atoms: C7_9  and  N2_10 
REMARK    3  A    between atoms: N2_10  and  C8_11 
ROOT
HETATM    1  C1  UNL     1      29.475   2.339  53.868  1.00  0.00     0.022 C 
HETATM    2  C2  UNL     1      28.567   1.565  54.098  1.00  0.00    -0.016 C 
HETATM    3  C3  UNL     1      27.467   0.653  54.361  1.00  0.00     0.301 C 
HETATM    4  O1  UNL     1      27.652  -0.463  54.913  1.00  0.00    -0.258 OA
HETATM    5  N1  UNL     1      26.170   1.101  53.954  1.00  0.00    -0.301 N 
HETATM    6  H2  UNL     1      25.980   2.019  53.494  1.00  0.00     0.171 HD
ENDROOT
BRANCH   5   7
HETATM    7  C4  UNL     1      24.971   0.352  54.126  1.00  0.00     0.130 A 
HETATM    8  C5  UNL     1      23.810   0.697  53.617  1.00  0.00     0.070 A 
HETATM    9  C6  UNL     1      22.557  -0.036  53.765  1.00  0.00     0.069 A 
HETATM   10  C7  UNL     1      21.366   0.364  53.214  1.00  0.00     0.144 A 
HETATM   11  C15 UNL     1      22.688  -1.180  54.519  1.00  0.00     0.207 A 
HETATM   12  N3  UNL     1      20.352  -0.464  53.482  1.00  0.00    -0.223 NA
HETATM   13  C14 UNL     1      20.398  -1.585  54.200  1.00  0.00     0.238 A 
HETATM   14  N4  UNL     1      21.585  -1.950  54.726  1.00  0.00    -0.215 NA
HETATM   15  O2  UNL     1      23.897  -1.576  55.071  1.00  0.00    -0.215 OA
HETATM   16  N5  UNL     1      25.046  -0.842  54.896  1.00  0.00    -0.243 N 
HETATM   17  H10 UNL     1      25.896  -1.233  55.356  1.00  0.00     0.196 HD
BRANCH  10  18
HETATM   18  N2  UNL     1      21.305   1.552  52.454  1.00  0.00    -0.340 N 
HETATM   19  H4  UNL     1      20.942   2.426  52.875  1.00  0.00     0.167 HD
BRANCH  18  20
HETATM   20  C8  UNL     1      21.693   1.759  51.107  1.00  0.00     0.035 A 
HETATM   21  C9  UNL     1      21.305   0.928  50.081  1.00  0.00     0.029 A 
HETATM   22  C10 UNL     1      21.661   1.100  48.761  1.00  0.00     0.004 A 
HETATM   23  C11 UNL     1      22.453   2.155  48.396  1.00  0.00     0.019 A 
HETATM   24  C12 UNL     1      22.865   3.013  49.393  1.00  0.00     0.013 A 
HETATM   25 BR1  UNL     1      23.961   4.489  48.953  1.00  0.00    -0.051 Br
HETATM   26  C13 UNL     1      22.484   2.800  50.697  1.00  0.00     0.048 A 
ENDBRANCH  18  20
ENDBRANCH  10  18
ENDBRANCH   5   7
TORSDOF 3
ENDMDL
