MODEL 1
REMARK VINA RESULT:      -9.1      0.000      0.000
REMARK  7 active torsions:
REMARK  status: ('A' for Active; 'I' for Inactive)
REMARK    1  A    between atoms: C3_3  and  C4_4 
REMARK    2  A    between atoms: C6_8  and  N3_9 
REMARK    3  A    between atoms: N3_9  and  C7_10 
REMARK    4  A    between atoms: C13_18  and  C14_19 
REMARK    5  A    between atoms: C15_20  and  C16_21 
REMARK    6  A    between atoms: C16_21  and  N4_22 
REMARK    7  A    between atoms: C19_25  and  C20_26 
REMARK       I    between atoms: C20_26  and  N5_27 
ROOT
HETATM    1  C4  UNL     1      21.371  -0.580  53.881  1.00  0.00     0.071 A 
HETATM    2  N1  UNL     1      21.653  -1.258  54.999  1.00  0.00    -0.241 NA
HETATM    3  C5  UNL     1      22.936  -1.424  55.351  1.00  0.00     0.236 A 
HETATM    4  N2  UNL     1      23.970  -0.952  54.650  1.00  0.00    -0.224 NA
HETATM    5  C6  UNL     1      23.736  -0.272  53.529  1.00  0.00     0.142 A 
HETATM    6  C13 UNL     1      22.434  -0.088  53.147  1.00  0.00     0.038 A 
ENDROOT
BRANCH   6   7
HETATM    7  C14 UNL     1      22.175   0.654  51.928  1.00  0.00     0.015 C 
HETATM    8  C15 UNL     1      21.649   1.609  51.199  1.00  0.00     0.004 C 
BRANCH   8   9
HETATM    9  C16 UNL     1      21.778   1.897  49.725  1.00  0.00     0.300 C 
BRANCH   9  10
HETATM   10  N4  UNL     1      22.390   3.160  49.479  1.00  0.00     0.092 N 
HETATM   11  C17 UNL     1      23.829   3.065  49.503  1.00  0.00     0.273 C 
HETATM   12  C18 UNL     1      24.293   4.505  49.624  1.00  0.00     0.046 C 
HETATM   13  C19 UNL     1      23.168   5.166  50.384  1.00  0.00     0.107 C 
HETATM   14  C21 UNL     1      22.138   4.076  50.568  1.00  0.00     0.286 C 
BRANCH  13  15
HETATM   15  C20 UNL     1      23.707   5.704  51.641  1.00  0.00     0.221 C 
HETATM   16  N5  UNL     1      24.403   6.935  51.770  1.00  0.00    -0.370 N 
HETATM   17  H20 UNL     1      24.250   7.941  51.995  1.00  0.00     0.159 HD
HETATM   18  H21 UNL     1      25.361   6.563  51.540  1.00  0.00     0.159 HD
HETATM   19  O1  UNL     1      23.585   5.083  52.745  1.00  0.00    -0.273 OA
ENDBRANCH  13  15
ENDBRANCH   9  10
ENDBRANCH   8   9
ENDBRANCH   6   7
BRANCH   1  20
HETATM   20  C3  UNL     1      19.991  -0.406  53.505  1.00  0.00     0.028 C 
HETATM   21  C2  UNL     1      19.208  -1.478  53.616  1.00  0.00    -0.029 C 
HETATM   22  C1  UNL     1      17.763  -1.551  53.293  1.00  0.00     0.036 C 
ENDBRANCH   1  20
BRANCH   5  23
HETATM   23  N3  UNL     1      24.882   0.173  52.871  1.00  0.00    -0.340 N 
HETATM   24  H7  UNL     1      24.662   0.854  52.130  1.00  0.00     0.167 HD
BRANCH  23  25
HETATM   25  C7  UNL     1      26.221  -0.159  53.065  1.00  0.00     0.035 A 
HETATM   26  C8  UNL     1      26.871  -1.339  52.795  1.00  0.00     0.032 A 
HETATM   27  C9  UNL     1      28.208  -1.579  53.006  1.00  0.00     0.046 A 
HETATM   28  C10 UNL     1      28.958  -0.569  53.526  1.00  0.00     0.138 A 
HETATM   29  F1  UNL     1      30.278  -0.749  53.753  1.00  0.00    -0.204 F 
HETATM   30  C11 UNL     1      28.414   0.656  53.836  1.00  0.00     0.074 A 
HETATM   31 CL1  UNL     1      29.401   1.928  54.502  1.00  0.00    -0.081 Cl
HETATM   32  C12 UNL     1      27.075   0.817  53.598  1.00  0.00     0.056 A 
ENDBRANCH  23  25
ENDBRANCH   5  23
TORSDOF 7
ENDMDL
MODEL 2
REMARK VINA RESULT:      -8.8      3.960      7.857
REMARK  7 active torsions:
REMARK  status: ('A' for Active; 'I' for Inactive)
REMARK    1  A    between atoms: C3_3  and  C4_4 
REMARK    2  A    between atoms: C6_8  and  N3_9 
REMARK    3  A    between atoms: N3_9  and  C7_10 
REMARK    4  A    between atoms: C13_18  and  C14_19 
REMARK    5  A    between atoms: C15_20  and  C16_21 
REMARK    6  A    between atoms: C16_21  and  N4_22 
REMARK    7  A    between atoms: C19_25  and  C20_26 
REMARK       I    between atoms: C20_26  and  N5_27 
ROOT
HETATM    1  C4  UNL     1      23.928   3.505  49.736  1.00  0.00     0.071 A 
HETATM    2  N1  UNL     1      23.105   3.903  48.761  1.00  0.00    -0.241 NA
HETATM    3  C5  UNL     1      21.784   3.918  48.992  1.00  0.00     0.236 A 
HETATM    4  N2  UNL     1      21.225   3.554  50.149  1.00  0.00    -0.224 NA
HETATM    5  C6  UNL     1      22.006   3.150  51.148  1.00  0.00     0.142 A 
HETATM    6  C13 UNL     1      23.359   3.127  50.938  1.00  0.00     0.038 A 
ENDROOT
BRANCH   6   7
HETATM    7  C14 UNL     1      24.214   2.688  52.025  1.00  0.00     0.015 C 
HETATM    8  C15 UNL     1      24.862   2.809  53.158  1.00  0.00     0.004 C 
BRANCH   8   9
HETATM    9  C16 UNL     1      25.734   1.824  53.896  1.00  0.00     0.300 C 
BRANCH   9  10
HETATM   10  N4  UNL     1      26.132   0.737  53.066  1.00  0.00     0.092 N 
HETATM   11  C17 UNL     1      25.598  -0.515  53.539  1.00  0.00     0.273 C 
HETATM   12  C18 UNL     1      26.415  -1.566  52.811  1.00  0.00     0.046 C 
HETATM   13  C19 UNL     1      27.747  -0.884  52.607  1.00  0.00     0.107 C 
HETATM   14  C21 UNL     1      27.555   0.506  53.166  1.00  0.00     0.286 C 
BRANCH  13  15
HETATM   15  C20 UNL     1      28.784  -1.671  53.291  1.00  0.00     0.221 C 
HETATM   16  N5  UNL     1      28.842  -3.089  53.326  1.00  0.00    -0.370 N 
HETATM   17  H20 UNL     1      29.266  -3.902  52.832  1.00  0.00     0.159 HD
HETATM   18  H21 UNL     1      28.216  -3.220  54.163  1.00  0.00     0.159 HD
HETATM   19  O1  UNL     1      29.738  -1.118  53.924  1.00  0.00    -0.273 OA
ENDBRANCH  13  15
ENDBRANCH   9  10
ENDBRANCH   8   9
ENDBRANCH   6   7
BRANCH   1  20
HETATM   20  C3  UNL     1      25.347   3.489  49.484  1.00  0.00     0.028 C 
HETATM   21  C2  UNL     1      25.896   4.647  49.117  1.00  0.00    -0.029 C 
HETATM   22  C1  UNL     1      27.325   4.885  48.804  1.00  0.00     0.036 C 
ENDBRANCH   1  20
BRANCH   5  23
HETATM   23  N3  UNL     1      21.323   2.790  52.309  1.00  0.00    -0.340 N 
HETATM   24  H7  UNL     1      21.120   3.605  52.907  1.00  0.00     0.167 HD
BRANCH  23  25
HETATM   25  C7  UNL     1      20.897   1.542  52.755  1.00  0.00     0.035 A 
HETATM   26  C8  UNL     1      21.497   0.688  53.649  1.00  0.00     0.032 A 
HETATM   27  C9  UNL     1      20.997  -0.529  54.049  1.00  0.00     0.046 A 
HETATM   28  C10 UNL     1      19.809  -0.930  53.517  1.00  0.00     0.138 A 
HETATM   29  F1  UNL     1      19.271  -2.117  53.874  1.00  0.00    -0.204 F 
HETATM   30  C11 UNL     1      19.119  -0.157  52.612  1.00  0.00     0.074 A 
HETATM   31 CL1  UNL     1      17.602  -0.700  51.950  1.00  0.00    -0.081 Cl
HETATM   32  C12 UNL     1      19.683   1.042  52.265  1.00  0.00     0.056 A 
ENDBRANCH  23  25
ENDBRANCH   5  23
TORSDOF 7
ENDMDL
MODEL 3
REMARK VINA RESULT:      -8.7      3.138      5.675
REMARK  7 active torsions:
REMARK  status: ('A' for Active; 'I' for Inactive)
REMARK    1  A    between atoms: C3_3  and  C4_4 
REMARK    2  A    between atoms: C6_8  and  N3_9 
REMARK    3  A    between atoms: N3_9  and  C7_10 
REMARK    4  A    between atoms: C13_18  and  C14_19 
REMARK    5  A    between atoms: C15_20  and  C16_21 
REMARK    6  A    between atoms: C16_21  and  N4_22 
REMARK    7  A    between atoms: C19_25  and  C20_26 
REMARK       I    between atoms: C20_26  and  N5_27 
ROOT
HETATM    1  C4  UNL     1      20.316   1.677  51.648  1.00  0.00     0.071 A 
HETATM    2  N1  UNL     1      19.532   2.545  51.001  1.00  0.00    -0.241 NA
HETATM    3  C5  UNL     1      20.026   3.747  50.671  1.00  0.00     0.236 A 
HETATM    4  N2  UNL     1      21.270   4.144  50.951  1.00  0.00    -0.224 NA
HETATM    5  C6  UNL     1      22.086   3.313  51.594  1.00  0.00     0.142 A 
HETATM    6  C13 UNL     1      21.606   2.079  51.942  1.00  0.00     0.038 A 
ENDROOT
BRANCH   6   7
HETATM    7  C14 UNL     1      22.493   1.170  52.642  1.00  0.00     0.015 C 
HETATM    8  C15 UNL     1      22.863   0.023  53.160  1.00  0.00     0.004 C 
BRANCH   8   9
HETATM    9  C16 UNL     1      24.127  -0.358  53.889  1.00  0.00     0.300 C 
BRANCH   9  10
HETATM   10  N4  UNL     1      25.295   0.044  53.179  1.00  0.00     0.092 N 
HETATM   11  C17 UNL     1      26.188  -1.065  52.953  1.00  0.00     0.273 C 
HETATM   12  C18 UNL     1      27.501  -0.411  52.565  1.00  0.00     0.046 C 
HETATM   13  C19 UNL     1      27.461   0.905  53.304  1.00  0.00     0.107 C 
HETATM   14  C21 UNL     1      26.113   0.920  53.987  1.00  0.00     0.286 C 
BRANCH  13  15
HETATM   15  C20 UNL     1      28.604   0.957  54.228  1.00  0.00     0.221 C 
HETATM   16  N5  UNL     1      29.389   2.110  54.490  1.00  0.00    -0.370 N 
HETATM   17  H20 UNL     1      29.469   2.912  55.150  1.00  0.00     0.159 HD
HETATM   18  H21 UNL     1      30.063   1.988  53.690  1.00  0.00     0.159 HD
HETATM   19  O1  UNL     1      28.987  -0.066  54.881  1.00  0.00    -0.273 OA
ENDBRANCH  13  15
ENDBRANCH   9  10
ENDBRANCH   8   9
ENDBRANCH   6   7
BRANCH   1  20
HETATM   20  C3  UNL     1      19.781   0.387  52.003  1.00  0.00     0.028 C 
HETATM   21  C2  UNL     1      18.457   0.254  51.922  1.00  0.00    -0.029 C 
HETATM   22  C1  UNL     1      17.674  -0.966  52.232  1.00  0.00     0.036 C 
ENDBRANCH   1  20
BRANCH   5  23
HETATM   23  N3  UNL     1      23.360   3.826  51.840  1.00  0.00    -0.340 N 
HETATM   24  H7  UNL     1      23.431   4.251  52.776  1.00  0.00     0.167 HD
BRANCH  23  25
HETATM   25  C7  UNL     1      24.497   3.844  51.036  1.00  0.00     0.035 A 
HETATM   26  C8  UNL     1      25.448   2.868  50.856  1.00  0.00     0.032 A 
HETATM   27  C9  UNL     1      26.540   2.961  50.026  1.00  0.00     0.046 A 
HETATM   28  C10 UNL     1      26.700   4.115  49.320  1.00  0.00     0.138 A 
HETATM   29  F1  UNL     1      27.755   4.262  48.488  1.00  0.00    -0.204 F 
HETATM   30  C11 UNL     1      25.811   5.160  49.422  1.00  0.00     0.074 A 
HETATM   31 CL1  UNL     1      26.047   6.624  48.506  1.00  0.00    -0.081 Cl
HETATM   32  C12 UNL     1      24.750   4.990  50.270  1.00  0.00     0.056 A 
ENDBRANCH  23  25
ENDBRANCH   5  23
TORSDOF 7
ENDMDL
MODEL 4
REMARK VINA RESULT:      -8.5      3.545      5.405
REMARK  7 active torsions:
REMARK  status: ('A' for Active; 'I' for Inactive)
REMARK    1  A    between atoms: C3_3  and  C4_4 
REMARK    2  A    between atoms: C6_8  and  N3_9 
REMARK    3  A    between atoms: N3_9  and  C7_10 
REMARK    4  A    between atoms: C13_18  and  C14_19 
REMARK    5  A    between atoms: C15_20  and  C16_21 
REMARK    6  A    between atoms: C16_21  and  N4_22 
REMARK    7  A    between atoms: C19_25  and  C20_26 
REMARK       I    between atoms: C20_26  and  N5_27 
ROOT
HETATM    1  C4  UNL     1      23.431   3.051  49.776  1.00  0.00     0.071 A 
HETATM    2  N1  UNL     1      22.417   2.460  50.418  1.00  0.00    -0.241 NA
HETATM    3  C5  UNL     1      22.607   2.025  51.672  1.00  0.00     0.236 A 
HETATM    4  N2  UNL     1      23.760   2.143  52.335  1.00  0.00    -0.224 NA
HETATM    5  C6  UNL     1      24.797   2.725  51.735  1.00  0.00     0.142 A 
HETATM    6  C13 UNL     1      24.629   3.177  50.454  1.00  0.00     0.038 A 
ENDROOT
BRANCH   6   7
HETATM    7  C14 UNL     1      25.755   3.813  49.797  1.00  0.00     0.015 C 
HETATM    8  C15 UNL     1      26.586   4.792  49.530  1.00  0.00     0.004 C 
BRANCH   8   9
HETATM    9  C16 UNL     1      27.761   4.847  48.587  1.00  0.00     0.300 C 
BRANCH   9  10
HETATM   10  N4  UNL     1      27.978   6.160  48.080  1.00  0.00     0.092 N 
HETATM   11  C17 UNL     1      29.365   6.542  48.170  1.00  0.00     0.273 C 
HETATM   12  C18 UNL     1      29.351   8.046  47.975  1.00  0.00     0.046 C 
HETATM   13  C19 UNL     1      28.005   8.451  48.529  1.00  0.00     0.107 C 
HETATM   14  C21 UNL     1      27.346   7.150  48.924  1.00  0.00     0.286 C 
BRANCH  13  15
HETATM   15  C20 UNL     1      28.222   9.380  49.648  1.00  0.00     0.221 C 
HETATM   16  N5  UNL     1      29.485   9.876  50.064  1.00  0.00    -0.370 N 
HETATM   17  H20 UNL     1      30.130  10.684  49.931  1.00  0.00     0.159 HD
HETATM   18  H21 UNL     1      29.731   9.077  50.704  1.00  0.00     0.159 HD
HETATM   19  O1  UNL     1      27.257   9.821  50.351  1.00  0.00    -0.273 OA
ENDBRANCH  13  15
ENDBRANCH   9  10
ENDBRANCH   8   9
ENDBRANCH   6   7
BRANCH   1  20
HETATM   20  C3  UNL     1      23.223   3.514  48.427  1.00  0.00     0.028 C 
HETATM   21  C2  UNL     1      22.189   2.985  47.773  1.00  0.00    -0.029 C 
HETATM   22  C1  UNL     1      21.772   3.297  46.385  1.00  0.00     0.036 C 
ENDBRANCH   1  20
BRANCH   5  23
HETATM   23  N3  UNL     1      25.953   2.794  52.513  1.00  0.00    -0.340 N 
HETATM   24  H7  UNL     1      26.089   3.731  52.919  1.00  0.00     0.167 HD
BRANCH  23  25
HETATM   25  C7  UNL     1      26.905   1.820  52.804  1.00  0.00     0.035 A 
HETATM   26  C8  UNL     1      28.152   1.965  53.361  1.00  0.00     0.032 A 
HETATM   27  C9  UNL     1      29.030   0.942  53.631  1.00  0.00     0.046 A 
HETATM   28  C10 UNL     1      28.637  -0.326  53.321  1.00  0.00     0.138 A 
HETATM   29  F1  UNL     1      29.459  -1.370  53.565  1.00  0.00    -0.204 F 
HETATM   30  C11 UNL     1      27.410  -0.590  52.759  1.00  0.00     0.074 A 
HETATM   31 CL1  UNL     1      26.939  -2.223  52.374  1.00  0.00    -0.081 Cl
HETATM   32  C12 UNL     1      26.593   0.483  52.521  1.00  0.00     0.056 A 
ENDBRANCH  23  25
ENDBRANCH   5  23
TORSDOF 7
ENDMDL
MODEL 5
REMARK VINA RESULT:      -8.5      2.107      3.221
REMARK  7 active torsions:
REMARK  status: ('A' for Active; 'I' for Inactive)
REMARK    1  A    between atoms: C3_3  and  C4_4 
REMARK    2  A    between atoms: C6_8  and  N3_9 
REMARK    3  A    between atoms: N3_9  and  C7_10 
REMARK    4  A    between atoms: C13_18  and  C14_19 
REMARK    5  A    between atoms: C15_20  and  C16_21 
REMARK    6  A    between atoms: C16_21  and  N4_22 
REMARK    7  A    between atoms: C19_25  and  C20_26 
REMARK       I    between atoms: C20_26  and  N5_27 
ROOT
HETATM    1  C4  UNL     1      21.941   0.966  50.962  1.00  0.00     0.071 A 
HETATM    2  N1  UNL     1      20.983   0.274  51.589  1.00  0.00    -0.241 NA
HETATM    3  C5  UNL     1      21.207  -0.161  52.837  1.00  0.00     0.236 A 
HETATM    4  N2  UNL     1      22.341   0.052  53.509  1.00  0.00    -0.224 NA
HETATM    5  C6  UNL     1      23.322   0.735  52.925  1.00  0.00     0.142 A 
HETATM    6  C13 UNL     1      23.119   1.191  51.649  1.00  0.00     0.038 A 
ENDROOT
BRANCH   6   7
HETATM    7  C14 UNL     1      24.185   1.938  51.009  1.00  0.00     0.015 C 
HETATM    8  C15 UNL     1      24.960   2.975  50.803  1.00  0.00     0.004 C 
BRANCH   8   9
HETATM    9  C16 UNL     1      26.085   3.175  49.819  1.00  0.00     0.300 C 
BRANCH   9  10
HETATM   10  N4  UNL     1      25.937   4.380  49.075  1.00  0.00     0.092 N 
HETATM   11  C17 UNL     1      27.205   5.033  48.863  1.00  0.00     0.273 C 
HETATM   12  C18 UNL     1      26.831   6.438  48.429  1.00  0.00     0.046 C 
HETATM   13  C19 UNL     1      25.515   6.675  49.130  1.00  0.00     0.107 C 
HETATM   14  C21 UNL     1      25.219   5.374  49.840  1.00  0.00     0.286 C 
BRANCH  13  15
HETATM   15  C20 UNL     1      25.665   7.830  50.028  1.00  0.00     0.221 C 
HETATM   16  N5  UNL     1      26.900   8.317  50.531  1.00  0.00    -0.370 N 
HETATM   17  H20 UNL     1      27.645   9.018  50.331  1.00  0.00     0.159 HD
HETATM   18  H21 UNL     1      26.955   7.681  51.369  1.00  0.00     0.159 HD
HETATM   19  O1  UNL     1      24.663   8.499  50.436  1.00  0.00    -0.273 OA
ENDBRANCH  13  15
ENDBRANCH   9  10
ENDBRANCH   8   9
ENDBRANCH   6   7
BRANCH   1  20
HETATM   20  C3  UNL     1      21.697   1.430  49.620  1.00  0.00     0.028 C 
HETATM   21  C2  UNL     1      20.700   2.300  49.467  1.00  0.00    -0.029 C 
HETATM   22  C1  UNL     1      20.257   2.918  48.195  1.00  0.00     0.036 C 
ENDBRANCH   1  20
BRANCH   5  23
HETATM   23  N3  UNL     1      24.464   0.899  53.710  1.00  0.00    -0.340 N 
HETATM   24  H7  UNL     1      24.291   1.514  54.519  1.00  0.00     0.167 HD
BRANCH  23  25
HETATM   25  C7  UNL     1      25.744   0.371  53.562  1.00  0.00     0.035 A 
HETATM   26  C8  UNL     1      26.132  -0.824  53.007  1.00  0.00     0.032 A 
HETATM   27  C9  UNL     1      27.428  -1.265  52.886  1.00  0.00     0.046 A 
HETATM   28  C10 UNL     1      28.418  -0.455  53.354  1.00  0.00     0.138 A 
HETATM   29  F1  UNL     1      29.710  -0.837  53.261  1.00  0.00    -0.204 F 
HETATM   30  C11 UNL     1      28.147   0.765  53.931  1.00  0.00     0.074 A 
HETATM   31 CL1  UNL     1      29.437   1.777  54.521  1.00  0.00    -0.081 Cl
HETATM   32  C12 UNL     1      26.831   1.132  54.015  1.00  0.00     0.056 A 
ENDBRANCH  23  25
ENDBRANCH   5  23
TORSDOF 7
ENDMDL
MODEL 6
REMARK VINA RESULT:      -8.5      2.516      4.874
REMARK  7 active torsions:
REMARK  status: ('A' for Active; 'I' for Inactive)
REMARK    1  A    between atoms: C3_3  and  C4_4 
REMARK    2  A    between atoms: C6_8  and  N3_9 
REMARK    3  A    between atoms: N3_9  and  C7_10 
REMARK    4  A    between atoms: C13_18  and  C14_19 
REMARK    5  A    between atoms: C15_20  and  C16_21 
REMARK    6  A    between atoms: C16_21  and  N4_22 
REMARK    7  A    between atoms: C19_25  and  C20_26 
REMARK       I    between atoms: C20_26  and  N5_27 
ROOT
HETATM    1  C4  UNL     1      24.385   3.103  49.965  1.00  0.00     0.071 A 
HETATM    2  N1  UNL     1      25.296   3.823  49.302  1.00  0.00    -0.241 NA
HETATM    3  C5  UNL     1      26.567   3.818  49.731  1.00  0.00     0.236 A 
HETATM    4  N2  UNL     1      26.992   3.132  50.795  1.00  0.00    -0.224 NA
HETATM    5  C6  UNL     1      26.119   2.402  51.486  1.00  0.00     0.142 A 
HETATM    6  C13 UNL     1      24.815   2.389  51.068  1.00  0.00     0.038 A 
ENDROOT
BRANCH   6   7
HETATM    7  C14 UNL     1      23.862   1.594  51.818  1.00  0.00     0.015 C 
HETATM    8  C15 UNL     1      23.040   1.330  52.804  1.00  0.00     0.004 C 
BRANCH   8   9
HETATM    9  C16 UNL     1      22.187   0.115  53.069  1.00  0.00     0.300 C 
BRANCH   9  10
HETATM   10  N4  UNL     1      20.875   0.256  52.534  1.00  0.00     0.092 N 
HETATM   11  C17 UNL     1      20.897   0.375  51.097  1.00  0.00     0.273 C 
HETATM   12  C18 UNL     1      19.519   0.902  50.746  1.00  0.00     0.046 C 
HETATM   13  C19 UNL     1      19.140   1.710  51.964  1.00  0.00     0.107 C 
HETATM   14  C21 UNL     1      20.291   1.520  52.923  1.00  0.00     0.286 C 
BRANCH  13  15
HETATM   15  C20 UNL     1      18.925   3.105  51.550  1.00  0.00     0.221 C 
HETATM   16  N5  UNL     1      19.787   3.846  50.699  1.00  0.00    -0.370 N 
HETATM   17  H20 UNL     1      19.925   4.103  49.699  1.00  0.00     0.159 HD
HETATM   18  H21 UNL     1      20.441   4.188  51.450  1.00  0.00     0.159 HD
HETATM   19  O1  UNL     1      17.915   3.773  51.941  1.00  0.00    -0.273 OA
ENDBRANCH  13  15
ENDBRANCH   9  10
ENDBRANCH   8   9
ENDBRANCH   6   7
BRANCH   1  20
HETATM   20  C3  UNL     1      23.020   3.113  49.501  1.00  0.00     0.028 C 
HETATM   21  C2  UNL     1      22.777   2.457  48.367  1.00  0.00    -0.029 C 
HETATM   22  C1  UNL     1      21.465   2.322  47.692  1.00  0.00     0.036 C 
ENDBRANCH   1  20
BRANCH   5  23
HETATM   23  N3  UNL     1      26.664   1.728  52.580  1.00  0.00    -0.340 N 
HETATM   24  H7  UNL     1      26.733   2.334  53.411  1.00  0.00     0.167 HD
BRANCH  23  25
HETATM   25  C7  UNL     1      27.107   0.414  52.701  1.00  0.00     0.035 A 
HETATM   26  C8  UNL     1      26.465  -0.753  52.363  1.00  0.00     0.032 A 
HETATM   27  C9  UNL     1      26.983  -2.019  52.504  1.00  0.00     0.046 A 
HETATM   28  C10 UNL     1      28.238  -2.134  53.021  1.00  0.00     0.138 A 
HETATM   29  F1  UNL     1      28.797  -3.354  53.181  1.00  0.00    -0.204 F 
HETATM   30  C11 UNL     1      28.974  -1.034  53.396  1.00  0.00     0.074 A 
HETATM   31 CL1  UNL     1      30.577  -1.217  54.056  1.00  0.00    -0.081 Cl
HETATM   32  C12 UNL     1      28.388   0.191  53.225  1.00  0.00     0.056 A 
ENDBRANCH  23  25
ENDBRANCH   5  23
TORSDOF 7
ENDMDL
MODEL 7
REMARK VINA RESULT:      -8.5      2.440      5.923
REMARK  7 active torsions:
REMARK  status: ('A' for Active; 'I' for Inactive)
REMARK    1  A    between atoms: C3_3  and  C4_4 
REMARK    2  A    between atoms: C6_8  and  N3_9 
REMARK    3  A    between atoms: N3_9  and  C7_10 
REMARK    4  A    between atoms: C13_18  and  C14_19 
REMARK    5  A    between atoms: C15_20  and  C16_21 
REMARK    6  A    between atoms: C16_21  and  N4_22 
REMARK    7  A    between atoms: C19_25  and  C20_26 
REMARK       I    between atoms: C20_26  and  N5_27 
ROOT
HETATM    1  C4  UNL     1      24.551   3.902  49.336  1.00  0.00     0.071 A 
HETATM    2  N1  UNL     1      25.721   4.454  49.000  1.00  0.00    -0.241 NA
HETATM    3  C5  UNL     1      26.829   4.082  49.657  1.00  0.00     0.236 A 
HETATM    4  N2  UNL     1      26.843   3.182  50.644  1.00  0.00    -0.224 NA
HETATM    5  C6  UNL     1      25.701   2.606  51.014  1.00  0.00     0.142 A 
HETATM    6  C13 UNL     1      24.555   2.969  50.357  1.00  0.00     0.038 A 
ENDROOT
BRANCH   6   7
HETATM    7  C14 UNL     1      23.309   2.343  50.756  1.00  0.00     0.015 C 
HETATM    8  C15 UNL     1      22.355   1.445  50.710  1.00  0.00     0.004 C 
BRANCH   8   9
HETATM    9  C16 UNL     1      21.096   1.312  51.530  1.00  0.00     0.300 C 
BRANCH   9  10
HETATM   10  N4  UNL     1      21.052   0.080  52.244  1.00  0.00     0.092 N 
HETATM   11  C17 UNL     1      20.398   0.229  53.520  1.00  0.00     0.273 C 
HETATM   12  C18 UNL     1      20.782  -1.025  54.283  1.00  0.00     0.046 C 
HETATM   13  C19 UNL     1      22.138  -1.369  53.715  1.00  0.00     0.107 C 
HETATM   14  C21 UNL     1      22.378  -0.335  52.640  1.00  0.00     0.286 C 
BRANCH  13  15
HETATM   15  C20 UNL     1      23.123  -1.341  54.807  1.00  0.00     0.221 C 
HETATM   16  N5  UNL     1      24.431  -0.799  54.713  1.00  0.00    -0.370 N 
HETATM   17  H20 UNL     1      24.967   0.078  54.887  1.00  0.00     0.159 HD
HETATM   18  H21 UNL     1      24.900  -1.663  54.337  1.00  0.00     0.159 HD
HETATM   19  O1  UNL     1      22.864  -1.821  55.957  1.00  0.00    -0.273 OA
ENDBRANCH  13  15
ENDBRANCH   9  10
ENDBRANCH   8   9
ENDBRANCH   6   7
BRANCH   1  20
HETATM   20  C3  UNL     1      23.362   4.306  48.629  1.00  0.00     0.028 C 
HETATM   21  C2  UNL     1      23.358   5.546  48.140  1.00  0.00    -0.029 C 
HETATM   22  C1  UNL     1      22.261   6.190  47.381  1.00  0.00     0.036 C 
ENDBRANCH   1  20
BRANCH   5  23
HETATM   23  N3  UNL     1      25.825   1.686  52.054  1.00  0.00    -0.340 N 
HETATM   24  H7  UNL     1      24.912   1.437  52.461  1.00  0.00     0.167 HD
BRANCH  23  25
HETATM   25  C7  UNL     1      26.958   1.083  52.595  1.00  0.00     0.035 A 
HETATM   26  C8  UNL     1      28.025   1.661  53.241  1.00  0.00     0.032 A 
HETATM   27  C9  UNL     1      29.103   0.986  53.762  1.00  0.00     0.046 A 
HETATM   28  C10 UNL     1      29.125  -0.369  53.630  1.00  0.00     0.138 A 
HETATM   29  F1  UNL     1      30.160  -1.083  54.123  1.00  0.00    -0.204 F 
HETATM   30  C11 UNL     1      28.112  -1.055  53.000  1.00  0.00     0.074 A 
HETATM   31 CL1  UNL     1      28.171  -2.790  52.847  1.00  0.00    -0.081 Cl
HETATM   32  C12 UNL     1      27.072  -0.311  52.509  1.00  0.00     0.056 A 
ENDBRANCH  23  25
ENDBRANCH   5  23
TORSDOF 7
ENDMDL
MODEL 8
REMARK VINA RESULT:      -8.5      2.111      2.406
REMARK  7 active torsions:
REMARK  status: ('A' for Active; 'I' for Inactive)
REMARK    1  A    between atoms: C3_3  and  C4_4 
REMARK    2  A    between atoms: C6_8  and  N3_9 
REMARK    3  A    between atoms: N3_9  and  C7_10 
REMARK    4  A    between atoms: C13_18  and  C14_19 
REMARK    5  A    between atoms: C15_20  and  C16_21 
REMARK    6  A    between atoms: C16_21  and  N4_22 
REMARK    7  A    between atoms: C19_25  and  C20_26 
REMARK       I    between atoms: C20_26  and  N5_27 
ROOT
HETATM    1  C4  UNL     1      21.061  -0.068  52.873  1.00  0.00     0.071 A 
HETATM    2  N1  UNL     1      20.691  -1.220  53.441  1.00  0.00    -0.241 NA
HETATM    3  C5  UNL     1      21.531  -1.824  54.294  1.00  0.00     0.236 A 
HETATM    4  N2  UNL     1      22.734  -1.344  54.621  1.00  0.00    -0.224 NA
HETATM    5  C6  UNL     1      23.144  -0.199  54.080  1.00  0.00     0.142 A 
HETATM    6  C13 UNL     1      22.304   0.437  53.205  1.00  0.00     0.038 A 
ENDROOT
BRANCH   6   7
HETATM    7  C14 UNL     1      22.747   1.686  52.614  1.00  0.00     0.015 C 
HETATM    8  C15 UNL     1      23.381   2.833  52.581  1.00  0.00     0.004 C 
BRANCH   8   9
HETATM    9  C16 UNL     1      23.477   3.866  51.486  1.00  0.00     0.300 C 
BRANCH   9  10
HETATM   10  N4  UNL     1      24.417   3.495  50.483  1.00  0.00     0.092 N 
HETATM   11  C17 UNL     1      25.640   2.994  51.060  1.00  0.00     0.273 C 
HETATM   12  C18 UNL     1      26.633   3.028  49.913  1.00  0.00     0.046 C 
HETATM   13  C19 UNL     1      26.144   4.181  49.070  1.00  0.00     0.107 C 
HETATM   14  C21 UNL     1      24.887   4.656  49.761  1.00  0.00     0.286 C 
BRANCH  13  15
HETATM   15  C20 UNL     1      27.209   5.191  48.996  1.00  0.00     0.221 C 
HETATM   16  N5  UNL     1      27.055   6.565  49.321  1.00  0.00    -0.370 N 
HETATM   17  H20 UNL     1      27.169   7.236  50.110  1.00  0.00     0.159 HD
HETATM   18  H21 UNL     1      26.715   6.880  48.376  1.00  0.00     0.159 HD
HETATM   19  O1  UNL     1      28.389   4.897  48.622  1.00  0.00    -0.273 OA
ENDBRANCH  13  15
ENDBRANCH   9  10
ENDBRANCH   8   9
ENDBRANCH   6   7
BRANCH   1  20
HETATM   20  C3  UNL     1      20.156   0.577  51.955  1.00  0.00     0.028 C 
HETATM   21  C2  UNL     1      18.882   0.189  52.011  1.00  0.00    -0.029 C 
HETATM   22  C1  UNL     1      17.769   0.699  51.176  1.00  0.00     0.036 C 
ENDBRANCH   1  20
BRANCH   5  23
HETATM   23  N3  UNL     1      24.415   0.211  54.484  1.00  0.00    -0.340 N 
HETATM   24  H7  UNL     1      24.373   0.900  55.248  1.00  0.00     0.167 HD
BRANCH  23  25
HETATM   25  C7  UNL     1      25.674  -0.163  54.020  1.00  0.00     0.035 A 
HETATM   26  C8  UNL     1      26.019  -1.198  53.185  1.00  0.00     0.032 A 
HETATM   27  C9  UNL     1      27.294  -1.490  52.762  1.00  0.00     0.046 A 
HETATM   28  C10 UNL     1      28.306  -0.693  53.205  1.00  0.00     0.138 A 
HETATM   29  F1  UNL     1      29.579  -0.934  52.821  1.00  0.00    -0.204 F 
HETATM   30  C11 UNL     1      28.078   0.372  54.046  1.00  0.00     0.074 A 
HETATM   31 CL1  UNL     1      29.395   1.372  54.596  1.00  0.00    -0.081 Cl
HETATM   32  C12 UNL     1      26.780   0.597  54.422  1.00  0.00     0.056 A 
ENDBRANCH  23  25
ENDBRANCH   5  23
TORSDOF 7
ENDMDL
MODEL 9
REMARK VINA RESULT:      -8.4      2.243      2.976
REMARK  7 active torsions:
REMARK  status: ('A' for Active; 'I' for Inactive)
REMARK    1  A    between atoms: C3_3  and  C4_4 
REMARK    2  A    between atoms: C6_8  and  N3_9 
REMARK    3  A    between atoms: N3_9  and  C7_10 
REMARK    4  A    between atoms: C13_18  and  C14_19 
REMARK    5  A    between atoms: C15_20  and  C16_21 
REMARK    6  A    between atoms: C16_21  and  N4_22 
REMARK    7  A    between atoms: C19_25  and  C20_26 
REMARK       I    between atoms: C20_26  and  N5_27 
ROOT
HETATM    1  C4  UNL     1      21.594  -0.403  54.132  1.00  0.00     0.071 A 
HETATM    2  N1  UNL     1      21.899  -1.150  55.198  1.00  0.00    -0.241 NA
HETATM    3  C5  UNL     1      23.187  -1.414  55.460  1.00  0.00     0.236 A 
HETATM    4  N2  UNL     1      24.205  -0.976  54.714  1.00  0.00    -0.224 NA
HETATM    5  C6  UNL     1      23.949  -0.229  53.643  1.00  0.00     0.142 A 
HETATM    6  C13 UNL     1      22.641   0.056  53.353  1.00  0.00     0.038 A 
ENDROOT
BRANCH   6   7
HETATM    7  C14 UNL     1      22.358   0.870  52.187  1.00  0.00     0.015 C 
HETATM    8  C15 UNL     1      22.579   1.820  51.311  1.00  0.00     0.004 C 
BRANCH   8   9
HETATM    9  C16 UNL     1      21.771   2.255  50.114  1.00  0.00     0.300 C 
BRANCH   9  10
HETATM   10  N4  UNL     1      20.396   1.906  50.243  1.00  0.00     0.092 N 
HETATM   11  C17 UNL     1      19.654   2.221  49.048  1.00  0.00     0.273 C 
HETATM   12  C18 UNL     1      18.202   2.165  49.486  1.00  0.00     0.046 C 
HETATM   13  C19 UNL     1      18.268   2.563  50.941  1.00  0.00     0.107 C 
HETATM   14  C21 UNL     1      19.742   2.742  51.224  1.00  0.00     0.286 C 
BRANCH  13  15
HETATM   15  C20 UNL     1      17.467   3.782  51.129  1.00  0.00     0.221 C 
HETATM   16  N5  UNL     1      17.208   4.751  50.124  1.00  0.00    -0.370 N 
HETATM   17  H20 UNL     1      16.505   5.009  49.399  1.00  0.00     0.159 HD
HETATM   18  H21 UNL     1      18.080   5.322  50.271  1.00  0.00     0.159 HD
HETATM   19  O1  UNL     1      16.931   4.068  52.247  1.00  0.00    -0.273 OA
ENDBRANCH  13  15
ENDBRANCH   9  10
ENDBRANCH   8   9
ENDBRANCH   6   7
BRANCH   1  20
HETATM   20  C3  UNL     1      20.208  -0.123  53.853  1.00  0.00     0.028 C 
HETATM   21  C2  UNL     1      19.453  -1.165  53.509  1.00  0.00    -0.029 C 
HETATM   22  C1  UNL     1      18.009  -1.135  53.176  1.00  0.00     0.036 C 
ENDBRANCH   1  20
BRANCH   5  23
HETATM   23  N3  UNL     1      25.080   0.174  52.932  1.00  0.00    -0.340 N 
HETATM   24  H7  UNL     1      24.841   0.801  52.150  1.00  0.00     0.167 HD
BRANCH  23  25
HETATM   25  C7  UNL     1      26.424  -0.138  53.123  1.00  0.00     0.035 A 
HETATM   26  C8  UNL     1      27.089  -1.310  52.855  1.00  0.00     0.032 A 
HETATM   27  C9  UNL     1      28.430  -1.531  53.061  1.00  0.00     0.046 A 
HETATM   28  C10 UNL     1      29.168  -0.507  53.574  1.00  0.00     0.138 A 
HETATM   29  F1  UNL     1      30.491  -0.668  53.797  1.00  0.00    -0.204 F 
HETATM   30  C11 UNL     1      28.608   0.711  53.881  1.00  0.00     0.074 A 
HETATM   31 CL1  UNL     1      29.580   2.000  54.538  1.00  0.00    -0.081 Cl
HETATM   32  C12 UNL     1      27.266   0.852  53.647  1.00  0.00     0.056 A 
ENDBRANCH  23  25
ENDBRANCH   5  23
TORSDOF 7
ENDMDL
