MODEL 1
REMARK VINA RESULT:      -9.3      0.000      0.000
REMARK  7 active torsions:
REMARK  status: ('A' for Active; 'I' for Inactive)
REMARK    1  A    between atoms: C2_2  and  O1_3 
REMARK    2  A    between atoms: O1_3  and  C3_4 
REMARK    3  A    between atoms: C9_11  and  N2_12 
REMARK    4  A    between atoms: C19_23  and  N4_24 
REMARK       I    between atoms: N4_24  and  C20_25 
REMARK    5  A    between atoms: C20_25  and  C21_27 
REMARK    6  A    between atoms: C22_28  and  C23_29 
REMARK    7  A    between atoms: C23_29  and  N5_30 
ROOT
HETATM    1  N2  UNL     1      25.386   0.989  53.297  1.00  0.00    -0.359 N 
HETATM    2  C10 UNL     1      26.183   0.965  54.499  1.00  0.00     0.152 C 
HETATM    3  C11 UNL     1      27.471   0.161  54.397  1.00  0.00    -0.005 C 
HETATM    4  C12 UNL     1      27.983  -0.602  53.457  1.00  0.00    -0.083 C 
HETATM    5  C13 UNL     1      29.261  -1.363  53.426  1.00  0.00     0.043 C 
HETATM    6  C14 UNL     1      27.003  -0.588  52.339  1.00  0.00     0.073 C 
HETATM    7  C15 UNL     1      26.400   0.806  52.275  1.00  0.00     0.196 C 
HETATM    8  C16 UNL     1      27.566   1.712  52.612  1.00  0.00     0.085 C 
HETATM    9  N3  UNL     1      28.476   2.409  52.891  1.00  0.00    -0.195 NA
ENDROOT
BRANCH   1  10
HETATM   10  C9  UNL     1      24.020   1.235  53.020  1.00  0.00     0.051 A 
HETATM   11  C7  UNL     1      23.010   0.312  53.342  1.00  0.00    -0.017 A 
HETATM   12  C6  UNL     1      21.708   0.593  52.975  1.00  0.00     0.126 A 
HETATM   13  C8  UNL     1      23.168  -0.933  54.077  1.00  0.00     0.052 C 
HETATM   14  N1  UNL     1      21.325   1.703  52.324  1.00  0.00    -0.260 NA
HETATM   15  C5  UNL     1      22.243   2.625  51.989  1.00  0.00     0.071 A 
HETATM   16  C4  UNL     1      21.779   3.709  51.310  1.00  0.00     0.071 A 
HETATM   17  C17 UNL     1      23.537   2.342  52.353  1.00  0.00     0.022 A 
HETATM   18  C3  UNL     1      22.675   4.673  50.913  1.00  0.00     0.097 A 
HETATM   19  C19 UNL     1      24.013   4.470  51.236  1.00  0.00     0.069 A 
HETATM   20  C18 UNL     1      24.362   3.350  51.917  1.00  0.00     0.048 A 
BRANCH  18  21
HETATM   21  O1  UNL     1      22.213   5.775  50.225  1.00  0.00    -0.349 OA
BRANCH  21  22
HETATM   22  C2  UNL     1      21.598   5.780  48.977  1.00  0.00     0.171 C 
HETATM   23  C1  UNL     1      22.496   5.380  47.841  1.00  0.00     0.034 C 
ENDBRANCH  21  22
ENDBRANCH  18  21
BRANCH  19  24
HETATM   24  N4  UNL     1      24.935   5.495  50.808  1.00  0.00    -0.321 N 
HETATM   25  C20 UNL     1      25.673   4.962  49.714  1.00  0.00     0.245 C 
HETATM   26  O2  UNL     1      25.337   3.792  49.422  1.00  0.00    -0.268 OA
HETATM   27  H21 UNL     1      25.165   6.488  51.111  1.00  0.00     0.169 HD
BRANCH  25  28
HETATM   28  C21 UNL     1      26.714   5.662  48.984  1.00  0.00     0.072 C 
HETATM   29  C22 UNL     1      27.876   5.131  48.691  1.00  0.00     0.008 C 
BRANCH  29  30
HETATM   30  C23 UNL     1      28.920   5.884  47.938  1.00  0.00     0.296 C 
BRANCH  30  31
HETATM   31  N5  UNL     1      29.693   6.656  48.899  1.00  0.00     0.082 N 
HETATM   32  C24 UNL     1      29.677   8.059  48.612  1.00  0.00     0.307 C 
HETATM   33  H26 UNL     1      29.252   6.503  49.836  1.00  0.00     0.315 HD
ENDBRANCH  30  31
ENDBRANCH  29  30
ENDBRANCH  25  28
ENDBRANCH  19  24
ENDBRANCH   1  10
TORSDOF 7
ENDMDL
MODEL 2
REMARK VINA RESULT:      -8.8      1.795      1.983
REMARK  7 active torsions:
REMARK  status: ('A' for Active; 'I' for Inactive)
REMARK    1  A    between atoms: C2_2  and  O1_3 
REMARK    2  A    between atoms: O1_3  and  C3_4 
REMARK    3  A    between atoms: C9_11  and  N2_12 
REMARK    4  A    between atoms: C19_23  and  N4_24 
REMARK       I    between atoms: N4_24  and  C20_25 
REMARK    5  A    between atoms: C20_25  and  C21_27 
REMARK    6  A    between atoms: C22_28  and  C23_29 
REMARK    7  A    between atoms: C23_29  and  N5_30 
ROOT
HETATM    1  N2  UNL     1      25.532   0.468  53.488  1.00  0.00    -0.359 N 
HETATM    2  C10 UNL     1      26.358   0.759  54.634  1.00  0.00     0.152 C 
HETATM    3  C11 UNL     1      27.769   0.196  54.566  1.00  0.00    -0.005 C 
HETATM    4  C12 UNL     1      28.385  -0.588  53.708  1.00  0.00    -0.083 C 
HETATM    5  C13 UNL     1      29.781  -1.102  53.706  1.00  0.00     0.043 C 
HETATM    6  C14 UNL     1      27.384  -0.910  52.657  1.00  0.00     0.073 C 
HETATM    7  C15 UNL     1      26.529   0.329  52.443  1.00  0.00     0.196 C 
HETATM    8  C16 UNL     1      27.515   1.469  52.587  1.00  0.00     0.085 C 
HETATM    9  N3  UNL     1      28.287   2.351  52.719  1.00  0.00    -0.195 NA
ENDROOT
BRANCH   1  10
HETATM   10  C9  UNL     1      24.136   0.421  53.260  1.00  0.00     0.051 A 
HETATM   11  C7  UNL     1      23.293  -0.472  53.944  1.00  0.00    -0.017 A 
HETATM   12  C6  UNL     1      21.952  -0.507  53.615  1.00  0.00     0.126 A 
HETATM   13  C8  UNL     1      23.666  -1.370  55.025  1.00  0.00     0.052 C 
HETATM   14  N1  UNL     1      21.379   0.263  52.675  1.00  0.00    -0.260 NA
HETATM   15  C5  UNL     1      22.131   1.138  51.986  1.00  0.00     0.071 A 
HETATM   16  C4  UNL     1      21.482   1.863  51.036  1.00  0.00     0.071 A 
HETATM   17  C17 UNL     1      23.465   1.169  52.314  1.00  0.00     0.022 A 
HETATM   18  C3  UNL     1      22.205   2.753  50.277  1.00  0.00     0.097 A 
HETATM   19  C19 UNL     1      23.567   2.853  50.537  1.00  0.00     0.069 A 
HETATM   20  C18 UNL     1      24.109   2.079  51.511  1.00  0.00     0.048 A 
BRANCH  18  21
HETATM   21  O1  UNL     1      21.554   3.493  49.312  1.00  0.00    -0.349 OA
BRANCH  21  22
HETATM   22  C2  UNL     1      20.494   4.371  49.508  1.00  0.00     0.171 C 
HETATM   23  C1  UNL     1      20.873   5.663  50.175  1.00  0.00     0.034 C 
ENDBRANCH  21  22
ENDBRANCH  18  21
BRANCH  19  24
HETATM   24  N4  UNL     1      24.305   3.793  49.728  1.00  0.00    -0.321 N 
HETATM   25  C20 UNL     1      24.494   4.963  50.515  1.00  0.00     0.245 C 
HETATM   26  O2  UNL     1      23.993   4.869  51.658  1.00  0.00    -0.268 OA
HETATM   27  H21 UNL     1      24.708   3.801  48.743  1.00  0.00     0.169 HD
BRANCH  25  28
HETATM   28  C21 UNL     1      25.186   6.164  50.083  1.00  0.00     0.072 C 
HETATM   29  C22 UNL     1      24.874   7.368  50.493  1.00  0.00     0.008 C 
BRANCH  29  30
HETATM   30  C23 UNL     1      25.610   8.577  50.023  1.00  0.00     0.296 C 
BRANCH  30  31
HETATM   31  N5  UNL     1      26.947   8.536  50.595  1.00  0.00     0.082 N 
HETATM   32  C24 UNL     1      27.892   9.294  49.832  1.00  0.00     0.307 C 
HETATM   33  H26 UNL     1      26.880   8.953  51.553  1.00  0.00     0.315 HD
ENDBRANCH  30  31
ENDBRANCH  29  30
ENDBRANCH  25  28
ENDBRANCH  19  24
ENDBRANCH   1  10
TORSDOF 7
ENDMDL
MODEL 3
REMARK VINA RESULT:      -8.6      1.613      1.777
REMARK  7 active torsions:
REMARK  status: ('A' for Active; 'I' for Inactive)
REMARK    1  A    between atoms: C2_2  and  O1_3 
REMARK    2  A    between atoms: O1_3  and  C3_4 
REMARK    3  A    between atoms: C9_11  and  N2_12 
REMARK    4  A    between atoms: C19_23  and  N4_24 
REMARK       I    between atoms: N4_24  and  C20_25 
REMARK    5  A    between atoms: C20_25  and  C21_27 
REMARK    6  A    between atoms: C22_28  and  C23_29 
REMARK    7  A    between atoms: C23_29  and  N5_30 
ROOT
HETATM    1  N2  UNL     1      24.953   1.237  53.119  1.00  0.00    -0.359 N 
HETATM    2  C10 UNL     1      25.826   1.354  54.262  1.00  0.00     0.152 C 
HETATM    3  C11 UNL     1      27.085   0.504  54.195  1.00  0.00    -0.005 C 
HETATM    4  C12 UNL     1      27.518  -0.397  53.341  1.00  0.00    -0.083 C 
HETATM    5  C13 UNL     1      28.773  -1.195  53.339  1.00  0.00     0.043 C 
HETATM    6  C14 UNL     1      26.468  -0.507  52.294  1.00  0.00     0.073 C 
HETATM    7  C15 UNL     1      25.894   0.884  52.073  1.00  0.00     0.196 C 
HETATM    8  C16 UNL     1      27.100   1.790  52.208  1.00  0.00     0.085 C 
HETATM    9  N3  UNL     1      28.042   2.490  52.332  1.00  0.00    -0.195 NA
ENDROOT
BRANCH   1  10
HETATM   10  C9  UNL     1      23.578   1.486  52.895  1.00  0.00     0.051 A 
HETATM   11  C7  UNL     1      22.607   0.473  52.981  1.00  0.00    -0.017 A 
HETATM   12  C6  UNL     1      21.295   0.780  52.678  1.00  0.00     0.126 A 
HETATM   13  C8  UNL     1      22.816  -0.902  53.404  1.00  0.00     0.052 C 
HETATM   14  N1  UNL     1      20.865   1.996  52.302  1.00  0.00    -0.260 NA
HETATM   15  C5  UNL     1      21.744   3.007  52.202  1.00  0.00     0.071 A 
HETATM   16  C4  UNL     1      21.235   4.201  51.792  1.00  0.00     0.071 A 
HETATM   17  C17 UNL     1      23.049   2.699  52.502  1.00  0.00     0.022 A 
HETATM   18  C3  UNL     1      22.091   5.266  51.642  1.00  0.00     0.097 A 
HETATM   19  C19 UNL     1      23.436   5.048  51.922  1.00  0.00     0.069 A 
HETATM   20  C18 UNL     1      23.832   3.814  52.324  1.00  0.00     0.048 A 
BRANCH  18  21
HETATM   21  O1  UNL     1      21.583   6.479  51.228  1.00  0.00    -0.349 OA
BRANCH  21  22
HETATM   22  C2  UNL     1      20.903   6.737  50.042  1.00  0.00     0.171 C 
HETATM   23  C1  UNL     1      21.790   7.088  48.881  1.00  0.00     0.034 C 
ENDBRANCH  21  22
ENDBRANCH  18  21
BRANCH  19  24
HETATM   24  N4  UNL     1      24.315   6.181  51.756  1.00  0.00    -0.321 N 
HETATM   25  C20 UNL     1      24.925   6.052  50.477  1.00  0.00     0.245 C 
HETATM   26  O2  UNL     1      24.550   5.031  49.857  1.00  0.00    -0.268 OA
HETATM   27  H21 UNL     1      24.584   7.028  52.339  1.00  0.00     0.169 HD
BRANCH  25  28
HETATM   28  C21 UNL     1      25.887   6.979  49.908  1.00  0.00     0.072 C 
HETATM   29  C22 UNL     1      26.115   8.175  50.392  1.00  0.00     0.008 C 
BRANCH  29  30
HETATM   30  C23 UNL     1      27.112   9.098  49.778  1.00  0.00     0.296 C 
BRANCH  30  31
HETATM   31  N5  UNL     1      26.667   9.401  48.426  1.00  0.00     0.082 N 
HETATM   32  C24 UNL     1      25.901  10.609  48.361  1.00  0.00     0.307 C 
HETATM   33  H26 UNL     1      27.528   9.519  47.843  1.00  0.00     0.315 HD
ENDBRANCH  30  31
ENDBRANCH  29  30
ENDBRANCH  25  28
ENDBRANCH  19  24
ENDBRANCH   1  10
TORSDOF 7
ENDMDL
MODEL 4
REMARK VINA RESULT:      -8.4      2.071      5.838
REMARK  7 active torsions:
REMARK  status: ('A' for Active; 'I' for Inactive)
REMARK    1  A    between atoms: C2_2  and  O1_3 
REMARK    2  A    between atoms: O1_3  and  C3_4 
REMARK    3  A    between atoms: C9_11  and  N2_12 
REMARK    4  A    between atoms: C19_23  and  N4_24 
REMARK       I    between atoms: N4_24  and  C20_25 
REMARK    5  A    between atoms: C20_25  and  C21_27 
REMARK    6  A    between atoms: C22_28  and  C23_29 
REMARK    7  A    between atoms: C23_29  and  N5_30 
ROOT
HETATM    1  N2  UNL     1      21.880   0.665  52.479  1.00  0.00    -0.359 N 
HETATM    2  C10 UNL     1      21.172   1.921  52.525  1.00  0.00     0.152 C 
HETATM    3  C11 UNL     1      20.657   2.416  51.182  1.00  0.00    -0.005 C 
HETATM    4  C12 UNL     1      20.795   1.978  49.950  1.00  0.00    -0.083 C 
HETATM    5  C13 UNL     1      20.257   2.517  48.672  1.00  0.00     0.043 C 
HETATM    6  C14 UNL     1      21.647   0.762  50.039  1.00  0.00     0.073 C 
HETATM    7  C15 UNL     1      21.274   0.035  51.321  1.00  0.00     0.196 C 
HETATM    8  C16 UNL     1      19.775   0.232  51.417  1.00  0.00     0.085 C 
HETATM    9  N3  UNL     1      18.611   0.404  51.493  1.00  0.00    -0.195 NA
ENDROOT
BRANCH   1  10
HETATM   10  C9  UNL     1      22.827   0.032  53.319  1.00  0.00     0.051 A 
HETATM   11  C7  UNL     1      22.447  -0.771  54.409  1.00  0.00    -0.017 A 
HETATM   12  C6  UNL     1      23.430  -1.296  55.225  1.00  0.00     0.126 A 
HETATM   13  C8  UNL     1      21.096  -1.164  54.773  1.00  0.00     0.052 C 
HETATM   14  N1  UNL     1      24.747  -1.097  55.053  1.00  0.00    -0.260 NA
HETATM   15  C5  UNL     1      25.175  -0.339  54.029  1.00  0.00     0.071 A 
HETATM   16  C4  UNL     1      26.521  -0.165  53.938  1.00  0.00     0.071 A 
HETATM   17  C17 UNL     1      24.195   0.183  53.221  1.00  0.00     0.022 A 
HETATM   18  C3  UNL     1      27.018   0.625  52.929  1.00  0.00     0.097 A 
HETATM   19  C19 UNL     1      26.098   1.200  52.059  1.00  0.00     0.069 A 
HETATM   20  C18 UNL     1      24.776   0.957  52.245  1.00  0.00     0.048 A 
BRANCH  18  21
HETATM   21  O1  UNL     1      28.381   0.805  52.829  1.00  0.00    -0.349 OA
BRANCH  21  22
HETATM   22  C2  UNL     1      29.333   0.526  53.805  1.00  0.00     0.171 C 
HETATM   23  C1  UNL     1      30.111  -0.738  53.568  1.00  0.00     0.034 C 
ENDBRANCH  21  22
ENDBRANCH  18  21
BRANCH  19  24
HETATM   24  N4  UNL     1      26.643   2.026  51.008  1.00  0.00    -0.321 N 
HETATM   25  C20 UNL     1      25.849   3.205  50.949  1.00  0.00     0.245 C 
HETATM   26  O2  UNL     1      24.926   3.215  51.794  1.00  0.00    -0.268 OA
HETATM   27  H21 UNL     1      27.450   1.950  50.319  1.00  0.00     0.169 HD
BRANCH  25  28
HETATM   28  C21 UNL     1      26.048   4.307  50.024  1.00  0.00     0.072 C 
HETATM   29  C22 UNL     1      27.136   4.467  49.311  1.00  0.00     0.008 C 
BRANCH  29  30
HETATM   30  C23 UNL     1      27.302   5.613  48.372  1.00  0.00     0.296 C 
BRANCH  30  31
HETATM   31  N5  UNL     1      27.865   6.726  49.121  1.00  0.00     0.082 N 
HETATM   32  C24 UNL     1      27.675   7.982  48.460  1.00  0.00     0.307 C 
HETATM   33  H26 UNL     1      27.366   6.755  50.041  1.00  0.00     0.315 HD
ENDBRANCH  30  31
ENDBRANCH  29  30
ENDBRANCH  25  28
ENDBRANCH  19  24
ENDBRANCH   1  10
TORSDOF 7
ENDMDL
MODEL 5
REMARK VINA RESULT:      -8.2      1.904      2.281
REMARK  7 active torsions:
REMARK  status: ('A' for Active; 'I' for Inactive)
REMARK    1  A    between atoms: C2_2  and  O1_3 
REMARK    2  A    between atoms: O1_3  and  C3_4 
REMARK    3  A    between atoms: C9_11  and  N2_12 
REMARK    4  A    between atoms: C19_23  and  N4_24 
REMARK       I    between atoms: N4_24  and  C20_25 
REMARK    5  A    between atoms: C20_25  and  C21_27 
REMARK    6  A    between atoms: C22_28  and  C23_29 
REMARK    7  A    between atoms: C23_29  and  N5_30 
ROOT
HETATM    1  N2  UNL     1      24.607   1.294  52.675  1.00  0.00    -0.359 N 
HETATM    2  C10 UNL     1      25.637   0.813  51.786  1.00  0.00     0.152 C 
HETATM    3  C11 UNL     1      27.060   1.041  52.271  1.00  0.00    -0.005 C 
HETATM    4  C12 UNL     1      27.567   1.672  53.308  1.00  0.00    -0.083 C 
HETATM    5  C13 UNL     1      28.983   1.856  53.723  1.00  0.00     0.043 C 
HETATM    6  C14 UNL     1      26.408   2.223  54.059  1.00  0.00     0.073 C 
HETATM    7  C15 UNL     1      25.276   1.212  53.960  1.00  0.00     0.196 C 
HETATM    8  C16 UNL     1      25.987  -0.124  54.030  1.00  0.00     0.085 C 
HETATM    9  N3  UNL     1      26.550  -1.159  54.068  1.00  0.00    -0.195 NA
ENDROOT
BRANCH   1  10
HETATM   10  C9  UNL     1      23.250   1.659  52.511  1.00  0.00     0.051 A 
HETATM   11  C7  UNL     1      22.206   0.720  52.579  1.00  0.00    -0.017 A 
HETATM   12  C6  UNL     1      20.913   1.141  52.338  1.00  0.00     0.126 A 
HETATM   13  C8  UNL     1      22.320  -0.688  52.926  1.00  0.00     0.052 C 
HETATM   14  N1  UNL     1      20.569   2.405  52.038  1.00  0.00    -0.260 NA
HETATM   15  C5  UNL     1      21.521   3.350  51.959  1.00  0.00     0.071 A 
HETATM   16  C4  UNL     1      21.094   4.599  51.627  1.00  0.00     0.071 A 
HETATM   17  C17 UNL     1      22.806   2.927  52.198  1.00  0.00     0.022 A 
HETATM   18  C3  UNL     1      22.026   5.602  51.501  1.00  0.00     0.097 A 
HETATM   19  C19 UNL     1      23.357   5.267  51.723  1.00  0.00     0.069 A 
HETATM   20  C18 UNL     1      23.667   3.987  52.049  1.00  0.00     0.048 A 
BRANCH  18  21
HETATM   21  O1  UNL     1      21.602   6.870  51.166  1.00  0.00    -0.349 OA
BRANCH  21  22
HETATM   22  C2  UNL     1      20.970   7.254  49.987  1.00  0.00     0.171 C 
HETATM   23  C1  UNL     1      21.211   8.684  49.591  1.00  0.00     0.034 C 
ENDBRANCH  21  22
ENDBRANCH  18  21
BRANCH  19  24
HETATM   24  N4  UNL     1      24.316   6.337  51.584  1.00  0.00    -0.321 N 
HETATM   25  C20 UNL     1      24.813   6.281  50.252  1.00  0.00     0.245 C 
HETATM   26  O2  UNL     1      24.303   5.357  49.578  1.00  0.00    -0.268 OA
HETATM   27  H21 UNL     1      24.703   7.101  52.215  1.00  0.00     0.169 HD
BRANCH  25  28
HETATM   28  C21 UNL     1      25.806   7.178  49.688  1.00  0.00     0.072 C 
HETATM   29  C22 UNL     1      26.111   8.341  50.208  1.00  0.00     0.008 C 
BRANCH  29  30
HETATM   30  C23 UNL     1      27.137   9.234  49.597  1.00  0.00     0.296 C 
BRANCH  30  31
HETATM   31  N5  UNL     1      28.449   8.686  49.910  1.00  0.00     0.082 N 
HETATM   32  C24 UNL     1      29.514   9.535  49.469  1.00  0.00     0.307 C 
HETATM   33  H26 UNL     1      28.500   8.600  50.953  1.00  0.00     0.315 HD
ENDBRANCH  30  31
ENDBRANCH  29  30
ENDBRANCH  25  28
ENDBRANCH  19  24
ENDBRANCH   1  10
TORSDOF 7
ENDMDL
MODEL 6
REMARK VINA RESULT:      -8.0      2.571      3.363
REMARK  7 active torsions:
REMARK  status: ('A' for Active; 'I' for Inactive)
REMARK    1  A    between atoms: C2_2  and  O1_3 
REMARK    2  A    between atoms: O1_3  and  C3_4 
REMARK    3  A    between atoms: C9_11  and  N2_12 
REMARK    4  A    between atoms: C19_23  and  N4_24 
REMARK       I    between atoms: N4_24  and  C20_25 
REMARK    5  A    between atoms: C20_25  and  C21_27 
REMARK    6  A    between atoms: C22_28  and  C23_29 
REMARK    7  A    between atoms: C23_29  and  N5_30 
ROOT
HETATM    1  N2  UNL     1      25.064   0.314  53.503  1.00  0.00    -0.359 N 
HETATM    2  C10 UNL     1      25.916   1.035  54.418  1.00  0.00     0.152 C 
HETATM    3  C11 UNL     1      27.388   0.659  54.354  1.00  0.00    -0.005 C 
HETATM    4  C12 UNL     1      28.053  -0.262  53.691  1.00  0.00    -0.083 C 
HETATM    5  C13 UNL     1      29.508  -0.574  53.678  1.00  0.00     0.043 C 
HETATM    6  C14 UNL     1      27.042  -1.006  52.896  1.00  0.00     0.073 C 
HETATM    7  C15 UNL     1      25.994  -0.004  52.435  1.00  0.00     0.196 C 
HETATM    8  C16 UNL     1      26.802   1.242  52.136  1.00  0.00     0.085 C 
HETATM    9  N3  UNL     1      27.437   2.212  51.923  1.00  0.00    -0.195 NA
ENDROOT
BRANCH   1  10
HETATM   10  C9  UNL     1      23.680   0.027  53.458  1.00  0.00     0.051 A 
HETATM   11  C7  UNL     1      23.051  -0.796  54.408  1.00  0.00    -0.017 A 
HETATM   12  C6  UNL     1      21.709  -1.087  54.255  1.00  0.00     0.126 A 
HETATM   13  C8  UNL     1      23.654  -1.369  55.600  1.00  0.00     0.052 C 
HETATM   14  N1  UNL     1      20.943  -0.633  53.249  1.00  0.00    -0.260 NA
HETATM   15  C5  UNL     1      21.484   0.159  52.309  1.00  0.00     0.071 A 
HETATM   16  C4  UNL     1      20.649   0.557  51.311  1.00  0.00     0.071 A 
HETATM   17  C17 UNL     1      22.819   0.445  52.463  1.00  0.00     0.022 A 
HETATM   18  C3  UNL     1      21.152   1.344  50.303  1.00  0.00     0.097 A 
HETATM   19  C19 UNL     1      22.499   1.685  50.373  1.00  0.00     0.069 A 
HETATM   20  C18 UNL     1      23.239   1.230  51.416  1.00  0.00     0.048 A 
BRANCH  18  21
HETATM   21  O1  UNL     1      20.312   1.752  49.289  1.00  0.00    -0.349 OA
BRANCH  21  22
HETATM   22  C2  UNL     1      19.319   2.722  49.369  1.00  0.00     0.171 C 
HETATM   23  C1  UNL     1      17.918   2.186  49.272  1.00  0.00     0.034 C 
ENDBRANCH  21  22
ENDBRANCH  18  21
BRANCH  19  24
HETATM   24  N4  UNL     1      23.005   2.511  49.303  1.00  0.00    -0.321 N 
HETATM   25  C20 UNL     1      23.032   3.849  49.787  1.00  0.00     0.245 C 
HETATM   26  O2  UNL     1      22.628   3.950  50.967  1.00  0.00    -0.268 OA
HETATM   27  H21 UNL     1      23.338   2.349  48.306  1.00  0.00     0.169 HD
BRANCH  25  28
HETATM   28  C21 UNL     1      23.471   5.007  49.029  1.00  0.00     0.072 C 
HETATM   29  C22 UNL     1      23.323   6.242  49.441  1.00  0.00     0.008 C 
BRANCH  29  30
HETATM   30  C23 UNL     1      23.788   7.405  48.632  1.00  0.00     0.296 C 
BRANCH  30  31
HETATM   31  N5  UNL     1      23.118   8.595  49.134  1.00  0.00     0.082 N 
HETATM   32  C24 UNL     1      21.829   8.304  49.687  1.00  0.00     0.307 C 
HETATM   33  H26 UNL     1      23.725   8.987  49.892  1.00  0.00     0.315 HD
ENDBRANCH  30  31
ENDBRANCH  29  30
ENDBRANCH  25  28
ENDBRANCH  19  24
ENDBRANCH   1  10
TORSDOF 7
ENDMDL
MODEL 7
REMARK VINA RESULT:      -7.9      1.752      2.037
REMARK  7 active torsions:
REMARK  status: ('A' for Active; 'I' for Inactive)
REMARK    1  A    between atoms: C2_2  and  O1_3 
REMARK    2  A    between atoms: O1_3  and  C3_4 
REMARK    3  A    between atoms: C9_11  and  N2_12 
REMARK    4  A    between atoms: C19_23  and  N4_24 
REMARK       I    between atoms: N4_24  and  C20_25 
REMARK    5  A    between atoms: C20_25  and  C21_27 
REMARK    6  A    between atoms: C22_28  and  C23_29 
REMARK    7  A    between atoms: C23_29  and  N5_30 
ROOT
HETATM    1  N2  UNL     1      24.675   0.291  53.071  1.00  0.00    -0.359 N 
HETATM    2  C10 UNL     1      25.616  -0.781  52.851  1.00  0.00     0.152 C 
HETATM    3  C11 UNL     1      27.078  -0.391  53.004  1.00  0.00    -0.005 C 
HETATM    4  C12 UNL     1      27.686   0.755  53.215  1.00  0.00    -0.083 C 
HETATM    5  C13 UNL     1      29.135   1.064  53.356  1.00  0.00     0.043 C 
HETATM    6  C14 UNL     1      26.612   1.781  53.291  1.00  0.00     0.073 C 
HETATM    7  C15 UNL     1      25.418   1.142  53.982  1.00  0.00     0.196 C 
HETATM    8  C16 UNL     1      26.049   0.255  55.035  1.00  0.00     0.085 C 
HETATM    9  N3  UNL     1      26.550  -0.445  55.841  1.00  0.00    -0.195 NA
ENDROOT
BRANCH   1  10
HETATM   10  C9  UNL     1      23.335   0.526  52.683  1.00  0.00     0.051 A 
HETATM   11  C7  UNL     1      22.254  -0.163  53.260  1.00  0.00    -0.017 A 
HETATM   12  C6  UNL     1      20.981   0.070  52.779  1.00  0.00     0.126 A 
HETATM   13  C8  UNL     1      22.310  -1.097  54.373  1.00  0.00     0.052 C 
HETATM   14  N1  UNL     1      20.689   0.923  51.782  1.00  0.00    -0.260 NA
HETATM   15  C5  UNL     1      21.679   1.612  51.189  1.00  0.00     0.071 A 
HETATM   16  C4  UNL     1      21.305   2.436  50.173  1.00  0.00     0.071 A 
HETATM   17  C17 UNL     1      22.944   1.376  51.669  1.00  0.00     0.022 A 
HETATM   18  C3  UNL     1      22.276   3.145  49.507  1.00  0.00     0.097 A 
HETATM   19  C19 UNL     1      23.591   2.969  49.923  1.00  0.00     0.069 A 
HETATM   20  C18 UNL     1      23.848   2.120  50.950  1.00  0.00     0.048 A 
BRANCH  18  21
HETATM   21  O1  UNL     1      21.905   3.983  48.477  1.00  0.00    -0.349 OA
BRANCH  21  22
HETATM   22  C2  UNL     1      21.173   3.639  47.345  1.00  0.00     0.171 C 
HETATM   23  C1  UNL     1      21.809   4.046  46.046  1.00  0.00     0.034 C 
ENDBRANCH  21  22
ENDBRANCH  18  21
BRANCH  19  24
HETATM   24  N4  UNL     1      24.593   3.724  49.209  1.00  0.00    -0.321 N 
HETATM   25  C20 UNL     1      24.954   4.825  50.035  1.00  0.00     0.245 C 
HETATM   26  O2  UNL     1      24.333   4.845  51.121  1.00  0.00    -0.268 OA
HETATM   27  H21 UNL     1      25.084   3.641  48.269  1.00  0.00     0.169 HD
BRANCH  25  28
HETATM   28  C21 UNL     1      25.931   5.844  49.696  1.00  0.00     0.072 C 
HETATM   29  C22 UNL     1      26.345   6.074  48.474  1.00  0.00     0.008 C 
BRANCH  29  30
HETATM   30  C23 UNL     1      27.351   7.131  48.168  1.00  0.00     0.296 C 
BRANCH  30  31
HETATM   31  N5  UNL     1      28.588   6.780  48.849  1.00  0.00     0.082 N 
HETATM   32  C24 UNL     1      29.240   5.654  48.252  1.00  0.00     0.307 C 
HETATM   33  H26 UNL     1      29.222   7.611  48.774  1.00  0.00     0.315 HD
ENDBRANCH  30  31
ENDBRANCH  29  30
ENDBRANCH  25  28
ENDBRANCH  19  24
ENDBRANCH   1  10
TORSDOF 7
ENDMDL
MODEL 8
REMARK VINA RESULT:      -7.9      1.966      5.897
REMARK  7 active torsions:
REMARK  status: ('A' for Active; 'I' for Inactive)
REMARK    1  A    between atoms: C2_2  and  O1_3 
REMARK    2  A    between atoms: O1_3  and  C3_4 
REMARK    3  A    between atoms: C9_11  and  N2_12 
REMARK    4  A    between atoms: C19_23  and  N4_24 
REMARK       I    between atoms: N4_24  and  C20_25 
REMARK    5  A    between atoms: C20_25  and  C21_27 
REMARK    6  A    between atoms: C22_28  and  C23_29 
REMARK    7  A    between atoms: C23_29  and  N5_30 
ROOT
HETATM    1  N2  UNL     1      21.505   2.283  51.343  1.00  0.00    -0.359 N 
HETATM    2  C10 UNL     1      21.409   2.758  49.984  1.00  0.00     0.152 C 
HETATM    3  C11 UNL     1      20.195   3.627  49.693  1.00  0.00    -0.005 C 
HETATM    4  C12 UNL     1      19.147   3.977  50.407  1.00  0.00    -0.083 C 
HETATM    5  C13 UNL     1      17.988   4.839  50.054  1.00  0.00     0.043 C 
HETATM    6  C14 UNL     1      19.314   3.318  51.729  1.00  0.00     0.073 C 
HETATM    7  C15 UNL     1      20.797   3.327  52.062  1.00  0.00     0.196 C 
HETATM    8  C16 UNL     1      21.272   4.662  51.528  1.00  0.00     0.085 C 
HETATM    9  N3  UNL     1      21.636   5.697  51.095  1.00  0.00    -0.195 NA
ENDROOT
BRANCH   1  10
HETATM   10  C9  UNL     1      22.169   1.202  51.968  1.00  0.00     0.051 A 
HETATM   11  C7  UNL     1      21.476   0.101  52.500  1.00  0.00    -0.017 A 
HETATM   12  C6  UNL     1      22.190  -0.881  53.159  1.00  0.00     0.126 A 
HETATM   13  C8  UNL     1      20.050  -0.162  52.403  1.00  0.00     0.052 C 
HETATM   14  N1  UNL     1      23.522  -0.865  53.333  1.00  0.00    -0.260 NA
HETATM   15  C5  UNL     1      24.242   0.160  52.848  1.00  0.00     0.071 A 
HETATM   16  C4  UNL     1      25.581   0.114  53.086  1.00  0.00     0.071 A 
HETATM   17  C17 UNL     1      23.529   1.136  52.195  1.00  0.00     0.022 A 
HETATM   18  C3  UNL     1      26.366   1.150  52.640  1.00  0.00     0.097 A 
HETATM   19  C19 UNL     1      25.730   2.188  51.967  1.00  0.00     0.069 A 
HETATM   20  C18 UNL     1      24.387   2.128  51.786  1.00  0.00     0.048 A 
BRANCH  18  21
HETATM   21  O1  UNL     1      27.724   1.111  52.877  1.00  0.00    -0.349 OA
BRANCH  21  22
HETATM   22  C2  UNL     1      28.452   0.037  53.380  1.00  0.00     0.171 C 
HETATM   23  C1  UNL     1      28.765   0.131  54.846  1.00  0.00     0.034 C 
ENDBRANCH  21  22
ENDBRANCH  18  21
BRANCH  19  24
HETATM   24  N4  UNL     1      26.576   3.265  51.509  1.00  0.00    -0.321 N 
HETATM   25  C20 UNL     1      26.316   3.437  50.121  1.00  0.00     0.245 C 
HETATM   26  O2  UNL     1      25.455   2.642  49.682  1.00  0.00    -0.268 OA
HETATM   27  H21 UNL     1      27.296   3.909  51.952  1.00  0.00     0.169 HD
BRANCH  25  28
HETATM   28  C21 UNL     1      26.959   4.416  49.262  1.00  0.00     0.072 C 
HETATM   29  C22 UNL     1      26.536   5.649  49.126  1.00  0.00     0.008 C 
BRANCH  29  30
HETATM   30  C23 UNL     1      27.225   6.624  48.232  1.00  0.00     0.296 C 
BRANCH  30  31
HETATM   31  N5  UNL     1      28.380   7.146  48.947  1.00  0.00     0.082 N 
HETATM   32  C24 UNL     1      28.486   8.571  48.847  1.00  0.00     0.307 C 
HETATM   33  H26 UNL     1      28.254   6.891  49.954  1.00  0.00     0.315 HD
ENDBRANCH  30  31
ENDBRANCH  29  30
ENDBRANCH  25  28
ENDBRANCH  19  24
ENDBRANCH   1  10
TORSDOF 7
ENDMDL
MODEL 9
REMARK VINA RESULT:      -7.6      2.447      6.795
REMARK  7 active torsions:
REMARK  status: ('A' for Active; 'I' for Inactive)
REMARK    1  A    between atoms: C2_2  and  O1_3 
REMARK    2  A    between atoms: O1_3  and  C3_4 
REMARK    3  A    between atoms: C9_11  and  N2_12 
REMARK    4  A    between atoms: C19_23  and  N4_24 
REMARK       I    between atoms: N4_24  and  C20_25 
REMARK    5  A    between atoms: C20_25  and  C21_27 
REMARK    6  A    between atoms: C22_28  and  C23_29 
REMARK    7  A    between atoms: C23_29  and  N5_30 
ROOT
HETATM    1  N2  UNL     1      23.707   4.774  48.912  1.00  0.00    -0.359 N 
HETATM    2  C10 UNL     1      25.137   4.968  48.934  1.00  0.00     0.152 C 
HETATM    3  C11 UNL     1      25.603   6.349  48.496  1.00  0.00    -0.005 C 
HETATM    4  C12 UNL     1      24.975   7.397  48.011  1.00  0.00    -0.083 C 
HETATM    5  C13 UNL     1      25.500   8.728  47.602  1.00  0.00     0.043 C 
HETATM    6  C14 UNL     1      23.541   7.013  47.923  1.00  0.00     0.073 C 
HETATM    7  C15 UNL     1      23.230   6.128  49.120  1.00  0.00     0.196 C 
HETATM    8  C16 UNL     1      24.048   6.743  50.237  1.00  0.00     0.085 C 
HETATM    9  N3  UNL     1      24.701   7.217  51.096  1.00  0.00    -0.195 NA
ENDROOT
BRANCH   1  10
HETATM   10  C9  UNL     1      22.864   3.640  48.844  1.00  0.00     0.051 A 
HETATM   11  C7  UNL     1      21.981   3.423  47.772  1.00  0.00    -0.017 A 
HETATM   12  C6  UNL     1      21.139   2.329  47.812  1.00  0.00     0.126 A 
HETATM   13  C8  UNL     1      21.869   4.218  46.560  1.00  0.00     0.052 C 
HETATM   14  N1  UNL     1      21.099   1.437  48.816  1.00  0.00    -0.260 NA
HETATM   15  C5  UNL     1      21.919   1.588  49.869  1.00  0.00     0.071 A 
HETATM   16  C4  UNL     1      21.800   0.657  50.855  1.00  0.00     0.071 A 
HETATM   17  C17 UNL     1      22.754   2.678  49.827  1.00  0.00     0.022 A 
HETATM   18  C3  UNL     1      22.592   0.775  51.972  1.00  0.00     0.097 A 
HETATM   19  C19 UNL     1      23.470   1.852  52.020  1.00  0.00     0.069 A 
HETATM   20  C18 UNL     1      23.503   2.720  50.978  1.00  0.00     0.048 A 
BRANCH  18  21
HETATM   21  O1  UNL     1      22.478  -0.164  52.975  1.00  0.00    -0.349 OA
BRANCH  21  22
HETATM   22  C2  UNL     1      21.443  -0.278  53.897  1.00  0.00     0.171 C 
HETATM   23  C1  UNL     1      21.403  -1.591  54.627  1.00  0.00     0.034 C 
ENDBRANCH  21  22
ENDBRANCH  18  21
BRANCH  19  24
HETATM   24  N4  UNL     1      24.290   1.955  53.204  1.00  0.00    -0.321 N 
HETATM   25  C20 UNL     1      25.603   1.544  52.840  1.00  0.00     0.245 C 
HETATM   26  O2  UNL     1      25.696   1.218  51.635  1.00  0.00    -0.268 OA
HETATM   27  H21 UNL     1      24.137   2.251  54.214  1.00  0.00     0.169 HD
BRANCH  25  28
HETATM   28  C21 UNL     1      26.745   1.491  53.735  1.00  0.00     0.072 C 
HETATM   29  C22 UNL     1      27.976   1.304  53.328  1.00  0.00     0.008 C 
BRANCH  29  30
HETATM   30  C23 UNL     1      29.122   1.255  54.281  1.00  0.00     0.296 C 
BRANCH  30  31
HETATM   31  N5  UNL     1      30.189   0.487  53.657  1.00  0.00     0.082 N 
HETATM   32  C24 UNL     1      29.849  -0.896  53.504  1.00  0.00     0.307 C 
HETATM   33  H26 UNL     1      30.344   0.900  52.708  1.00  0.00     0.315 HD
ENDBRANCH  30  31
ENDBRANCH  29  30
ENDBRANCH  25  28
ENDBRANCH  19  24
ENDBRANCH   1  10
TORSDOF 7
ENDMDL
