MODEL 1
REMARK VINA RESULT:      -9.5      0.000      0.000
REMARK  2 active torsions:
REMARK  status: ('A' for Active; 'I' for Inactive)
REMARK    1  A    between atoms: C10_14  and  N5_15 
REMARK    2  A    between atoms: N5_15  and  C11_16 
ROOT
HETATM    1  C1  UNL     1      18.784   2.823  51.635  1.00  0.00     0.179 C 
HETATM    2  N1  UNL     1      19.740   2.444  50.645  1.00  0.00    -0.279 N 
HETATM    3  N2  UNL     1      20.638   3.542  50.469  1.00  0.00    -0.188 NA
HETATM    4  C2  UNL     1      21.586   3.400  49.608  1.00  0.00     0.124 C 
HETATM    5  C3  UNL     1      22.039   1.945  49.698  1.00  0.00     0.076 C 
HETATM    6  C4  UNL     1      20.980   1.220  48.949  1.00  0.00     0.014 C 
HETATM    7  C5  UNL     1      19.995   1.270  49.815  1.00  0.00     0.030 C 
HETATM    8  C6  UNL     1      18.887   0.472  50.460  1.00  0.00     0.088 C 
HETATM    9  C7  UNL     1      19.423   0.197  51.857  1.00  0.00     0.012 C 
HETATM   10  C8  UNL     1      20.645   0.250  52.416  1.00  0.00     0.068 A 
HETATM   11  N3  UNL     1      20.516  -0.438  53.562  1.00  0.00    -0.241 NA
HETATM   12  C9  UNL     1      21.570  -0.585  54.385  1.00  0.00     0.235 A 
HETATM   13  N4  UNL     1      22.764  -0.042  54.066  1.00  0.00    -0.224 NA
HETATM   14  C10 UNL     1      22.939   0.656  52.929  1.00  0.00     0.141 A 
HETATM   15  C20 UNL     1      21.862   0.807  52.083  1.00  0.00     0.036 A 
HETATM   16  C21 UNL     1      22.283   1.510  51.061  1.00  0.00     0.005 C 
ENDROOT
BRANCH  14  17
HETATM   17  N5  UNL     1      24.232   1.186  52.680  1.00  0.00    -0.340 N 
HETATM   18  H11 UNL     1      23.950   2.025  52.128  1.00  0.00     0.167 HD
BRANCH  17  19
HETATM   19  C11 UNL     1      25.583   0.806  53.015  1.00  0.00     0.034 A 
HETATM   20  C12 UNL     1      26.360   1.779  53.604  1.00  0.00     0.032 A 
HETATM   21  C13 UNL     1      27.650   1.366  53.909  1.00  0.00     0.035 A 
HETATM   22  C14 UNL     1      28.080   0.074  53.626  1.00  0.00     0.066 A 
HETATM   23  N6  UNL     1      29.341  -0.302  53.935  1.00  0.00    -0.260 NA
HETATM   24  C18 UNL     1      27.210  -0.836  53.027  1.00  0.00    -0.005 A 
HETATM   25  C15 UNL     1      29.798  -1.560  53.673  1.00  0.00     0.117 A 
HETATM   26  C16 UNL     1      28.953  -2.474  53.082  1.00  0.00     0.020 A 
HETATM   27  C17 UNL     1      27.653  -2.129  52.750  1.00  0.00     0.015 A 
HETATM   28  C19 UNL     1      25.896  -0.489  52.693  1.00  0.00     0.043 A 
ENDBRANCH  17  19
ENDBRANCH  14  17
TORSDOF 2
ENDMDL
MODEL 2
REMARK VINA RESULT:      -9.0      1.922      3.765
REMARK  2 active torsions:
REMARK  status: ('A' for Active; 'I' for Inactive)
REMARK    1  A    between atoms: C10_14  and  N5_15 
REMARK    2  A    between atoms: N5_15  and  C11_16 
ROOT
HETATM    1  C1  UNL     1      21.006   1.945  48.561  1.00  0.00     0.179 C 
HETATM    2  N1  UNL     1      20.833   2.275  49.939  1.00  0.00    -0.279 N 
HETATM    3  N2  UNL     1      21.039   1.081  50.698  1.00  0.00    -0.188 NA
HETATM    4  C2  UNL     1      20.927   1.168  51.979  1.00  0.00     0.124 C 
HETATM    5  C3  UNL     1      21.496   2.528  52.373  1.00  0.00     0.076 C 
HETATM    6  C4  UNL     1      20.399   3.464  52.014  1.00  0.00     0.014 C 
HETATM    7  C5  UNL     1      20.508   3.474  50.707  1.00  0.00     0.030 C 
HETATM    8  C6  UNL     1      20.506   4.357  49.482  1.00  0.00     0.088 C 
HETATM    9  C7  UNL     1      21.976   4.419  49.094  1.00  0.00     0.012 C 
HETATM   10  C8  UNL     1      23.124   4.141  49.736  1.00  0.00     0.068 A 
HETATM   11  N3  UNL     1      24.074   4.729  48.990  1.00  0.00    -0.241 NA
HETATM   12  C9  UNL     1      25.366   4.645  49.352  1.00  0.00     0.235 A 
HETATM   13  N4  UNL     1      25.720   3.971  50.465  1.00  0.00    -0.224 NA
HETATM   14  C10 UNL     1      24.803   3.366  51.244  1.00  0.00     0.141 A 
HETATM   15  C20 UNL     1      23.477   3.450  50.876  1.00  0.00     0.036 A 
HETATM   16  C21 UNL     1      22.794   2.793  51.781  1.00  0.00     0.005 C 
ENDROOT
BRANCH  14  17
HETATM   17  N5  UNL     1      25.272   2.682  52.395  1.00  0.00    -0.340 N 
HETATM   18  H11 UNL     1      24.898   3.331  53.122  1.00  0.00     0.167 HD
BRANCH  17  19
HETATM   19  C11 UNL     1      26.027   1.478  52.643  1.00  0.00     0.034 A 
HETATM   20  C12 UNL     1      25.328   0.294  52.554  1.00  0.00     0.032 A 
HETATM   21  C13 UNL     1      26.098  -0.837  52.798  1.00  0.00     0.035 A 
HETATM   22  C14 UNL     1      27.450  -0.737  53.103  1.00  0.00     0.066 A 
HETATM   23  N6  UNL     1      28.176  -1.854  53.334  1.00  0.00    -0.260 NA
HETATM   24  C18 UNL     1      28.061   0.515  53.167  1.00  0.00    -0.005 A 
HETATM   25  C15 UNL     1      29.504  -1.796  53.636  1.00  0.00     0.117 A 
HETATM   26  C16 UNL     1      30.127  -0.568  53.703  1.00  0.00     0.020 A 
HETATM   27  C17 UNL     1      29.420   0.601  53.472  1.00  0.00     0.015 A 
HETATM   28  C19 UNL     1      27.348   1.696  52.932  1.00  0.00     0.043 A 
ENDBRANCH  17  19
ENDBRANCH  14  17
TORSDOF 2
ENDMDL
MODEL 3
REMARK VINA RESULT:      -8.9      2.225      3.901
REMARK  2 active torsions:
REMARK  status: ('A' for Active; 'I' for Inactive)
REMARK    1  A    between atoms: C10_14  and  N5_15 
REMARK    2  A    between atoms: N5_15  and  C11_16 
ROOT
HETATM    1  C1  UNL     1      20.910   6.074  49.095  1.00  0.00     0.179 C 
HETATM    2  N1  UNL     1      22.310   5.968  49.354  1.00  0.00    -0.279 N 
HETATM    3  N2  UNL     1      22.549   6.493  50.662  1.00  0.00    -0.188 NA
HETATM    4  C2  UNL     1      23.765   6.487  51.089  1.00  0.00     0.124 C 
HETATM    5  C3  UNL     1      24.403   5.204  50.564  1.00  0.00     0.076 C 
HETATM    6  C4  UNL     1      24.693   5.533  49.144  1.00  0.00     0.014 C 
HETATM    7  C5  UNL     1      23.485   5.484  48.635  1.00  0.00     0.030 C 
HETATM    8  C6  UNL     1      22.668   4.998  47.461  1.00  0.00     0.088 C 
HETATM    9  C7  UNL     1      21.924   3.798  48.028  1.00  0.00     0.012 C 
HETATM   10  C8  UNL     1      22.089   3.024  49.116  1.00  0.00     0.068 A 
HETATM   11  N3  UNL     1      21.339   1.938  48.869  1.00  0.00    -0.241 NA
HETATM   12  C9  UNL     1      21.275   0.941  49.770  1.00  0.00     0.235 A 
HETATM   13  N4  UNL     1      21.961   1.026  50.929  1.00  0.00    -0.224 NA
HETATM   14  C10 UNL     1      22.725   2.095  51.220  1.00  0.00     0.141 A 
HETATM   15  C20 UNL     1      22.794   3.118  50.298  1.00  0.00     0.036 A 
HETATM   16  C21 UNL     1      23.589   4.026  50.804  1.00  0.00     0.005 C 
ENDROOT
BRANCH  14  17
HETATM   17  N5  UNL     1      23.410   2.091  52.462  1.00  0.00    -0.340 N 
HETATM   18  H11 UNL     1      22.829   2.800  52.960  1.00  0.00     0.167 HD
BRANCH  17  19
HETATM   19  C11 UNL     1      24.548   1.393  53.008  1.00  0.00     0.034 A 
HETATM   20  C12 UNL     1      24.319   0.107  53.447  1.00  0.00     0.032 A 
HETATM   21  C13 UNL     1      25.445  -0.524  53.961  1.00  0.00     0.035 A 
HETATM   22  C14 UNL     1      26.675   0.121  54.012  1.00  0.00     0.066 A 
HETATM   23  N6  UNL     1      27.754  -0.517  54.517  1.00  0.00    -0.260 NA
HETATM   24  C18 UNL     1      26.798   1.427  53.539  1.00  0.00    -0.005 A 
HETATM   25  C15 UNL     1      28.976   0.083  54.582  1.00  0.00     0.117 A 
HETATM   26  C16 UNL     1      29.118   1.374  54.119  1.00  0.00     0.020 A 
HETATM   27  C17 UNL     1      28.038   2.063  53.593  1.00  0.00     0.015 A 
HETATM   28  C19 UNL     1      25.707   2.124  53.006  1.00  0.00     0.043 A 
ENDBRANCH  17  19
ENDBRANCH  14  17
TORSDOF 2
ENDMDL
MODEL 4
REMARK VINA RESULT:      -8.9      5.069      6.452
REMARK  2 active torsions:
REMARK  status: ('A' for Active; 'I' for Inactive)
REMARK    1  A    between atoms: C10_14  and  N5_15 
REMARK    2  A    between atoms: N5_15  and  C11_16 
ROOT
HETATM    1  C1  UNL     1      21.781   3.601  52.339  1.00  0.00     0.179 C 
HETATM    2  N1  UNL     1      21.915   3.118  51.002  1.00  0.00    -0.279 N 
HETATM    3  N2  UNL     1      21.946   4.252  50.133  1.00  0.00    -0.188 NA
HETATM    4  C2  UNL     1      22.064   4.027  48.870  1.00  0.00     0.124 C 
HETATM    5  C3  UNL     1      22.999   2.829  48.728  1.00  0.00     0.076 C 
HETATM    6  C4  UNL     1      22.117   1.678  49.053  1.00  0.00     0.014 C 
HETATM    7  C5  UNL     1      22.015   1.813  50.354  1.00  0.00     0.030 C 
HETATM    8  C6  UNL     1      22.030   1.070  51.669  1.00  0.00     0.088 C 
HETATM    9  C7  UNL     1      23.391   1.421  52.253  1.00  0.00     0.012 C 
HETATM   10  C8  UNL     1      24.526   1.928  51.738  1.00  0.00     0.068 A 
HETATM   11  N3  UNL     1      25.457   1.671  52.671  1.00  0.00    -0.241 NA
HETATM   12  C9  UNL     1      26.732   2.052  52.475  1.00  0.00     0.235 A 
HETATM   13  N4  UNL     1      27.086   2.693  51.343  1.00  0.00    -0.224 NA
HETATM   14  C10 UNL     1      26.186   2.972  50.380  1.00  0.00     0.141 A 
HETATM   15  C20 UNL     1      24.879   2.583  50.577  1.00  0.00     0.036 A 
HETATM   16  C21 UNL     1      24.211   2.959  49.515  1.00  0.00     0.005 C 
ENDROOT
BRANCH  14  17
HETATM   17  N5  UNL     1      26.654   3.648  49.224  1.00  0.00    -0.340 N 
HETATM   18  H11 UNL     1      26.666   2.838  48.567  1.00  0.00     0.167 HD
BRANCH  17  19
HETATM   19  C11 UNL     1      27.031   5.003  48.906  1.00  0.00     0.034 A 
HETATM   20  C12 UNL     1      26.073   5.969  49.127  1.00  0.00     0.032 A 
HETATM   21  C13 UNL     1      26.482   7.257  48.807  1.00  0.00     0.035 A 
HETATM   22  C14 UNL     1      27.756   7.507  48.309  1.00  0.00     0.066 A 
HETATM   23  N6  UNL     1      28.129   8.771  48.008  1.00  0.00    -0.260 NA
HETATM   24  C18 UNL     1      28.651   6.454  48.123  1.00  0.00    -0.005 A 
HETATM   25  C15 UNL     1      29.370   9.054  47.518  1.00  0.00     0.117 A 
HETATM   26  C16 UNL     1      30.269   8.028  47.327  1.00  0.00     0.020 A 
HETATM   27  C17 UNL     1      29.927   6.718  47.624  1.00  0.00     0.015 A 
HETATM   28  C19 UNL     1      28.307   5.131  48.424  1.00  0.00     0.043 A 
ENDBRANCH  17  19
ENDBRANCH  14  17
TORSDOF 2
ENDMDL
MODEL 5
REMARK VINA RESULT:      -8.9      2.021      3.089
REMARK  2 active torsions:
REMARK  status: ('A' for Active; 'I' for Inactive)
REMARK    1  A    between atoms: C10_14  and  N5_15 
REMARK    2  A    between atoms: N5_15  and  C11_16 
ROOT
HETATM    1  C1  UNL     1      21.994   6.840  50.856  1.00  0.00     0.179 C 
HETATM    2  N1  UNL     1      22.450   5.952  49.836  1.00  0.00    -0.279 N 
HETATM    3  N2  UNL     1      23.872   5.855  49.951  1.00  0.00    -0.188 NA
HETATM    4  C2  UNL     1      24.482   5.091  49.111  1.00  0.00     0.124 C 
HETATM    5  C3  UNL     1      23.571   3.891  48.874  1.00  0.00     0.076 C 
HETATM    6  C4  UNL     1      22.546   4.430  47.942  1.00  0.00     0.014 C 
HETATM    7  C5  UNL     1      21.840   5.170  48.764  1.00  0.00     0.030 C 
HETATM    8  C6  UNL     1      20.437   5.558  49.169  1.00  0.00     0.088 C 
HETATM    9  C7  UNL     1      20.235   4.812  50.480  1.00  0.00     0.012 C 
HETATM   10  C8  UNL     1      20.861   3.781  51.074  1.00  0.00     0.068 A 
HETATM   11  N3  UNL     1      20.002   3.374  52.024  1.00  0.00    -0.241 NA
HETATM   12  C9  UNL     1      20.318   2.340  52.823  1.00  0.00     0.235 A 
HETATM   13  N4  UNL     1      21.499   1.703  52.678  1.00  0.00    -0.224 NA
HETATM   14  C10 UNL     1      22.390   2.076  51.741  1.00  0.00     0.141 A 
HETATM   15  C20 UNL     1      22.069   3.135  50.920  1.00  0.00     0.036 A 
HETATM   16  C21 UNL     1      23.081   3.298  50.105  1.00  0.00     0.005 C 
ENDROOT
BRANCH  14  17
HETATM   17  N5  UNL     1      23.603   1.344  51.665  1.00  0.00    -0.340 N 
HETATM   18  H11 UNL     1      23.386   0.775  50.818  1.00  0.00     0.167 HD
BRANCH  17  19
HETATM   19  C11 UNL     1      24.825   1.293  52.430  1.00  0.00     0.034 A 
HETATM   20  C12 UNL     1      25.073   2.371  53.252  1.00  0.00     0.032 A 
HETATM   21  C13 UNL     1      26.259   2.275  53.968  1.00  0.00     0.035 A 
HETATM   22  C14 UNL     1      27.095   1.172  53.838  1.00  0.00     0.066 A 
HETATM   23  N6  UNL     1      28.243   1.105  54.548  1.00  0.00    -0.260 NA
HETATM   24  C18 UNL     1      26.748   0.132  52.975  1.00  0.00    -0.005 A 
HETATM   25  C15 UNL     1      29.087   0.038  54.446  1.00  0.00     0.117 A 
HETATM   26  C16 UNL     1      28.762  -1.000  53.599  1.00  0.00     0.020 A 
HETATM   27  C17 UNL     1      27.594  -0.970  52.854  1.00  0.00     0.015 A 
HETATM   28  C19 UNL     1      25.568   0.161  52.223  1.00  0.00     0.043 A 
ENDBRANCH  17  19
ENDBRANCH  14  17
TORSDOF 2
ENDMDL
MODEL 6
REMARK VINA RESULT:      -8.6      4.063      5.951
REMARK  2 active torsions:
REMARK  status: ('A' for Active; 'I' for Inactive)
REMARK    1  A    between atoms: C10_14  and  N5_15 
REMARK    2  A    between atoms: N5_15  and  C11_16 
ROOT
HETATM    1  C1  UNL     1      20.583   2.611  52.792  1.00  0.00     0.179 C 
HETATM    2  N1  UNL     1      20.824   2.114  51.476  1.00  0.00    -0.279 N 
HETATM    3  N2  UNL     1      20.730   3.217  50.572  1.00  0.00    -0.188 NA
HETATM    4  C2  UNL     1      20.919   2.975  49.321  1.00  0.00     0.124 C 
HETATM    5  C3  UNL     1      22.012   1.913  49.245  1.00  0.00     0.076 C 
HETATM    6  C4  UNL     1      21.283   0.662  49.581  1.00  0.00     0.014 C 
HETATM    7  C5  UNL     1      21.121   0.817  50.873  1.00  0.00     0.030 C 
HETATM    8  C6  UNL     1      21.193   0.120  52.211  1.00  0.00     0.088 C 
HETATM    9  C7  UNL     1      22.474   0.669  52.822  1.00  0.00     0.012 C 
HETATM   10  C8  UNL     1      23.546   1.311  52.324  1.00  0.00     0.068 A 
HETATM   11  N3  UNL     1      24.473   1.210  53.292  1.00  0.00    -0.241 NA
HETATM   12  C9  UNL     1      25.690   1.754  53.121  1.00  0.00     0.235 A 
HETATM   13  N4  UNL     1      25.991   2.407  51.979  1.00  0.00    -0.224 NA
HETATM   14  C10 UNL     1      25.094   2.533  50.983  1.00  0.00     0.141 A 
HETATM   15  C20 UNL     1      23.846   1.976  51.154  1.00  0.00     0.036 A 
HETATM   16  C21 UNL     1      23.169   2.228  50.061  1.00  0.00     0.005 C 
ENDROOT
BRANCH  14  17
HETATM   17  N5  UNL     1      25.504   3.235  49.820  1.00  0.00    -0.340 N 
HETATM   18  H11 UNL     1      25.339   2.480  49.119  1.00  0.00     0.167 HD
BRANCH  17  19
HETATM   19  C11 UNL     1      26.006   4.557  49.538  1.00  0.00     0.034 A 
HETATM   20  C12 UNL     1      27.155   4.623  48.780  1.00  0.00     0.032 A 
HETATM   21  C13 UNL     1      27.598   5.916  48.534  1.00  0.00     0.035 A 
HETATM   22  C14 UNL     1      26.913   7.021  49.029  1.00  0.00     0.066 A 
HETATM   23  N6  UNL     1      27.366   8.268  48.773  1.00  0.00    -0.260 NA
HETATM   24  C18 UNL     1      25.757   6.842  49.788  1.00  0.00    -0.005 A 
HETATM   25  C15 UNL     1      26.720   9.374  49.242  1.00  0.00     0.117 A 
HETATM   26  C16 UNL     1      25.576   9.219  49.993  1.00  0.00     0.020 A 
HETATM   27  C17 UNL     1      25.078   7.958  50.277  1.00  0.00     0.015 A 
HETATM   28  C19 UNL     1      25.252   5.568  50.074  1.00  0.00     0.043 A 
ENDBRANCH  17  19
ENDBRANCH  14  17
TORSDOF 2
ENDMDL
MODEL 7
REMARK VINA RESULT:      -8.3      2.433      6.314
REMARK  2 active torsions:
REMARK  status: ('A' for Active; 'I' for Inactive)
REMARK    1  A    between atoms: C10_14  and  N5_15 
REMARK    2  A    between atoms: N5_15  and  C11_16 
ROOT
HETATM    1  C1  UNL     1      23.447   3.617  48.543  1.00  0.00     0.179 C 
HETATM    2  N1  UNL     1      23.142   4.242  49.790  1.00  0.00    -0.279 N 
HETATM    3  N2  UNL     1      21.822   3.842  50.163  1.00  0.00    -0.188 NA
HETATM    4  C2  UNL     1      21.355   4.303  51.272  1.00  0.00     0.124 C 
HETATM    5  C3  UNL     1      22.527   4.360  52.247  1.00  0.00     0.076 C 
HETATM    6  C4  UNL     1      23.259   5.580  51.817  1.00  0.00     0.014 C 
HETATM    7  C5  UNL     1      23.822   5.147  50.714  1.00  0.00     0.030 C 
HETATM    8  C6  UNL     1      25.101   5.137  49.911  1.00  0.00     0.088 C 
HETATM    9  C7  UNL     1      25.640   3.731  50.132  1.00  0.00     0.012 C 
HETATM   10  C8  UNL     1      25.388   2.764  51.033  1.00  0.00     0.068 A 
HETATM   11  N3  UNL     1      26.423   1.917  50.910  1.00  0.00    -0.241 NA
HETATM   12  C9  UNL     1      26.489   0.815  51.678  1.00  0.00     0.235 A 
HETATM   13  N4  UNL     1      25.518   0.552  52.576  1.00  0.00    -0.224 NA
HETATM   14  C10 UNL     1      24.462   1.372  52.734  1.00  0.00     0.141 A 
HETATM   15  C20 UNL     1      24.391   2.502  51.949  1.00  0.00     0.036 A 
HETATM   16  C21 UNL     1      23.291   3.126  52.288  1.00  0.00     0.005 C 
ENDROOT
BRANCH  14  17
HETATM   17  N5  UNL     1      23.493   1.011  53.706  1.00  0.00    -0.340 N 
HETATM   18  H11 UNL     1      23.902   1.513  54.524  1.00  0.00     0.167 HD
BRANCH  17  19
HETATM   19  C11 UNL     1      22.287   0.220  53.713  1.00  0.00     0.034 A 
HETATM   20  C12 UNL     1      22.309  -0.915  54.494  1.00  0.00     0.032 A 
HETATM   21  C13 UNL     1      21.125  -1.641  54.470  1.00  0.00     0.035 A 
HETATM   22  C14 UNL     1      20.038  -1.225  53.710  1.00  0.00     0.066 A 
HETATM   23  N6  UNL     1      18.898  -1.951  53.707  1.00  0.00    -0.260 NA
HETATM   24  C18 UNL     1      20.122  -0.057  52.953  1.00  0.00    -0.005 A 
HETATM   25  C15 UNL     1      17.811  -1.574  52.974  1.00  0.00     0.117 A 
HETATM   26  C16 UNL     1      17.873  -0.422  52.220  1.00  0.00     0.020 A 
HETATM   27  C17 UNL     1      19.023   0.351  52.197  1.00  0.00     0.015 A 
HETATM   28  C19 UNL     1      21.282   0.725  52.931  1.00  0.00     0.043 A 
ENDBRANCH  17  19
ENDBRANCH  14  17
TORSDOF 2
ENDMDL
MODEL 8
REMARK VINA RESULT:      -8.3      2.956      5.866
REMARK  2 active torsions:
REMARK  status: ('A' for Active; 'I' for Inactive)
REMARK    1  A    between atoms: C10_14  and  N5_15 
REMARK    2  A    between atoms: N5_15  and  C11_16 
ROOT
HETATM    1  C1  UNL     1      22.084   4.811  47.669  1.00  0.00     0.179 C 
HETATM    2  N1  UNL     1      21.968   5.442  48.944  1.00  0.00    -0.279 N 
HETATM    3  N2  UNL     1      21.093   4.644  49.743  1.00  0.00    -0.188 NA
HETATM    4  C2  UNL     1      20.856   5.046  50.944  1.00  0.00     0.124 C 
HETATM    5  C3  UNL     1      22.157   5.651  51.464  1.00  0.00     0.076 C 
HETATM    6  C4  UNL     1      22.188   6.985  50.810  1.00  0.00     0.014 C 
HETATM    7  C5  UNL     1      22.499   6.644  49.582  1.00  0.00     0.030 C 
HETATM    8  C6  UNL     1      23.363   6.992  48.393  1.00  0.00     0.088 C 
HETATM    9  C7  UNL     1      24.441   5.919  48.420  1.00  0.00     0.012 C 
HETATM   10  C8  UNL     1      24.876   5.054  49.354  1.00  0.00     0.068 A 
HETATM   11  N3  UNL     1      26.062   4.631  48.888  1.00  0.00    -0.241 NA
HETATM   12  C9  UNL     1      26.784   3.739  49.590  1.00  0.00     0.235 A 
HETATM   13  N4  UNL     1      26.323   3.262  50.765  1.00  0.00    -0.224 NA
HETATM   14  C10 UNL     1      25.140   3.658  51.270  1.00  0.00     0.141 A 
HETATM   15  C20 UNL     1      24.398   4.572  50.554  1.00  0.00     0.036 A 
HETATM   16  C21 UNL     1      23.308   4.795  51.245  1.00  0.00     0.005 C 
ENDROOT
BRANCH  14  17
HETATM   17  N5  UNL     1      24.741   3.102  52.513  1.00  0.00    -0.340 N 
HETATM   18  H11 UNL     1      25.058   3.876  53.136  1.00  0.00     0.167 HD
BRANCH  17  19
HETATM   19  C11 UNL     1      24.098   1.882  52.937  1.00  0.00     0.034 A 
HETATM   20  C12 UNL     1      24.934   0.863  53.339  1.00  0.00     0.032 A 
HETATM   21  C13 UNL     1      24.269  -0.289  53.739  1.00  0.00     0.035 A 
HETATM   22  C14 UNL     1      22.881  -0.366  53.720  1.00  0.00     0.066 A 
HETATM   23  N6  UNL     1      22.260  -1.499  54.116  1.00  0.00    -0.260 NA
HETATM   24  C18 UNL     1      22.128   0.728  53.294  1.00  0.00    -0.005 A 
HETATM   25  C15 UNL     1      20.901  -1.611  54.111  1.00  0.00     0.117 A 
HETATM   26  C16 UNL     1      20.139  -0.541  53.694  1.00  0.00     0.020 A 
HETATM   27  C17 UNL     1      20.736   0.639  53.281  1.00  0.00     0.015 A 
HETATM   28  C19 UNL     1      22.730   1.921  52.878  1.00  0.00     0.043 A 
ENDBRANCH  17  19
ENDBRANCH  14  17
TORSDOF 2
ENDMDL
MODEL 9
REMARK VINA RESULT:      -8.3      3.675      5.512
REMARK  2 active torsions:
REMARK  status: ('A' for Active; 'I' for Inactive)
REMARK    1  A    between atoms: C10_14  and  N5_15 
REMARK    2  A    between atoms: N5_15  and  C11_16 
ROOT
HETATM    1  C1  UNL     1      22.576   8.118  49.867  1.00  0.00     0.179 C 
HETATM    2  N1  UNL     1      23.866   7.859  49.313  1.00  0.00    -0.279 N 
HETATM    3  N2  UNL     1      24.796   7.794  50.396  1.00  0.00    -0.188 NA
HETATM    4  C2  UNL     1      26.030   7.565  50.102  1.00  0.00     0.124 C 
HETATM    5  C3  UNL     1      26.024   6.583  48.935  1.00  0.00     0.076 C 
HETATM    6  C4  UNL     1      25.702   7.450  47.772  1.00  0.00     0.014 C 
HETATM    7  C5  UNL     1      24.423   7.663  47.977  1.00  0.00     0.030 C 
HETATM    8  C6  UNL     1      23.069   7.732  47.312  1.00  0.00     0.088 C 
HETATM    9  C7  UNL     1      22.401   6.436  47.748  1.00  0.00     0.012 C 
HETATM   10  C8  UNL     1      22.852   5.280  48.266  1.00  0.00     0.068 A 
HETATM   11  N3  UNL     1      21.833   4.421  48.099  1.00  0.00    -0.241 NA
HETATM   12  C9  UNL     1      21.949   3.147  48.515  1.00  0.00     0.235 A 
HETATM   13  N4  UNL     1      23.086   2.723  49.104  1.00  0.00    -0.224 NA
HETATM   14  C10 UNL     1      24.132   3.549  49.292  1.00  0.00     0.141 A 
HETATM   15  C20 UNL     1      24.018   4.854  48.866  1.00  0.00     0.036 A 
HETATM   16  C21 UNL     1      25.151   5.444  49.156  1.00  0.00     0.005 C 
ENDROOT
BRANCH  14  17
HETATM   17  N5  UNL     1      25.286   3.010  49.918  1.00  0.00    -0.340 N 
HETATM   18  H11 UNL     1      25.944   3.076  49.111  1.00  0.00     0.167 HD
BRANCH  17  19
HETATM   19  C11 UNL     1      25.602   2.497  51.228  1.00  0.00     0.034 A 
HETATM   20  C12 UNL     1      24.840   2.979  52.270  1.00  0.00     0.032 A 
HETATM   21  C13 UNL     1      25.180   2.455  53.511  1.00  0.00     0.035 A 
HETATM   22  C14 UNL     1      26.208   1.528  53.646  1.00  0.00     0.066 A 
HETATM   23  N6  UNL     1      26.517   1.034  54.865  1.00  0.00    -0.260 NA
HETATM   24  C18 UNL     1      26.919   1.106  52.523  1.00  0.00    -0.005 A 
HETATM   25  C15 UNL     1      27.518   0.124  55.037  1.00  0.00     0.117 A 
HETATM   26  C16 UNL     1      28.232  -0.307  53.939  1.00  0.00     0.020 A 
HETATM   27  C17 UNL     1      27.946   0.174  52.672  1.00  0.00     0.015 A 
HETATM   28  C19 UNL     1      26.630   1.590  51.242  1.00  0.00     0.043 A 
ENDBRANCH  17  19
ENDBRANCH  14  17
TORSDOF 2
ENDMDL
