MODEL 1
REMARK VINA RESULT:     -10.3      0.000      0.000
REMARK  3 active torsions:
REMARK  status: ('A' for Active; 'I' for Inactive)
REMARK    1  A    between atoms: C4_5  and  N1_6 
REMARK    2  A    between atoms: N1_6  and  N2_7 
REMARK    3  A    between atoms: N4_17  and  C13_18 
ROOT
HETATM    1  N2  UNL     1      26.273   2.429  51.913  1.00  0.00    -0.253 N 
HETATM    2  C5  UNL     1      27.499   2.318  52.744  1.00  0.00     0.232 C 
HETATM    3  N3  UNL     1      27.834   1.135  53.341  1.00  0.00    -0.246 NA
HETATM    4  C6  UNL     1      26.831   0.123  53.364  1.00  0.00     0.041 C 
HETATM    5  C7  UNL     1      26.266  -0.356  54.450  1.00  0.00     0.028 C 
HETATM    6  C8  UNL     1      24.857  -0.800  54.655  1.00  0.00     0.012 C 
HETATM    7  C9  UNL     1      23.717  -0.451  54.057  1.00  0.00    -0.024 C 
HETATM    8  C10 UNL     1      22.813  -1.215  54.889  1.00  0.00     0.069 C 
HETATM    9  C11 UNL     1      21.447  -0.603  54.965  1.00  0.00    -0.003 C 
HETATM   10  C12 UNL     1      20.721   0.150  54.145  1.00  0.00     0.109 C 
HETATM   11  N4  UNL     1      21.078   0.640  52.822  1.00  0.00    -0.276 N 
HETATM   12  N6  UNL     1      22.375   0.944  52.377  1.00  0.00    -0.172 NA
HETATM   13  C18 UNL     1      23.427   0.461  52.932  1.00  0.00     0.085 C 
HETATM   14  C19 UNL     1      24.271   1.262  51.987  1.00  0.00     0.061 C 
HETATM   15  C20 UNL     1      25.583   1.149  51.871  1.00  0.00     0.043 C 
HETATM   16  C21 UNL     1      26.530  -0.087  51.853  1.00  0.00     0.118 C 
ENDROOT
BRANCH   1  17
HETATM   17  N1  UNL     1      25.471   3.295  51.187  1.00  0.00    -0.293 N 
HETATM   18  H3  UNL     1      24.433   3.395  51.304  1.00  0.00     0.187 HD
BRANCH  17  19
HETATM   19  C4  UNL     1      26.103   4.152  50.205  1.00  0.00     0.050 A 
HETATM   20  C3  UNL     1      27.157   4.005  49.371  1.00  0.00     0.034 A 
HETATM   21  C2  UNL     1      27.504   5.042  48.518  1.00  0.00     0.046 A 
HETATM   22  C1  UNL     1      26.776   6.214  48.522  1.00  0.00     0.138 A 
HETATM   23  F1  UNL     1      27.200   7.178  47.639  1.00  0.00    -0.204 F 
HETATM   24  C23 UNL     1      25.695   6.393  49.364  1.00  0.00     0.074 A 
HETATM   25  C22 UNL     1      25.352   5.337  50.223  1.00  0.00     0.058 A 
HETATM   26 CL1  UNL     1      24.864   7.931  49.256  1.00  0.00    -0.081 Cl
ENDBRANCH  17  19
ENDBRANCH   1  17
BRANCH  11  27
HETATM   27  C13 UNL     1      19.969   0.796  51.948  1.00  0.00     0.112 C 
HETATM   28  C14 UNL     1      18.878  -0.244  52.166  1.00  0.00     0.046 C 
HETATM   29  C15 UNL     1      17.732   0.211  51.274  1.00  0.00     0.115 C 
HETATM   30  N5  UNL     1      17.998   1.444  50.591  1.00  0.00    -0.421 N 
HETATM   31  C16 UNL     1      19.170   1.466  49.775  1.00  0.00     0.115 C 
HETATM   32  H16 UNL     1      17.824   2.299  51.149  1.00  0.00     0.153 HD
HETATM   33  C17 UNL     1      20.308   0.727  50.475  1.00  0.00     0.046 C 
ENDBRANCH  11  27
TORSDOF 3
ENDMDL
MODEL 2
REMARK VINA RESULT:     -10.3      2.676      5.867
REMARK  3 active torsions:
REMARK  status: ('A' for Active; 'I' for Inactive)
REMARK    1  A    between atoms: C4_5  and  N1_6 
REMARK    2  A    between atoms: N1_6  and  N2_7 
REMARK    3  A    between atoms: N4_17  and  C13_18 
ROOT
HETATM    1  N2  UNL     1      24.380   4.629  49.554  1.00  0.00    -0.253 N 
HETATM    2  C5  UNL     1      23.054   5.041  49.026  1.00  0.00     0.232 C 
HETATM    3  N3  UNL     1      21.957   5.073  49.842  1.00  0.00    -0.246 NA
HETATM    4  C6  UNL     1      22.083   4.436  51.111  1.00  0.00     0.041 C 
HETATM    5  C7  UNL     1      21.404   3.380  51.496  1.00  0.00     0.028 C 
HETATM    6  C8  UNL     1      21.847   2.241  52.353  1.00  0.00     0.012 C 
HETATM    7  C9  UNL     1      23.050   1.713  52.579  1.00  0.00    -0.024 C 
HETATM    8  C10 UNL     1      22.629   0.600  53.402  1.00  0.00     0.069 C 
HETATM    9  C11 UNL     1      23.566  -0.565  53.316  1.00  0.00    -0.003 C 
HETATM   10  C12 UNL     1      24.868  -0.693  53.081  1.00  0.00     0.109 C 
HETATM   11  N4  UNL     1      25.840   0.357  52.814  1.00  0.00    -0.276 N 
HETATM   12  N6  UNL     1      25.578   1.581  52.178  1.00  0.00    -0.172 NA
HETATM   13  C18 UNL     1      24.401   2.089  52.115  1.00  0.00     0.085 C 
HETATM   14  C19 UNL     1      24.954   3.223  51.306  1.00  0.00     0.061 C 
HETATM   15  C20 UNL     1      24.275   4.307  50.968  1.00  0.00     0.043 C 
HETATM   16  C21 UNL     1      23.274   5.202  51.755  1.00  0.00     0.118 C 
ENDROOT
BRANCH   1  17
HETATM   17  N1  UNL     1      25.699   4.369  49.221  1.00  0.00    -0.293 N 
HETATM   18  H3  UNL     1      26.131   3.413  49.175  1.00  0.00     0.187 HD
BRANCH  17  19
HETATM   19  C4  UNL     1      26.554   5.488  48.883  1.00  0.00     0.050 A 
HETATM   20  C3  UNL     1      26.371   6.826  48.836  1.00  0.00     0.034 A 
HETATM   21  C2  UNL     1      27.430   7.649  48.479  1.00  0.00     0.046 A 
HETATM   22  C1  UNL     1      28.659   7.102  48.175  1.00  0.00     0.138 A 
HETATM   23  F1  UNL     1      29.641   8.001  47.836  1.00  0.00    -0.204 F 
HETATM   24  C23 UNL     1      28.875   5.737  48.214  1.00  0.00     0.074 A 
HETATM   25  C22 UNL     1      27.798   4.914  48.577  1.00  0.00     0.058 A 
HETATM   26 CL1  UNL     1      30.488   5.188  47.807  1.00  0.00    -0.081 Cl
ENDBRANCH  17  19
ENDBRANCH   1  17
BRANCH  11  27
HETATM   27  C13 UNL     1      27.152   0.054  53.268  1.00  0.00     0.112 C 
HETATM   28  C14 UNL     1      27.579  -1.376  52.970  1.00  0.00     0.046 C 
HETATM   29  C15 UNL     1      29.048  -1.429  53.366  1.00  0.00     0.115 C 
HETATM   30  N5  UNL     1      29.560  -0.166  53.812  1.00  0.00    -0.421 N 
HETATM   31  C16 UNL     1      28.874   0.434  54.911  1.00  0.00     0.115 C 
HETATM   32  H16 UNL     1      29.849   0.481  53.056  1.00  0.00     0.153 HD
HETATM   33  C17 UNL     1      27.368   0.242  54.754  1.00  0.00     0.046 C 
ENDBRANCH  11  27
TORSDOF 3
ENDMDL
MODEL 3
REMARK VINA RESULT:     -10.1      3.640      7.813
REMARK  3 active torsions:
REMARK  status: ('A' for Active; 'I' for Inactive)
REMARK    1  A    between atoms: C4_5  and  N1_6 
REMARK    2  A    between atoms: N1_6  and  N2_7 
REMARK    3  A    between atoms: N4_17  and  C13_18 
ROOT
HETATM    1  N2  UNL     1      24.380   1.120  52.363  1.00  0.00    -0.253 N 
HETATM    2  C5  UNL     1      23.280   0.673  53.257  1.00  0.00     0.232 C 
HETATM    3  N3  UNL     1      21.983   1.014  52.991  1.00  0.00    -0.246 NA
HETATM    4  C6  UNL     1      21.774   2.025  52.010  1.00  0.00     0.041 C 
HETATM    5  C7  UNL     1      21.246   3.206  52.242  1.00  0.00     0.028 C 
HETATM    6  C8  UNL     1      21.582   4.522  51.624  1.00  0.00     0.012 C 
HETATM    7  C9  UNL     1      22.704   4.987  51.074  1.00  0.00    -0.024 C 
HETATM    8  C10 UNL     1      22.263   6.343  50.834  1.00  0.00     0.069 C 
HETATM    9  C11 UNL     1      23.394   7.325  50.839  1.00  0.00    -0.003 C 
HETATM   10  C12 UNL     1      24.688   7.250  50.541  1.00  0.00     0.109 C 
HETATM   11  N4  UNL     1      25.440   6.090  50.087  1.00  0.00    -0.276 N 
HETATM   12  N6  UNL     1      25.170   4.751  50.415  1.00  0.00    -0.172 NA
HETATM   13  C18 UNL     1      24.017   4.358  50.818  1.00  0.00     0.085 C 
HETATM   14  C19 UNL     1      24.567   2.974  50.985  1.00  0.00     0.061 C 
HETATM   15  C20 UNL     1      23.841   1.905  51.264  1.00  0.00     0.043 C 
HETATM   16  C21 UNL     1      22.455   1.418  50.750  1.00  0.00     0.118 C 
ENDROOT
BRANCH   1  17
HETATM   17  N1  UNL     1      25.753   1.135  52.178  1.00  0.00    -0.293 N 
HETATM   18  H3  UNL     1      26.311   1.973  51.881  1.00  0.00     0.187 HD
BRANCH  17  19
HETATM   19  C4  UNL     1      26.493  -0.083  52.436  1.00  0.00     0.050 A 
HETATM   20  C3  UNL     1      26.205  -1.398  52.313  1.00  0.00     0.034 A 
HETATM   21  C2  UNL     1      27.169  -2.342  52.638  1.00  0.00     0.046 A 
HETATM   22  C1  UNL     1      28.411  -1.938  53.082  1.00  0.00     0.138 A 
HETATM   23  F1  UNL     1      29.293  -2.950  53.375  1.00  0.00    -0.204 F 
HETATM   24  C23 UNL     1      28.732  -0.601  53.219  1.00  0.00     0.074 A 
HETATM   25  C22 UNL     1      27.751   0.346  52.887  1.00  0.00     0.058 A 
HETATM   26 CL1  UNL     1      30.348  -0.239  53.790  1.00  0.00    -0.081 Cl
ENDBRANCH  17  19
ENDBRANCH   1  17
BRANCH  11  27
HETATM   27  C13 UNL     1      26.530   6.410  49.233  1.00  0.00     0.112 C 
HETATM   28  C14 UNL     1      26.132   7.273  48.044  1.00  0.00     0.046 C 
HETATM   29  C15 UNL     1      27.451   7.643  47.380  1.00  0.00     0.115 C 
HETATM   30  N5  UNL     1      28.598   7.142  48.079  1.00  0.00    -0.421 N 
HETATM   31  C16 UNL     1      28.638   5.730  48.284  1.00  0.00     0.115 C 
HETATM   32  H16 UNL     1      28.909   7.721  48.880  1.00  0.00     0.153 HD
HETATM   33  C17 UNL     1      27.248   5.214  48.646  1.00  0.00     0.046 C 
ENDBRANCH  11  27
TORSDOF 3
ENDMDL
MODEL 4
REMARK VINA RESULT:     -10.0      2.036      5.869
REMARK  3 active torsions:
REMARK  status: ('A' for Active; 'I' for Inactive)
REMARK    1  A    between atoms: C4_5  and  N1_6 
REMARK    2  A    between atoms: N1_6  and  N2_7 
REMARK    3  A    between atoms: N4_17  and  C13_18 
ROOT
HETATM    1  N2  UNL     1      21.495   1.656  50.174  1.00  0.00    -0.253 N 
HETATM    2  C5  UNL     1      20.118   1.148  49.941  1.00  0.00     0.232 C 
HETATM    3  N3  UNL     1      19.261   0.950  50.988  1.00  0.00    -0.246 NA
HETATM    4  C6  UNL     1      19.827   0.979  52.295  1.00  0.00     0.041 C 
HETATM    5  C7  UNL     1      19.875  -0.042  53.121  1.00  0.00     0.028 C 
HETATM    6  C8  UNL     1      20.943  -0.411  54.095  1.00  0.00     0.012 C 
HETATM    7  C9  UNL     1      22.254  -0.166  54.115  1.00  0.00    -0.024 C 
HETATM    8  C10 UNL     1      22.585  -0.943  55.289  1.00  0.00     0.069 C 
HETATM    9  C11 UNL     1      23.995  -1.448  55.264  1.00  0.00    -0.003 C 
HETATM   10  C12 UNL     1      25.128  -1.011  54.722  1.00  0.00     0.109 C 
HETATM   11  N4  UNL     1      25.338   0.190  53.927  1.00  0.00    -0.276 N 
HETATM   12  N6  UNL     1      24.393   0.798  53.084  1.00  0.00    -0.172 NA
HETATM   13  C18 UNL     1      23.130   0.610  53.213  1.00  0.00     0.085 C 
HETATM   14  C19 UNL     1      22.898   1.473  52.010  1.00  0.00     0.061 C 
HETATM   15  C20 UNL     1      21.710   1.879  51.595  1.00  0.00     0.043 C 
HETATM   16  C21 UNL     1      20.456   2.400  52.358  1.00  0.00     0.118 C 
ENDROOT
BRANCH   1  17
HETATM   17  N1  UNL     1      22.705   1.961  49.573  1.00  0.00    -0.293 N 
HETATM   18  H3  UNL     1      23.516   1.300  49.485  1.00  0.00     0.187 HD
BRANCH  17  19
HETATM   19  C4  UNL     1      22.871   3.280  48.997  1.00  0.00     0.050 A 
HETATM   20  C3  UNL     1      22.075   4.090  48.266  1.00  0.00     0.034 A 
HETATM   21  C2  UNL     1      22.543   5.336  47.873  1.00  0.00     0.046 A 
HETATM   22  C1  UNL     1      23.812   5.742  48.229  1.00  0.00     0.138 A 
HETATM   23  F1  UNL     1      24.178   6.992  47.792  1.00  0.00    -0.204 F 
HETATM   24  C23 UNL     1      24.649   4.933  48.975  1.00  0.00     0.074 A 
HETATM   25  C22 UNL     1      24.166   3.676  49.368  1.00  0.00     0.058 A 
HETATM   26 CL1  UNL     1      26.231   5.583  49.354  1.00  0.00    -0.081 Cl
ENDBRANCH  17  19
ENDBRANCH   1  17
BRANCH  11  27
HETATM   27  C13 UNL     1      26.636   0.752  54.067  1.00  0.00     0.112 C 
HETATM   28  C14 UNL     1      26.924   1.862  53.067  1.00  0.00     0.046 C 
HETATM   29  C15 UNL     1      28.266   2.434  53.505  1.00  0.00     0.115 C 
HETATM   30  N5  UNL     1      28.781   1.823  54.695  1.00  0.00    -0.421 N 
HETATM   31  C16 UNL     1      28.949   0.406  54.648  1.00  0.00     0.115 C 
HETATM   32  H16 UNL     1      28.399   2.201  55.581  1.00  0.00     0.153 HD
HETATM   33  C17 UNL     1      27.773  -0.236  53.918  1.00  0.00     0.046 C 
ENDBRANCH  11  27
TORSDOF 3
ENDMDL
MODEL 5
REMARK VINA RESULT:      -9.8      4.684     10.433
REMARK  3 active torsions:
REMARK  status: ('A' for Active; 'I' for Inactive)
REMARK    1  A    between atoms: C4_5  and  N1_6 
REMARK    2  A    between atoms: N1_6  and  N2_7 
REMARK    3  A    between atoms: N4_17  and  C13_18 
ROOT
HETATM    1  N2  UNL     1      26.289   5.582  49.358  1.00  0.00    -0.253 N 
HETATM    2  C5  UNL     1      25.467   6.623  50.028  1.00  0.00     0.232 C 
HETATM    3  N3  UNL     1      25.631   7.945  49.723  1.00  0.00    -0.246 NA
HETATM    4  C6  UNL     1      26.789   8.290  48.968  1.00  0.00     0.041 C 
HETATM    5  C7  UNL     1      27.776   9.043  49.399  1.00  0.00     0.028 C 
HETATM    6  C8  UNL     1      29.236   8.929  49.114  1.00  0.00     0.012 C 
HETATM    7  C9  UNL     1      30.000   7.888  48.784  1.00  0.00    -0.024 C 
HETATM    8  C10 UNL     1      31.279   8.564  48.803  1.00  0.00     0.069 C 
HETATM    9  C11 UNL     1      32.413   7.639  49.125  1.00  0.00    -0.003 C 
HETATM   10  C12 UNL     1      32.633   6.342  48.939  1.00  0.00     0.109 C 
HETATM   11  N4  UNL     1      31.754   5.361  48.317  1.00  0.00    -0.276 N 
HETATM   12  N6  UNL     1      30.350   5.391  48.322  1.00  0.00    -0.172 NA
HETATM   13  C18 UNL     1      29.683   6.469  48.521  1.00  0.00     0.085 C 
HETATM   14  C19 UNL     1      28.414   5.676  48.436  1.00  0.00     0.061 C 
HETATM   15  C20 UNL     1      27.200   6.202  48.409  1.00  0.00     0.043 C 
HETATM   16  C21 UNL     1      26.613   7.443  47.675  1.00  0.00     0.118 C 
ENDROOT
BRANCH   1  17
HETATM   17  N1  UNL     1      26.582   4.229  49.309  1.00  0.00    -0.293 N 
HETATM   18  H3  UNL     1      27.372   3.803  48.765  1.00  0.00     0.187 HD
BRANCH  17  19
HETATM   19  C4  UNL     1      25.760   3.322  50.084  1.00  0.00     0.050 A 
HETATM   20  C3  UNL     1      24.429   3.104  50.170  1.00  0.00     0.034 A 
HETATM   21  C2  UNL     1      23.951   2.120  51.022  1.00  0.00     0.046 A 
HETATM   22  C1  UNL     1      24.830   1.368  51.774  1.00  0.00     0.138 A 
HETATM   23  F1  UNL     1      24.256   0.419  52.584  1.00  0.00    -0.204 F 
HETATM   24  C23 UNL     1      26.196   1.569  51.707  1.00  0.00     0.074 A 
HETATM   25  C22 UNL     1      26.670   2.567  50.841  1.00  0.00     0.058 A 
HETATM   26 CL1  UNL     1      27.189   0.538  52.716  1.00  0.00    -0.081 Cl
ENDBRANCH  17  19
ENDBRANCH   1  17
BRANCH  11  27
HETATM   27  C13 UNL     1      32.444   4.309  47.657  1.00  0.00     0.112 C 
HETATM   28  C14 UNL     1      33.605   4.792  46.800  1.00  0.00     0.046 C 
HETATM   29  C15 UNL     1      34.302   3.518  46.344  1.00  0.00     0.115 C 
HETATM   30  N5  UNL     1      33.717   2.327  46.887  1.00  0.00    -0.421 N 
HETATM   31  C16 UNL     1      32.328   2.135  46.622  1.00  0.00     0.115 C 
HETATM   32  H16 UNL     1      34.029   2.083  47.844  1.00  0.00     0.153 HD
HETATM   33  C17 UNL     1      31.586   3.464  46.742  1.00  0.00     0.046 C 
ENDBRANCH  11  27
TORSDOF 3
ENDMDL
MODEL 6
REMARK VINA RESULT:      -9.6      3.943      8.938
REMARK  3 active torsions:
REMARK  status: ('A' for Active; 'I' for Inactive)
REMARK    1  A    between atoms: C4_5  and  N1_6 
REMARK    2  A    between atoms: N1_6  and  N2_7 
REMARK    3  A    between atoms: N4_17  and  C13_18 
ROOT
HETATM    1  N2  UNL     1      24.443   3.182  51.452  1.00  0.00    -0.253 N 
HETATM    2  C5  UNL     1      23.000   3.098  51.795  1.00  0.00     0.232 C 
HETATM    3  N3  UNL     1      22.042   3.311  50.843  1.00  0.00    -0.246 NA
HETATM    4  C6  UNL     1      22.478   3.883  49.613  1.00  0.00     0.041 C 
HETATM    5  C7  UNL     1      22.120   5.063  49.159  1.00  0.00     0.028 C 
HETATM    6  C8  UNL     1      22.925   6.054  48.386  1.00  0.00     0.012 C 
HETATM    7  C9  UNL     1      24.238   6.283  48.327  1.00  0.00    -0.024 C 
HETATM    8  C10 UNL     1      24.199   7.451  47.475  1.00  0.00     0.069 C 
HETATM    9  C11 UNL     1      25.363   8.366  47.701  1.00  0.00    -0.003 C 
HETATM   10  C12 UNL     1      26.616   8.190  48.106  1.00  0.00     0.109 C 
HETATM   11  N4  UNL     1      27.273   6.946  48.480  1.00  0.00    -0.276 N 
HETATM   12  N6  UNL     1      26.652   5.825  49.056  1.00  0.00    -0.172 NA
HETATM   13  C18 UNL     1      25.391   5.608  48.958  1.00  0.00     0.085 C 
HETATM   14  C19 UNL     1      25.553   4.388  49.813  1.00  0.00     0.061 C 
HETATM   15  C20 UNL     1      24.602   3.498  50.041  1.00  0.00     0.043 C 
HETATM   16  C21 UNL     1      23.530   2.851  49.116  1.00  0.00     0.118 C 
ENDROOT
BRANCH   1  17
HETATM   17  N1  UNL     1      25.732   3.131  51.958  1.00  0.00    -0.293 N 
HETATM   18  H3  UNL     1      26.332   3.968  52.160  1.00  0.00     0.187 HD
BRANCH  17  19
HETATM   19  C4  UNL     1      26.298   1.832  52.260  1.00  0.00     0.050 A 
HETATM   20  C3  UNL     1      25.947   0.563  51.958  1.00  0.00     0.034 A 
HETATM   21  C2  UNL     1      26.737  -0.489  52.400  1.00  0.00     0.046 A 
HETATM   22  C1  UNL     1      27.872  -0.237  53.143  1.00  0.00     0.138 A 
HETATM   23  F1  UNL     1      28.584  -1.346  53.530  1.00  0.00    -0.204 F 
HETATM   24  C23 UNL     1      28.254   1.051  53.468  1.00  0.00     0.074 A 
HETATM   25  C22 UNL     1      27.449   2.108  53.015  1.00  0.00     0.058 A 
HETATM   26 CL1  UNL     1      29.720   1.217  54.413  1.00  0.00    -0.081 Cl
ENDBRANCH  17  19
ENDBRANCH   1  17
BRANCH  11  27
HETATM   27  C13 UNL     1      28.667   6.927  48.206  1.00  0.00     0.112 C 
HETATM   28  C14 UNL     1      29.026   7.539  46.859  1.00  0.00     0.046 C 
HETATM   29  C15 UNL     1      30.548   7.583  46.851  1.00  0.00     0.115 C 
HETATM   30  N5  UNL     1      31.135   7.117  48.073  1.00  0.00    -0.421 N 
HETATM   31  C16 UNL     1      30.778   5.795  48.475  1.00  0.00     0.115 C 
HETATM   32  H16 UNL     1      31.179   7.820  48.833  1.00  0.00     0.153 HD
HETATM   33  C17 UNL     1      29.295   5.550  48.207  1.00  0.00     0.046 C 
ENDBRANCH  11  27
TORSDOF 3
ENDMDL
MODEL 7
REMARK VINA RESULT:      -9.4      2.314      5.923
REMARK  3 active torsions:
REMARK  status: ('A' for Active; 'I' for Inactive)
REMARK    1  A    between atoms: C4_5  and  N1_6 
REMARK    2  A    between atoms: N1_6  and  N2_7 
REMARK    3  A    between atoms: N4_17  and  C13_18 
ROOT
HETATM    1  N2  UNL     1      22.998   4.808  50.002  1.00  0.00    -0.253 N 
HETATM    2  C5  UNL     1      21.632   4.814  49.417  1.00  0.00     0.232 C 
HETATM    3  N3  UNL     1      20.548   4.457  50.170  1.00  0.00    -0.246 NA
HETATM    4  C6  UNL     1      20.816   3.822  51.417  1.00  0.00     0.041 C 
HETATM    5  C7  UNL     1      20.488   2.587  51.722  1.00  0.00     0.028 C 
HETATM    6  C8  UNL     1      21.231   1.598  52.556  1.00  0.00     0.012 C 
HETATM    7  C9  UNL     1      22.529   1.460  52.830  1.00  0.00    -0.024 C 
HETATM    8  C10 UNL     1      22.445   0.228  53.583  1.00  0.00     0.069 C 
HETATM    9  C11 UNL     1      23.704  -0.580  53.504  1.00  0.00    -0.003 C 
HETATM   10  C12 UNL     1      24.989  -0.281  53.338  1.00  0.00     0.109 C 
HETATM   11  N4  UNL     1      25.592   1.033  53.169  1.00  0.00    -0.276 N 
HETATM   12  N6  UNL     1      24.984   2.148  52.568  1.00  0.00    -0.172 NA
HETATM   13  C18 UNL     1      23.711   2.265  52.458  1.00  0.00     0.085 C 
HETATM   14  C19 UNL     1      23.912   3.558  51.727  1.00  0.00     0.061 C 
HETATM   15  C20 UNL     1      22.941   4.392  51.394  1.00  0.00     0.043 C 
HETATM   16  C21 UNL     1      21.677   4.885  52.158  1.00  0.00     0.118 C 
ENDROOT
BRANCH   1  17
HETATM   17  N1  UNL     1      24.345   4.992  49.734  1.00  0.00    -0.293 N 
HETATM   18  H3  UNL     1      25.108   4.321  49.998  1.00  0.00     0.187 HD
BRANCH  17  19
HETATM   19  C4  UNL     1      24.743   6.184  49.015  1.00  0.00     0.050 A 
HETATM   20  C3  UNL     1      24.442   6.689  47.798  1.00  0.00     0.034 A 
HETATM   21  C2  UNL     1      24.997   7.898  47.403  1.00  0.00     0.046 A 
HETATM   22  C1  UNL     1      25.848   8.578  48.249  1.00  0.00     0.138 A 
HETATM   23  F1  UNL     1      26.341   9.765  47.765  1.00  0.00    -0.204 F 
HETATM   24  C23 UNL     1      26.174   8.085  49.499  1.00  0.00     0.074 A 
HETATM   25  C22 UNL     1      25.608   6.862  49.889  1.00  0.00     0.058 A 
HETATM   26 CL1  UNL     1      27.264   9.059  50.464  1.00  0.00    -0.081 Cl
ENDBRANCH  17  19
ENDBRANCH   1  17
BRANCH  11  27
HETATM   27  C13 UNL     1      26.912   1.131  53.684  1.00  0.00     0.112 C 
HETATM   28  C14 UNL     1      27.731   2.240  53.040  1.00  0.00     0.046 C 
HETATM   29  C15 UNL     1      29.019   2.286  53.851  1.00  0.00     0.115 C 
HETATM   30  N5  UNL     1      29.031   1.363  54.948  1.00  0.00    -0.421 N 
HETATM   31  C16 UNL     1      28.822  -0.009  54.614  1.00  0.00     0.115 C 
HETATM   32  H16 UNL     1      28.552   1.695  55.804  1.00  0.00     0.153 HD
HETATM   33  C17 UNL     1      27.743  -0.126  53.540  1.00  0.00     0.046 C 
ENDBRANCH  11  27
TORSDOF 3
ENDMDL
MODEL 8
REMARK VINA RESULT:      -9.1      3.290      7.336
REMARK  3 active torsions:
REMARK  status: ('A' for Active; 'I' for Inactive)
REMARK    1  A    between atoms: C4_5  and  N1_6 
REMARK    2  A    between atoms: N1_6  and  N2_7 
REMARK    3  A    between atoms: N4_17  and  C13_18 
ROOT
HETATM    1  N2  UNL     1      20.259  -0.114  52.610  1.00  0.00    -0.253 N 
HETATM    2  C5  UNL     1      19.876  -1.361  53.321  1.00  0.00     0.232 C 
HETATM    3  N3  UNL     1      20.482  -1.709  54.496  1.00  0.00    -0.246 NA
HETATM    4  C6  UNL     1      21.662  -0.991  54.845  1.00  0.00     0.041 C 
HETATM    5  C7  UNL     1      22.863  -1.514  54.944  1.00  0.00     0.028 C 
HETATM    6  C8  UNL     1      24.181  -0.908  54.593  1.00  0.00     0.012 C 
HETATM    7  C9  UNL     1      24.522   0.038  53.718  1.00  0.00    -0.024 C 
HETATM    8  C10 UNL     1      25.956  -0.036  53.891  1.00  0.00     0.069 C 
HETATM    9  C11 UNL     1      26.705   0.379  52.661  1.00  0.00    -0.003 C 
HETATM   10  C12 UNL     1      26.450   1.212  51.657  1.00  0.00     0.109 C 
HETATM   11  N4  UNL     1      25.264   2.030  51.447  1.00  0.00    -0.276 N 
HETATM   12  N6  UNL     1      23.961   1.715  51.863  1.00  0.00    -0.172 NA
HETATM   13  C18 UNL     1      23.719   0.882  52.809  1.00  0.00     0.085 C 
HETATM   14  C19 UNL     1      22.251   1.071  52.575  1.00  0.00     0.061 C 
HETATM   15  C20 UNL     1      21.298   0.583  53.351  1.00  0.00     0.043 C 
HETATM   16  C21 UNL     1      21.158   0.480  54.898  1.00  0.00     0.118 C 
ENDROOT
BRANCH   1  17
HETATM   17  N1  UNL     1      20.058   0.645  51.468  1.00  0.00    -0.293 N 
HETATM   18  H3  UNL     1      20.822   1.069  50.886  1.00  0.00     0.187 HD
BRANCH  17  19
HETATM   19  C4  UNL     1      18.699   0.857  51.017  1.00  0.00     0.050 A 
HETATM   20  C3  UNL     1      17.814   0.109  50.322  1.00  0.00     0.034 A 
HETATM   21  C2  UNL     1      16.548   0.613  50.061  1.00  0.00     0.046 A 
HETATM   22  C1  UNL     1      16.197   1.869  50.510  1.00  0.00     0.138 A 
HETATM   23  F1  UNL     1      14.921   2.274  50.201  1.00  0.00    -0.204 F 
HETATM   24  C23 UNL     1      17.082   2.657  51.222  1.00  0.00     0.074 A 
HETATM   25  C22 UNL     1      18.360   2.138  51.481  1.00  0.00     0.058 A 
HETATM   26 CL1  UNL     1      16.496   4.228  51.730  1.00  0.00    -0.081 Cl
ENDBRANCH  17  19
ENDBRANCH   1  17
BRANCH  11  27
HETATM   27  C13 UNL     1      25.520   3.246  50.757  1.00  0.00     0.112 C 
HETATM   28  C14 UNL     1      24.257   3.940  50.267  1.00  0.00     0.046 C 
HETATM   29  C15 UNL     1      24.739   5.282  49.733  1.00  0.00     0.115 C 
HETATM   30  N5  UNL     1      26.147   5.488  49.907  1.00  0.00    -0.421 N 
HETATM   31  C16 UNL     1      27.000   4.501  49.327  1.00  0.00     0.115 C 
HETATM   32  H16 UNL     1      26.427   5.829  50.844  1.00  0.00     0.153 HD
HETATM   33  C17 UNL     1      26.409   3.110  49.540  1.00  0.00     0.046 C 
ENDBRANCH  11  27
TORSDOF 3
ENDMDL
MODEL 9
REMARK VINA RESULT:      -9.1      4.196      7.779
REMARK  3 active torsions:
REMARK  status: ('A' for Active; 'I' for Inactive)
REMARK    1  A    between atoms: C4_5  and  N1_6 
REMARK    2  A    between atoms: N1_6  and  N2_7 
REMARK    3  A    between atoms: N4_17  and  C13_18 
ROOT
HETATM    1  N2  UNL     1      28.943   6.653  47.531  1.00  0.00    -0.253 N 
HETATM    2  C5  UNL     1      28.870   7.685  46.463  1.00  0.00     0.232 C 
HETATM    3  N3  UNL     1      27.890   8.638  46.479  1.00  0.00    -0.246 NA
HETATM    4  C6  UNL     1      26.805   8.427  47.378  1.00  0.00     0.041 C 
HETATM    5  C7  UNL     1      25.557   8.224  47.022  1.00  0.00     0.028 C 
HETATM    6  C8  UNL     1      24.532   7.345  47.656  1.00  0.00     0.012 C 
HETATM    7  C9  UNL     1      24.640   6.236  48.389  1.00  0.00    -0.024 C 
HETATM    8  C10 UNL     1      23.230   5.936  48.508  1.00  0.00     0.069 C 
HETATM    9  C11 UNL     1      22.967   4.472  48.683  1.00  0.00    -0.003 C 
HETATM   10  C12 UNL     1      23.652   3.464  49.214  1.00  0.00     0.109 C 
HETATM   11  N4  UNL     1      24.971   3.499  49.829  1.00  0.00    -0.276 N 
HETATM   12  N6  UNL     1      26.015   4.376  49.493  1.00  0.00    -0.172 NA
HETATM   13  C18 UNL     1      25.813   5.495  48.897  1.00  0.00     0.085 C 
HETATM   14  C19 UNL     1      27.293   5.727  48.870  1.00  0.00     0.061 C 
HETATM   15  C20 UNL     1      27.870   6.855  48.491  1.00  0.00     0.043 C 
HETATM   16  C21 UNL     1      27.522   8.349  48.757  1.00  0.00     0.118 C 
ENDROOT
BRANCH   1  17
HETATM   17  N1  UNL     1      29.605   5.516  47.962  1.00  0.00    -0.293 N 
HETATM   18  H3  UNL     1      29.150   4.586  48.140  1.00  0.00     0.187 HD
BRANCH  17  19
HETATM   19  C4  UNL     1      31.037   5.591  48.164  1.00  0.00     0.050 A 
HETATM   20  C3  UNL     1      31.844   6.429  48.851  1.00  0.00     0.034 A 
HETATM   21  C2  UNL     1      33.214   6.210  48.855  1.00  0.00     0.046 A 
HETATM   22  C1  UNL     1      33.746   5.142  48.161  1.00  0.00     0.138 A 
HETATM   23  F1  UNL     1      35.111   5.012  48.230  1.00  0.00    -0.204 F 
HETATM   24  C23 UNL     1      32.944   4.270  47.448  1.00  0.00     0.074 A 
HETATM   25  C22 UNL     1      31.560   4.500  47.452  1.00  0.00     0.058 A 
HETATM   26 CL1  UNL     1      33.759   2.959  46.620  1.00  0.00    -0.081 Cl
ENDBRANCH  17  19
ENDBRANCH   1  17
BRANCH  11  27
HETATM   27  C13 UNL     1      25.151   2.536  50.859  1.00  0.00     0.112 C 
HETATM   28  C14 UNL     1      24.446   2.903  52.157  1.00  0.00     0.046 C 
HETATM   29  C15 UNL     1      24.611   1.675  53.043  1.00  0.00     0.115 C 
HETATM   30  N5  UNL     1      25.288   0.592  52.391  1.00  0.00    -0.421 N 
HETATM   31  C16 UNL     1      26.586   0.887  51.874  1.00  0.00     0.115 C 
HETATM   32  H16 UNL     1      24.688   0.002  51.788  1.00  0.00     0.153 HD
HETATM   33  C17 UNL     1      26.592   2.275  51.238  1.00  0.00     0.046 C 
ENDBRANCH  11  27
TORSDOF 3
ENDMDL
