MODEL 1
REMARK VINA RESULT:      -9.0      0.000      0.000
REMARK  4 active torsions:
REMARK  status: ('A' for Active; 'I' for Inactive)
REMARK    1  A    between atoms: C10_15  and  N4_16 
REMARK    2  A    between atoms: N4_16  and  C11_17 
REMARK    3  A    between atoms: C11_17  and  C13_19 
REMARK    4  A    between atoms: C13_19  and  C14_20 
ROOT
HETATM    1  C1  UNL     1      29.763  -1.821  53.753  1.00  0.00     0.016 C 
HETATM    2  C2  UNL     1      29.473  -0.583  53.431  1.00  0.00     0.059 C 
HETATM    3  C3  UNL     1      29.069   0.774  53.142  1.00  0.00     0.308 A 
HETATM    4  O1  UNL     1      28.785   1.944  52.846  1.00  0.00    -0.123 OA
HETATM    5  N1  UNL     1      27.896   1.266  53.832  1.00  0.00     0.113 N 
HETATM    6  C4  UNL     1      27.135   2.473  53.894  1.00  0.00     0.288 C 
HETATM    7  C5  UNL     1      25.845   2.459  53.126  1.00  0.00     0.072 C 
HETATM    8  C6  UNL     1      25.118   1.199  53.423  1.00  0.00    -0.025 A 
HETATM    9  C7  UNL     1      25.801   0.314  54.197  1.00  0.00     0.021 A 
HETATM   10  S1  UNL     1      24.723  -1.082  54.423  1.00  0.00    -0.072 SA
HETATM   11  C8  UNL     1      23.371  -0.392  53.440  1.00  0.00     0.114 A 
HETATM   12  N2  UNL     1      22.157  -0.899  53.141  1.00  0.00    -0.234 NA
HETATM   13  C9  UNL     1      21.283  -0.228  52.384  1.00  0.00     0.236 A 
HETATM   14  N3  UNL     1      21.734   0.950  51.981  1.00  0.00    -0.224 NA
HETATM   15  C10 UNL     1      22.914   1.492  52.247  1.00  0.00     0.139 A 
HETATM   16  C20 UNL     1      23.854   0.850  53.018  1.00  0.00     0.053 A 
HETATM   17  C21 UNL     1      27.154   0.406  54.769  1.00  0.00     0.330 C 
ENDROOT
BRANCH  15  18
HETATM   18  N4  UNL     1      23.093   2.763  51.641  1.00  0.00    -0.369 N 
HETATM   19  H9  UNL     1      22.832   3.679  52.050  1.00  0.00     0.161 HD
BRANCH  18  20
HETATM   20  C11 UNL     1      23.683   2.973  50.336  1.00  0.00     0.083 C 
HETATM   21  C12 UNL     1      22.760   2.289  49.321  1.00  0.00     0.032 C 
BRANCH  20  22
HETATM   22  C13 UNL     1      23.838   4.450  50.054  1.00  0.00     0.063 C 
BRANCH  22  23
HETATM   23  C14 UNL     1      25.202   4.774  49.503  1.00  0.00    -0.056 A 
HETATM   24  C15 UNL     1      26.275   3.913  49.407  1.00  0.00     0.007 A 
HETATM   25  C16 UNL     1      27.461   4.374  48.874  1.00  0.00     0.001 A 
HETATM   26  C17 UNL     1      27.623   5.675  48.425  1.00  0.00     0.000 A 
HETATM   27  C18 UNL     1      26.577   6.571  48.501  1.00  0.00     0.001 A 
HETATM   28  C19 UNL     1      25.410   6.078  49.038  1.00  0.00     0.007 A 
ENDBRANCH  22  23
ENDBRANCH  20  22
ENDBRANCH  18  20
ENDBRANCH  15  18
TORSDOF 4
ENDMDL
MODEL 2
REMARK VINA RESULT:      -8.8      1.448      1.941
REMARK  4 active torsions:
REMARK  status: ('A' for Active; 'I' for Inactive)
REMARK    1  A    between atoms: C10_15  and  N4_16 
REMARK    2  A    between atoms: N4_16  and  C11_17 
REMARK    3  A    between atoms: C11_17  and  C13_19 
REMARK    4  A    between atoms: C13_19  and  C14_20 
ROOT
HETATM    1  C1  UNL     1      27.515  -2.438  52.695  1.00  0.00     0.016 C 
HETATM    2  C2  UNL     1      27.506  -1.126  52.677  1.00  0.00     0.059 C 
HETATM    3  C3  UNL     1      27.406   0.314  52.716  1.00  0.00     0.308 A 
HETATM    4  O1  UNL     1      27.387   1.554  52.706  1.00  0.00    -0.123 OA
HETATM    5  N1  UNL     1      26.280   0.871  53.434  1.00  0.00     0.113 N 
HETATM    6  C4  UNL     1      25.764   2.164  53.752  1.00  0.00     0.288 C 
HETATM    7  C5  UNL     1      24.588   2.606  52.927  1.00  0.00     0.072 C 
HETATM    8  C6  UNL     1      23.604   1.497  52.853  1.00  0.00    -0.025 A 
HETATM    9  C7  UNL     1      24.013   0.331  53.420  1.00  0.00     0.021 A 
HETATM   10  S1  UNL     1      22.668  -0.815  53.222  1.00  0.00    -0.072 SA
HETATM   11  C8  UNL     1      21.593   0.358  52.364  1.00  0.00     0.114 A 
HETATM   12  N2  UNL     1      20.345   0.206  51.873  1.00  0.00    -0.234 NA
HETATM   13  C9  UNL     1      19.706   1.207  51.258  1.00  0.00     0.236 A 
HETATM   14  N3  UNL     1      20.417   2.321  51.192  1.00  0.00    -0.224 NA
HETATM   15  C10 UNL     1      21.643   2.521  51.657  1.00  0.00     0.139 A 
HETATM   16  C20 UNL     1      22.350   1.531  52.298  1.00  0.00     0.053 A 
HETATM   17  C21 UNL     1      25.287  -0.005  54.077  1.00  0.00     0.330 C 
ENDROOT
BRANCH  15  18
HETATM   18  N4  UNL     1      22.130   3.830  51.402  1.00  0.00    -0.369 N 
HETATM   19  H9  UNL     1      21.989   4.664  52.002  1.00  0.00     0.161 HD
BRANCH  18  20
HETATM   20  C11 UNL     1      22.915   4.201  50.244  1.00  0.00     0.083 C 
HETATM   21  C12 UNL     1      21.922   4.498  49.116  1.00  0.00     0.032 C 
BRANCH  20  22
HETATM   22  C13 UNL     1      23.791   5.394  50.557  1.00  0.00     0.063 C 
BRANCH  22  23
HETATM   23  C14 UNL     1      25.123   5.307  49.859  1.00  0.00    -0.056 A 
HETATM   24  C15 UNL     1      25.794   6.340  49.240  1.00  0.00     0.007 A 
HETATM   25  C16 UNL     1      27.013   6.088  48.643  1.00  0.00     0.001 A 
HETATM   26  C17 UNL     1      27.598   4.832  48.641  1.00  0.00     0.000 A 
HETATM   27  C18 UNL     1      26.962   3.769  49.249  1.00  0.00     0.001 A 
HETATM   28  C19 UNL     1      25.750   4.056  49.832  1.00  0.00     0.007 A 
ENDBRANCH  22  23
ENDBRANCH  20  22
ENDBRANCH  18  20
ENDBRANCH  15  18
TORSDOF 4
ENDMDL
MODEL 3
REMARK VINA RESULT:      -8.6      3.136      6.443
REMARK  4 active torsions:
REMARK  status: ('A' for Active; 'I' for Inactive)
REMARK    1  A    between atoms: C10_15  and  N4_16 
REMARK    2  A    between atoms: N4_16  and  C11_17 
REMARK    3  A    between atoms: C11_17  and  C13_19 
REMARK    4  A    between atoms: C13_19  and  C14_20 
ROOT
HETATM    1  C1  UNL     1      16.655   3.335  51.575  1.00  0.00     0.016 C 
HETATM    2  C2  UNL     1      17.807   3.322  50.947  1.00  0.00     0.059 C 
HETATM    3  C3  UNL     1      19.080   3.203  50.275  1.00  0.00     0.308 A 
HETATM    4  O1  UNL     1      20.169   3.179  49.683  1.00  0.00    -0.123 OA
HETATM    5  N1  UNL     1      19.667   1.882  50.220  1.00  0.00     0.113 N 
HETATM    6  C4  UNL     1      20.845   1.270  49.693  1.00  0.00     0.288 C 
HETATM    7  C5  UNL     1      21.917   0.965  50.701  1.00  0.00     0.072 C 
HETATM    8  C6  UNL     1      21.299   0.310  51.882  1.00  0.00    -0.025 A 
HETATM    9  C7  UNL     1      19.941   0.240  51.851  1.00  0.00     0.021 A 
HETATM   10  S1  UNL     1      19.453  -0.594  53.343  1.00  0.00    -0.072 SA
HETATM   11  C8  UNL     1      21.141  -0.812  53.954  1.00  0.00     0.114 A 
HETATM   12  N2  UNL     1      21.596  -1.390  55.086  1.00  0.00    -0.234 NA
HETATM   13  C9  UNL     1      22.902  -1.452  55.367  1.00  0.00     0.236 A 
HETATM   14  N3  UNL     1      23.665  -0.902  54.435  1.00  0.00    -0.224 NA
HETATM   15  C10 UNL     1      23.269  -0.325  53.309  1.00  0.00     0.139 A 
HETATM   16  C20 UNL     1      21.940  -0.230  52.967  1.00  0.00     0.053 A 
HETATM   17  C21 UNL     1      18.991   0.729  50.838  1.00  0.00     0.330 C 
ENDROOT
BRANCH  15  18
HETATM   18  N4  UNL     1      24.344   0.188  52.537  1.00  0.00    -0.369 N 
HETATM   19  H9  UNL     1      24.316   0.421  51.527  1.00  0.00     0.161 HD
BRANCH  18  20
HETATM   20  C11 UNL     1      25.665   0.471  53.056  1.00  0.00     0.083 C 
HETATM   21  C12 UNL     1      26.666  -0.094  52.044  1.00  0.00     0.032 C 
BRANCH  20  22
HETATM   22  C13 UNL     1      25.847   1.957  53.265  1.00  0.00     0.063 C 
BRANCH  22  23
HETATM   23  C14 UNL     1      25.030   2.763  52.289  1.00  0.00    -0.056 A 
HETATM   24  C15 UNL     1      25.264   2.899  50.937  1.00  0.00     0.007 A 
HETATM   25  C16 UNL     1      24.413   3.680  50.182  1.00  0.00     0.001 A 
HETATM   26  C17 UNL     1      23.322   4.338  50.728  1.00  0.00     0.000 A 
HETATM   27  C18 UNL     1      23.049   4.230  52.076  1.00  0.00     0.001 A 
HETATM   28  C19 UNL     1      23.918   3.444  52.797  1.00  0.00     0.007 A 
ENDBRANCH  22  23
ENDBRANCH  20  22
ENDBRANCH  18  20
ENDBRANCH  15  18
TORSDOF 4
ENDMDL
MODEL 4
REMARK VINA RESULT:      -8.5      3.689      7.122
REMARK  4 active torsions:
REMARK  status: ('A' for Active; 'I' for Inactive)
REMARK    1  A    between atoms: C10_15  and  N4_16 
REMARK    2  A    between atoms: N4_16  and  C11_17 
REMARK    3  A    between atoms: C11_17  and  C13_19 
REMARK    4  A    between atoms: C13_19  and  C14_20 
ROOT
HETATM    1  C1  UNL     1      16.609   3.326  51.489  1.00  0.00     0.016 C 
HETATM    2  C2  UNL     1      17.760   3.332  50.859  1.00  0.00     0.059 C 
HETATM    3  C3  UNL     1      19.034   3.234  50.185  1.00  0.00     0.308 A 
HETATM    4  O1  UNL     1      20.122   3.226  49.592  1.00  0.00    -0.123 OA
HETATM    5  N1  UNL     1      19.646   1.923  50.135  1.00  0.00     0.113 N 
HETATM    6  C4  UNL     1      20.833   1.331  49.609  1.00  0.00     0.288 C 
HETATM    7  C5  UNL     1      21.912   1.050  50.616  1.00  0.00     0.072 C 
HETATM    8  C6  UNL     1      21.309   0.389  51.801  1.00  0.00    -0.025 A 
HETATM    9  C7  UNL     1      19.953   0.294  51.773  1.00  0.00     0.021 A 
HETATM   10  S1  UNL     1      19.484  -0.542  53.270  1.00  0.00    -0.072 SA
HETATM   11  C8  UNL     1      21.176  -0.727  53.878  1.00  0.00     0.114 A 
HETATM   12  N2  UNL     1      21.644  -1.291  55.012  1.00  0.00    -0.234 NA
HETATM   13  C9  UNL     1      22.951  -1.328  55.290  1.00  0.00     0.236 A 
HETATM   14  N3  UNL     1      23.702  -0.768  54.355  1.00  0.00    -0.224 NA
HETATM   15  C10 UNL     1      23.294  -0.202  53.227  1.00  0.00     0.139 A 
HETATM   16  C20 UNL     1      21.963  -0.134  52.887  1.00  0.00     0.053 A 
HETATM   17  C21 UNL     1      18.992   0.761  50.759  1.00  0.00     0.330 C 
ENDROOT
BRANCH  15  18
HETATM   18  N4  UNL     1      24.358   0.326  52.450  1.00  0.00    -0.369 N 
HETATM   19  H9  UNL     1      24.634   0.017  51.500  1.00  0.00     0.161 HD
BRANCH  18  20
HETATM   20  C11 UNL     1      25.229   1.400  52.877  1.00  0.00     0.083 C 
HETATM   21  C12 UNL     1      24.348   2.641  53.047  1.00  0.00     0.032 C 
BRANCH  20  22
HETATM   22  C13 UNL     1      25.940   1.029  54.159  1.00  0.00     0.063 C 
BRANCH  22  23
HETATM   23  C14 UNL     1      27.300   0.439  53.893  1.00  0.00    -0.056 A 
HETATM   24  C15 UNL     1      28.517   1.053  54.103  1.00  0.00     0.007 A 
HETATM   25  C16 UNL     1      29.677   0.367  53.804  1.00  0.00     0.001 A 
HETATM   26  C17 UNL     1      29.672  -0.924  53.301  1.00  0.00     0.000 A 
HETATM   27  C18 UNL     1      28.478  -1.578  53.076  1.00  0.00     0.001 A 
HETATM   28  C19 UNL     1      27.343  -0.864  53.384  1.00  0.00     0.007 A 
ENDBRANCH  22  23
ENDBRANCH  20  22
ENDBRANCH  18  20
ENDBRANCH  15  18
TORSDOF 4
ENDMDL
MODEL 5
REMARK VINA RESULT:      -8.2      2.219      3.393
REMARK  4 active torsions:
REMARK  status: ('A' for Active; 'I' for Inactive)
REMARK    1  A    between atoms: C10_15  and  N4_16 
REMARK    2  A    between atoms: N4_16  and  C11_17 
REMARK    3  A    between atoms: C11_17  and  C13_19 
REMARK    4  A    between atoms: C13_19  and  C14_20 
ROOT
HETATM    1  C1  UNL     1      26.574  -2.392  51.964  1.00  0.00     0.016 C 
HETATM    2  C2  UNL     1      26.868  -1.135  52.201  1.00  0.00     0.059 C 
HETATM    3  C3  UNL     1      27.102   0.254  52.519  1.00  0.00     0.308 A 
HETATM    4  O1  UNL     1      27.370   1.442  52.751  1.00  0.00    -0.123 OA
HETATM    5  N1  UNL     1      26.115   0.908  53.350  1.00  0.00     0.113 N 
HETATM    6  C4  UNL     1      25.901   2.200  53.920  1.00  0.00     0.288 C 
HETATM    7  C5  UNL     1      24.885   3.053  53.216  1.00  0.00     0.072 C 
HETATM    8  C6  UNL     1      23.674   2.239  52.944  1.00  0.00    -0.025 A 
HETATM    9  C7  UNL     1      23.786   0.923  53.268  1.00  0.00     0.021 A 
HETATM   10  S1  UNL     1      22.219   0.180  52.873  1.00  0.00    -0.072 SA
HETATM   11  C8  UNL     1      21.470   1.713  52.276  1.00  0.00     0.114 A 
HETATM   12  N2  UNL     1      20.235   1.953  51.785  1.00  0.00    -0.234 NA
HETATM   13  C9  UNL     1      19.863   3.173  51.386  1.00  0.00     0.236 A 
HETATM   14  N3  UNL     1      20.814   4.083  51.526  1.00  0.00    -0.224 NA
HETATM   15  C10 UNL     1      22.039   3.900  52.001  1.00  0.00     0.139 A 
HETATM   16  C20 UNL     1      22.479   2.668  52.426  1.00  0.00     0.053 A 
HETATM   17  C21 UNL     1      24.927   0.180  53.827  1.00  0.00     0.330 C 
ENDROOT
BRANCH  15  18
HETATM   18  N4  UNL     1      22.822   5.084  51.997  1.00  0.00    -0.369 N 
HETATM   19  H9  UNL     1      23.167   5.593  52.831  1.00  0.00     0.161 HD
BRANCH  18  20
HETATM   20  C11 UNL     1      23.267   5.768  50.801  1.00  0.00     0.083 C 
HETATM   21  C12 UNL     1      24.054   6.997  51.265  1.00  0.00     0.032 C 
BRANCH  20  22
HETATM   22  C13 UNL     1      24.107   4.847  49.945  1.00  0.00     0.063 C 
BRANCH  22  23
HETATM   23  C14 UNL     1      23.325   4.301  48.779  1.00  0.00    -0.056 A 
HETATM   24  C15 UNL     1      22.751   5.031  47.760  1.00  0.00     0.007 A 
HETATM   25  C16 UNL     1      22.064   4.370  46.762  1.00  0.00     0.001 A 
HETATM   26  C17 UNL     1      21.926   2.991  46.739  1.00  0.00     0.000 A 
HETATM   27  C18 UNL     1      22.484   2.220  47.737  1.00  0.00     0.001 A 
HETATM   28  C19 UNL     1      23.160   2.912  48.715  1.00  0.00     0.007 A 
ENDBRANCH  22  23
ENDBRANCH  20  22
ENDBRANCH  18  20
ENDBRANCH  15  18
TORSDOF 4
ENDMDL
MODEL 6
REMARK VINA RESULT:      -8.1      1.511      2.582
REMARK  4 active torsions:
REMARK  status: ('A' for Active; 'I' for Inactive)
REMARK    1  A    between atoms: C10_15  and  N4_16 
REMARK    2  A    between atoms: N4_16  and  C11_17 
REMARK    3  A    between atoms: C11_17  and  C13_19 
REMARK    4  A    between atoms: C13_19  and  C14_20 
ROOT
HETATM    1  C1  UNL     1      29.226  -2.644  53.411  1.00  0.00     0.016 C 
HETATM    2  C2  UNL     1      29.330  -1.341  53.294  1.00  0.00     0.059 C 
HETATM    3  C3  UNL     1      29.358   0.101  53.229  1.00  0.00     0.308 A 
HETATM    4  O1  UNL     1      29.446   1.334  53.127  1.00  0.00    -0.123 OA
HETATM    5  N1  UNL     1      28.345   0.808  53.982  1.00  0.00     0.113 N 
HETATM    6  C4  UNL     1      27.969   2.162  54.236  1.00  0.00     0.288 C 
HETATM    7  C5  UNL     1      26.776   2.653  53.467  1.00  0.00     0.072 C 
HETATM    8  C6  UNL     1      25.696   1.637  53.549  1.00  0.00    -0.025 A 
HETATM    9  C7  UNL     1      26.046   0.480  54.172  1.00  0.00     0.021 A 
HETATM   10  S1  UNL     1      24.596  -0.548  54.160  1.00  0.00    -0.072 SA
HETATM   11  C8  UNL     1      23.562   0.657  53.294  1.00  0.00     0.114 A 
HETATM   12  N2  UNL     1      22.271   0.587  52.907  1.00  0.00    -0.234 NA
HETATM   13  C9  UNL     1      21.675   1.597  52.265  1.00  0.00     0.236 A 
HETATM   14  N3  UNL     1      22.473   2.634  52.064  1.00  0.00    -0.224 NA
HETATM   15  C10 UNL     1      23.744   2.752  52.423  1.00  0.00     0.139 A 
HETATM   16  C20 UNL     1      24.410   1.747  53.084  1.00  0.00     0.053 A 
HETATM   17  C21 UNL     1      27.333   0.074  54.760  1.00  0.00     0.330 C 
ENDROOT
BRANCH  15  18
HETATM   18  N4  UNL     1      24.321   3.989  52.034  1.00  0.00    -0.369 N 
HETATM   19  H9  UNL     1      25.201   4.397  52.401  1.00  0.00     0.161 HD
BRANCH  18  20
HETATM   20  C11 UNL     1      23.756   4.882  51.044  1.00  0.00     0.083 C 
HETATM   21  C12 UNL     1      23.949   6.306  51.575  1.00  0.00     0.032 C 
BRANCH  20  22
HETATM   22  C13 UNL     1      24.427   4.681  49.704  1.00  0.00     0.063 C 
BRANCH  22  23
HETATM   23  C14 UNL     1      23.474   4.122  48.680  1.00  0.00    -0.056 A 
HETATM   24  C15 UNL     1      23.116   2.799  48.527  1.00  0.00     0.007 A 
HETATM   25  C16 UNL     1      22.225   2.455  47.531  1.00  0.00     0.001 A 
HETATM   26  C17 UNL     1      21.668   3.388  46.671  1.00  0.00     0.000 A 
HETATM   27  C18 UNL     1      21.997   4.723  46.788  1.00  0.00     0.001 A 
HETATM   28  C19 UNL     1      22.887   5.030  47.791  1.00  0.00     0.007 A 
ENDBRANCH  22  23
ENDBRANCH  20  22
ENDBRANCH  18  20
ENDBRANCH  15  18
TORSDOF 4
ENDMDL
MODEL 7
REMARK VINA RESULT:      -8.0      3.661      7.882
REMARK  4 active torsions:
REMARK  status: ('A' for Active; 'I' for Inactive)
REMARK    1  A    between atoms: C10_15  and  N4_16 
REMARK    2  A    between atoms: N4_16  and  C11_17 
REMARK    3  A    between atoms: C11_17  and  C13_19 
REMARK    4  A    between atoms: C13_19  and  C14_20 
ROOT
HETATM    1  C1  UNL     1      18.909   6.582  47.781  1.00  0.00     0.016 C 
HETATM    2  C2  UNL     1      19.102   5.651  48.685  1.00  0.00     0.059 C 
HETATM    3  C3  UNL     1      19.398   4.685  49.717  1.00  0.00     0.308 A 
HETATM    4  O1  UNL     1      19.591   3.812  50.577  1.00  0.00    -0.123 OA
HETATM    5  N1  UNL     1      20.514   4.982  50.589  1.00  0.00     0.113 N 
HETATM    6  C4  UNL     1      21.172   4.382  51.705  1.00  0.00     0.288 C 
HETATM    7  C5  UNL     1      22.473   3.699  51.394  1.00  0.00     0.072 C 
HETATM    8  C6  UNL     1      23.296   4.591  50.538  1.00  0.00    -0.025 A 
HETATM    9  C7  UNL     1      22.674   5.733  50.139  1.00  0.00     0.021 A 
HETATM   10  S1  UNL     1      23.858   6.626  49.159  1.00  0.00    -0.072 SA
HETATM   11  C8  UNL     1      25.166   5.390  49.337  1.00  0.00     0.114 A 
HETATM   12  N2  UNL     1      26.423   5.367  48.846  1.00  0.00    -0.234 NA
HETATM   13  C9  UNL     1      27.253   4.347  49.089  1.00  0.00     0.236 A 
HETATM   14  N3  UNL     1      26.714   3.400  49.840  1.00  0.00    -0.224 NA
HETATM   15  C10 UNL     1      25.489   3.375  50.346  1.00  0.00     0.139 A 
HETATM   16  C20 UNL     1      24.591   4.394  50.131  1.00  0.00     0.053 A 
HETATM   17  C21 UNL     1      21.307   6.209  50.408  1.00  0.00     0.330 C 
ENDROOT
BRANCH  15  18
HETATM   18  N4  UNL     1      25.216   2.198  51.092  1.00  0.00    -0.369 N 
HETATM   19  H9  UNL     1      24.519   1.470  50.853  1.00  0.00     0.161 HD
BRANCH  18  20
HETATM   20  C11 UNL     1      25.889   1.833  52.320  1.00  0.00     0.083 C 
HETATM   21  C12 UNL     1      25.180   2.584  53.451  1.00  0.00     0.032 C 
BRANCH  20  22
HETATM   22  C13 UNL     1      25.849   0.335  52.522  1.00  0.00     0.063 C 
BRANCH  22  23
HETATM   23  C14 UNL     1      27.206  -0.220  52.865  1.00  0.00    -0.056 A 
HETATM   24  C15 UNL     1      27.592  -1.543  52.806  1.00  0.00     0.007 A 
HETATM   25  C16 UNL     1      28.882  -1.884  53.159  1.00  0.00     0.001 A 
HETATM   26  C17 UNL     1      29.816  -0.947  53.572  1.00  0.00     0.000 A 
HETATM   27  C18 UNL     1      29.474   0.388  53.645  1.00  0.00     0.001 A 
HETATM   28  C19 UNL     1      28.181   0.691  53.288  1.00  0.00     0.007 A 
ENDBRANCH  22  23
ENDBRANCH  20  22
ENDBRANCH  18  20
ENDBRANCH  15  18
TORSDOF 4
ENDMDL
MODEL 8
REMARK VINA RESULT:      -7.9      2.895      6.811
REMARK  4 active torsions:
REMARK  status: ('A' for Active; 'I' for Inactive)
REMARK    1  A    between atoms: C10_15  and  N4_16 
REMARK    2  A    between atoms: N4_16  and  C11_17 
REMARK    3  A    between atoms: C11_17  and  C13_19 
REMARK    4  A    between atoms: C13_19  and  C14_20 
ROOT
HETATM    1  C1  UNL     1      20.972   8.052  50.242  1.00  0.00     0.016 C 
HETATM    2  C2  UNL     1      21.972   7.281  49.888  1.00  0.00     0.059 C 
HETATM    3  C3  UNL     1      23.005   6.351  49.493  1.00  0.00     0.308 A 
HETATM    4  O1  UNL     1      23.942   5.612  49.157  1.00  0.00    -0.123 OA
HETATM    5  N1  UNL     1      22.598   4.980  49.274  1.00  0.00     0.113 N 
HETATM    6  C4  UNL     1      23.205   3.746  48.889  1.00  0.00     0.288 C 
HETATM    7  C5  UNL     1      23.462   2.778  50.009  1.00  0.00     0.072 C 
HETATM    8  C6  UNL     1      22.246   2.684  50.856  1.00  0.00    -0.025 A 
HETATM    9  C7  UNL     1      21.249   3.546  50.521  1.00  0.00     0.021 A 
HETATM   10  S1  UNL     1      19.916   3.226  51.654  1.00  0.00    -0.072 SA
HETATM   11  C8  UNL     1      20.785   1.916  52.546  1.00  0.00     0.114 A 
HETATM   12  N2  UNL     1      20.394   1.159  53.593  1.00  0.00    -0.234 NA
HETATM   13  C9  UNL     1      21.193   0.228  54.124  1.00  0.00     0.236 A 
HETATM   14  N3  UNL     1      22.369   0.142  53.522  1.00  0.00    -0.224 NA
HETATM   15  C10 UNL     1      22.801   0.859  52.494  1.00  0.00     0.139 A 
HETATM   16  C20 UNL     1      22.025   1.830  51.906  1.00  0.00     0.053 A 
HETATM   17  C21 UNL     1      21.197   4.568  49.463  1.00  0.00     0.330 C 
ENDROOT
BRANCH  15  18
HETATM   18  N4  UNL     1      24.125   0.531  52.101  1.00  0.00    -0.369 N 
HETATM   19  H9  UNL     1      24.396  -0.066  51.298  1.00  0.00     0.161 HD
BRANCH  18  20
HETATM   20  C11 UNL     1      25.319   0.994  52.776  1.00  0.00     0.083 C 
HETATM   21  C12 UNL     1      24.955   2.319  53.454  1.00  0.00     0.032 C 
BRANCH  20  22
HETATM   22  C13 UNL     1      25.800  -0.037  53.771  1.00  0.00     0.063 C 
BRANCH  22  23
HETATM   23  C14 UNL     1      27.298  -0.196  53.732  1.00  0.00    -0.056 A 
HETATM   24  C15 UNL     1      28.233   0.721  54.162  1.00  0.00     0.007 A 
HETATM   25  C16 UNL     1      29.574   0.417  54.052  1.00  0.00     0.001 A 
HETATM   26  C17 UNL     1      30.027  -0.783  53.527  1.00  0.00     0.000 A 
HETATM   27  C18 UNL     1      29.127  -1.731  53.084  1.00  0.00     0.001 A 
HETATM   28  C19 UNL     1      27.800  -1.393  53.208  1.00  0.00     0.007 A 
ENDBRANCH  22  23
ENDBRANCH  20  22
ENDBRANCH  18  20
ENDBRANCH  15  18
TORSDOF 4
ENDMDL
MODEL 9
REMARK VINA RESULT:      -7.8      3.038      6.194
REMARK  4 active torsions:
REMARK  status: ('A' for Active; 'I' for Inactive)
REMARK    1  A    between atoms: C10_15  and  N4_16 
REMARK    2  A    between atoms: N4_16  and  C11_17 
REMARK    3  A    between atoms: C11_17  and  C13_19 
REMARK    4  A    between atoms: C13_19  and  C14_20 
ROOT
HETATM    1  C1  UNL     1      22.613   7.841  50.253  1.00  0.00     0.016 C 
HETATM    2  C2  UNL     1      23.368   6.811  50.554  1.00  0.00     0.059 C 
HETATM    3  C3  UNL     1      24.139   5.619  50.819  1.00  0.00     0.308 A 
HETATM    4  O1  UNL     1      24.846   4.639  51.096  1.00  0.00    -0.123 OA
HETATM    5  N1  UNL     1      23.742   4.416  50.121  1.00  0.00     0.113 N 
HETATM    6  C4  UNL     1      24.162   3.054  50.038  1.00  0.00     0.288 C 
HETATM    7  C5  UNL     1      23.322   2.074  50.806  1.00  0.00     0.072 C 
HETATM    8  C6  UNL     1      21.888   2.345  50.529  1.00  0.00    -0.025 A 
HETATM    9  C7  UNL     1      21.651   3.448  49.770  1.00  0.00     0.021 A 
HETATM   10  S1  UNL     1      19.887   3.540  49.566  1.00  0.00    -0.072 SA
HETATM   11  C8  UNL     1      19.544   2.054  50.537  1.00  0.00     0.114 A 
HETATM   12  N2  UNL     1      18.372   1.458  50.843  1.00  0.00    -0.234 NA
HETATM   13  C9  UNL     1      18.322   0.349  51.588  1.00  0.00     0.236 A 
HETATM   14  N3  UNL     1      19.515  -0.079  51.972  1.00  0.00    -0.224 NA
HETATM   15  C10 UNL     1      20.691   0.467  51.698  1.00  0.00     0.139 A 
HETATM   16  C20 UNL     1      20.806   1.608  50.938  1.00  0.00     0.053 A 
HETATM   17  C21 UNL     1      22.594   4.423  49.198  1.00  0.00     0.330 C 
ENDROOT
BRANCH  15  18
HETATM   18  N4  UNL     1      21.780  -0.230  52.283  1.00  0.00    -0.369 N 
HETATM   19  H9  UNL     1      22.267  -1.054  51.883  1.00  0.00     0.161 HD
BRANCH  18  20
HETATM   20  C11 UNL     1      22.388   0.114  53.551  1.00  0.00     0.083 C 
HETATM   21  C12 UNL     1      21.316  -0.095  54.624  1.00  0.00     0.032 C 
BRANCH  20  22
HETATM   22  C13 UNL     1      23.613  -0.736  53.800  1.00  0.00     0.063 C 
BRANCH  22  23
HETATM   23  C14 UNL     1      24.869  -0.065  53.309  1.00  0.00    -0.056 A 
HETATM   24  C15 UNL     1      25.859  -0.638  52.539  1.00  0.00     0.007 A 
HETATM   25  C16 UNL     1      26.952   0.122  52.174  1.00  0.00     0.001 A 
HETATM   26  C17 UNL     1      27.098   1.448  52.548  1.00  0.00     0.000 A 
HETATM   27  C18 UNL     1      26.132   2.063  53.318  1.00  0.00     0.001 A 
HETATM   28  C19 UNL     1      25.058   1.276  53.664  1.00  0.00     0.007 A 
ENDBRANCH  22  23
ENDBRANCH  20  22
ENDBRANCH  18  20
ENDBRANCH  15  18
TORSDOF 4
ENDMDL
