MODEL 1
REMARK VINA RESULT:      -6.8      0.000      0.000
REMARK  11 active torsions:
REMARK  status: ('A' for Active; 'I' for Inactive)
REMARK    1  A    between atoms: C2_2  and  O1_3 
REMARK    2  A    between atoms: O1_3  and  C3_4 
REMARK    3  A    between atoms: C3_4  and  C4_6 
REMARK    4  A    between atoms: C4_6  and  C5_7 
REMARK    5  A    between atoms: C4_6  and  C17_24 
REMARK    6  A    between atoms: C6_8  and  C7_9 
REMARK    7  A    between atoms: C7_9  and  O3_10 
REMARK    8  A    between atoms: O3_10  and  C8_11 
REMARK    9  A    between atoms: C12_17  and  O4_18 
REMARK   10  A    between atoms: C14_20  and  O5_21 
REMARK   11  A    between atoms: C17_24  and  N3_25 
ROOT
HETATM    1  O3  UNL     1      23.602   0.987  52.333  1.00  0.00    -0.333 OA
ENDROOT
BRANCH   1   2
HETATM    2  C7  UNL     1      24.386   2.019  52.956  1.00  0.00     0.204 C 
BRANCH   2   3
HETATM    3  C6  UNL     1      25.484   2.484  52.072  1.00  0.00    -0.004 C 
HETATM    4  C5  UNL     1      26.638   1.880  51.982  1.00  0.00    -0.012 C 
BRANCH   4   5
HETATM    5  C4  UNL     1      27.276   0.704  52.577  1.00  0.00     0.135 C 
BRANCH   5   6
HETATM    6  C3  UNL     1      27.518   0.888  54.027  1.00  0.00     0.268 C 
HETATM    7  O2  UNL     1      26.760   1.127  54.994  1.00  0.00    -0.264 OA
BRANCH   6   8
HETATM    8  O1  UNL     1      28.831   0.779  54.425  1.00  0.00    -0.321 OA
BRANCH   8   9
HETATM    9  C2  UNL     1      29.842   0.212  53.645  1.00  0.00     0.174 C 
HETATM   10  C1  UNL     1      29.953  -1.294  53.776  1.00  0.00     0.034 C 
ENDBRANCH   8   9
ENDBRANCH   6   8
ENDBRANCH   5   6
BRANCH   5  11
HETATM   11  C17 UNL     1      26.510  -0.578  52.303  1.00  0.00     0.285 C 
BRANCH  11  12
HETATM   12  N3  UNL     1      26.388  -1.386  53.492  1.00  0.00     0.079 N 
HETATM   13  H22 UNL     1      27.347  -1.449  53.932  1.00  0.00     0.312 HD
HETATM   14  H23 UNL     1      25.794  -0.847  54.173  1.00  0.00     0.312 HD
ENDBRANCH  11  12
ENDBRANCH   5  11
ENDBRANCH   4   5
ENDBRANCH   2   3
ENDBRANCH   1   2
BRANCH   1  15
HETATM   15  C8  UNL     1      22.925   0.089  53.138  1.00  0.00     0.158 C 
HETATM   16  N1  UNL     1      23.436  -0.514  54.153  1.00  0.00    -0.221 NA
HETATM   17  C9  UNL     1      22.739  -1.403  55.011  1.00  0.00     0.235 C 
HETATM   18  N2  UNL     1      21.447  -1.657  54.880  1.00  0.00    -0.245 NA
HETATM   19  C10 UNL     1      20.812  -0.910  53.827  1.00  0.00     0.057 A 
HETATM   20  C11 UNL     1      19.555  -0.652  53.504  1.00  0.00     0.067 A 
HETATM   21  C16 UNL     1      21.571  -0.240  52.791  1.00  0.00     0.174 A 
HETATM   22  C12 UNL     1      19.500   0.212  52.306  1.00  0.00     0.100 A 
HETATM   23  C14 UNL     1      20.746   0.490  51.877  1.00  0.00     0.097 A 
BRANCH  22  24
HETATM   24  O4  UNL     1      18.347   0.700  51.666  1.00  0.00    -0.353 OA
HETATM   25  C13 UNL     1      17.751   0.069  50.558  1.00  0.00     0.210 C 
ENDBRANCH  22  24
BRANCH  23  26
HETATM   26  O5  UNL     1      21.196   1.258  50.821  1.00  0.00    -0.356 OA
HETATM   27  C15 UNL     1      21.345   0.798  49.502  1.00  0.00     0.209 C 
ENDBRANCH  23  26
ENDBRANCH   1  15
TORSDOF 11
ENDMDL
MODEL 2
REMARK VINA RESULT:      -6.5      2.351      3.273
REMARK  11 active torsions:
REMARK  status: ('A' for Active; 'I' for Inactive)
REMARK    1  A    between atoms: C2_2  and  O1_3 
REMARK    2  A    between atoms: O1_3  and  C3_4 
REMARK    3  A    between atoms: C3_4  and  C4_6 
REMARK    4  A    between atoms: C4_6  and  C5_7 
REMARK    5  A    between atoms: C4_6  and  C17_24 
REMARK    6  A    between atoms: C6_8  and  C7_9 
REMARK    7  A    between atoms: C7_9  and  O3_10 
REMARK    8  A    between atoms: O3_10  and  C8_11 
REMARK    9  A    between atoms: C12_17  and  O4_18 
REMARK   10  A    between atoms: C14_20  and  O5_21 
REMARK   11  A    between atoms: C17_24  and  N3_25 
ROOT
HETATM    1  O3  UNL     1      23.065   0.750  51.859  1.00  0.00    -0.333 OA
ENDROOT
BRANCH   1   2
HETATM    2  C7  UNL     1      23.975   1.823  52.159  1.00  0.00     0.204 C 
BRANCH   2   3
HETATM    3  C6  UNL     1      25.333   1.557  51.623  1.00  0.00    -0.004 C 
HETATM    4  C5  UNL     1      26.118   0.623  52.086  1.00  0.00    -0.012 C 
BRANCH   4   5
HETATM    5  C4  UNL     1      26.057  -0.400  53.132  1.00  0.00     0.135 C 
BRANCH   5   6
HETATM    6  C3  UNL     1      26.953  -1.542  52.833  1.00  0.00     0.268 C 
HETATM    7  O2  UNL     1      26.949  -2.416  51.938  1.00  0.00    -0.264 OA
BRANCH   6   8
HETATM    8  O1  UNL     1      28.014  -1.701  53.695  1.00  0.00    -0.321 OA
BRANCH   8   9
HETATM    9  C2  UNL     1      29.353  -1.546  53.328  1.00  0.00     0.174 C 
HETATM   10  C1  UNL     1      29.883  -0.137  53.504  1.00  0.00     0.034 C 
ENDBRANCH   8   9
ENDBRANCH   6   8
ENDBRANCH   5   6
BRANCH   5  11
HETATM   11  C17 UNL     1      26.322   0.162  54.517  1.00  0.00     0.285 C 
BRANCH  11  12
HETATM   12  N3  UNL     1      25.896  -0.751  55.550  1.00  0.00     0.079 N 
HETATM   13  H22 UNL     1      26.468  -1.634  55.447  1.00  0.00     0.312 HD
HETATM   14  H23 UNL     1      26.181  -0.330  56.471  1.00  0.00     0.312 HD
ENDBRANCH  11  12
ENDBRANCH   5  11
ENDBRANCH   4   5
ENDBRANCH   2   3
ENDBRANCH   1   2
BRANCH   1  15
HETATM   15  C8  UNL     1      21.980   1.006  51.040  1.00  0.00     0.158 C 
HETATM   16  N1  UNL     1      22.062   1.404  49.820  1.00  0.00    -0.221 NA
HETATM   17  C9  UNL     1      20.958   1.628  48.958  1.00  0.00     0.235 C 
HETATM   18  N2  UNL     1      19.709   1.384  49.319  1.00  0.00    -0.245 NA
HETATM   19  C10 UNL     1      19.584   0.824  50.639  1.00  0.00     0.057 A 
HETATM   20  C11 UNL     1      18.612   0.213  51.296  1.00  0.00     0.067 A 
HETATM   21  C16 UNL     1      20.666   0.871  51.602  1.00  0.00     0.174 A 
HETATM   22  C12 UNL     1      19.071  -0.174  52.647  1.00  0.00     0.100 A 
HETATM   23  C14 UNL     1      20.349   0.208  52.830  1.00  0.00     0.097 A 
BRANCH  22  24
HETATM   24  O4  UNL     1      18.327  -0.844  53.635  1.00  0.00    -0.353 OA
HETATM   25  C13 UNL     1      17.742  -2.109  53.437  1.00  0.00     0.210 C 
ENDBRANCH  22  24
BRANCH  23  26
HETATM   26  O5  UNL     1      21.201   0.056  53.906  1.00  0.00    -0.356 OA
HETATM   27  C15 UNL     1      21.500  -1.170  54.523  1.00  0.00     0.209 C 
ENDBRANCH  23  26
ENDBRANCH   1  15
TORSDOF 11
ENDMDL
MODEL 3
REMARK VINA RESULT:      -6.5      3.121      4.729
REMARK  11 active torsions:
REMARK  status: ('A' for Active; 'I' for Inactive)
REMARK    1  A    between atoms: C2_2  and  O1_3 
REMARK    2  A    between atoms: O1_3  and  C3_4 
REMARK    3  A    between atoms: C3_4  and  C4_6 
REMARK    4  A    between atoms: C4_6  and  C5_7 
REMARK    5  A    between atoms: C4_6  and  C17_24 
REMARK    6  A    between atoms: C6_8  and  C7_9 
REMARK    7  A    between atoms: C7_9  and  O3_10 
REMARK    8  A    between atoms: O3_10  and  C8_11 
REMARK    9  A    between atoms: C12_17  and  O4_18 
REMARK   10  A    between atoms: C14_20  and  O5_21 
REMARK   11  A    between atoms: C17_24  and  N3_25 
ROOT
HETATM    1  O3  UNL     1      24.032   1.601  51.799  1.00  0.00    -0.333 OA
ENDROOT
BRANCH   1   2
HETATM    2  C7  UNL     1      24.680   1.348  53.058  1.00  0.00     0.204 C 
BRANCH   2   3
HETATM    3  C6  UNL     1      24.500  -0.058  53.496  1.00  0.00    -0.004 C 
HETATM    4  C5  UNL     1      25.427  -0.970  53.384  1.00  0.00    -0.012 C 
BRANCH   4   5
HETATM    5  C4  UNL     1      26.801  -1.038  52.883  1.00  0.00     0.135 C 
BRANCH   5   6
HETATM    6  C3  UNL     1      27.774  -0.534  53.881  1.00  0.00     0.268 C 
HETATM    7  O2  UNL     1      27.781  -0.523  55.132  1.00  0.00    -0.264 OA
BRANCH   6   8
HETATM    8  O1  UNL     1      28.909   0.044  53.361  1.00  0.00    -0.321 OA
BRANCH   8   9
HETATM    9  C2  UNL     1      29.412   1.284  53.761  1.00  0.00     0.174 C 
HETATM   10  C1  UNL     1      28.464   2.442  53.521  1.00  0.00     0.034 C 
ENDBRANCH   8   9
ENDBRANCH   6   8
ENDBRANCH   5   6
BRANCH   5  11
HETATM   11  C17 UNL     1      27.179  -2.426  52.396  1.00  0.00     0.285 C 
BRANCH  11  12
HETATM   12  N3  UNL     1      28.300  -2.958  53.132  1.00  0.00     0.079 N 
HETATM   13  H22 UNL     1      29.049  -2.213  53.149  1.00  0.00     0.312 HD
HETATM   14  H23 UNL     1      27.988  -3.075  54.130  1.00  0.00     0.312 HD
ENDBRANCH  11  12
ENDBRANCH   5  11
ENDBRANCH   4   5
ENDBRANCH   2   3
ENDBRANCH   1   2
BRANCH   1  15
HETATM   15  C8  UNL     1      22.845   2.311  51.793  1.00  0.00     0.158 C 
HETATM   16  N1  UNL     1      21.708   1.842  52.168  1.00  0.00    -0.221 NA
HETATM   17  C9  UNL     1      20.494   2.574  52.208  1.00  0.00     0.235 C 
HETATM   18  N2  UNL     1      20.427   3.862  51.911  1.00  0.00    -0.245 NA
HETATM   19  C10 UNL     1      21.701   4.454  51.599  1.00  0.00     0.057 A 
HETATM   20  C11 UNL     1      22.143   5.696  51.497  1.00  0.00     0.067 A 
HETATM   21  C16 UNL     1      22.866   3.653  51.283  1.00  0.00     0.174 A 
HETATM   22  C12 UNL     1      23.584   5.702  51.168  1.00  0.00     0.100 A 
HETATM   23  C14 UNL     1      24.040   4.440  51.060  1.00  0.00     0.097 A 
BRANCH  22  24
HETATM   24  O4  UNL     1      24.406   6.829  50.983  1.00  0.00    -0.353 OA
HETATM   25  C13 UNL     1      23.912   8.095  50.617  1.00  0.00     0.210 C 
ENDBRANCH  22  24
BRANCH  23  26
HETATM   26  O5  UNL     1      25.301   3.948  50.786  1.00  0.00    -0.356 OA
HETATM   27  C15 UNL     1      25.823   3.756  49.496  1.00  0.00     0.209 C 
ENDBRANCH  23  26
ENDBRANCH   1  15
TORSDOF 11
ENDMDL
MODEL 4
REMARK VINA RESULT:      -6.4      2.143      3.507
REMARK  11 active torsions:
REMARK  status: ('A' for Active; 'I' for Inactive)
REMARK    1  A    between atoms: C2_2  and  O1_3 
REMARK    2  A    between atoms: O1_3  and  C3_4 
REMARK    3  A    between atoms: C3_4  and  C4_6 
REMARK    4  A    between atoms: C4_6  and  C5_7 
REMARK    5  A    between atoms: C4_6  and  C17_24 
REMARK    6  A    between atoms: C6_8  and  C7_9 
REMARK    7  A    between atoms: C7_9  and  O3_10 
REMARK    8  A    between atoms: O3_10  and  C8_11 
REMARK    9  A    between atoms: C12_17  and  O4_18 
REMARK   10  A    between atoms: C14_20  and  O5_21 
REMARK   11  A    between atoms: C17_24  and  N3_25 
ROOT
HETATM    1  O3  UNL     1      23.598   0.960  53.026  1.00  0.00    -0.333 OA
ENDROOT
BRANCH   1   2
HETATM    2  C7  UNL     1      24.519  -0.143  52.974  1.00  0.00     0.204 C 
BRANCH   2   3
HETATM    3  C6  UNL     1      25.340  -0.231  54.207  1.00  0.00    -0.004 C 
HETATM    4  C5  UNL     1      26.623   0.006  54.234  1.00  0.00    -0.012 C 
BRANCH   4   5
HETATM    5  C4  UNL     1      27.657   0.393  53.272  1.00  0.00     0.135 C 
BRANCH   5   6
HETATM    6  C3  UNL     1      27.895   1.855  53.283  1.00  0.00     0.268 C 
HETATM    7  O2  UNL     1      28.218   2.659  54.186  1.00  0.00    -0.264 OA
BRANCH   6   8
HETATM    8  O1  UNL     1      27.738   2.489  52.071  1.00  0.00    -0.321 OA
BRANCH   8   9
HETATM    9  C2  UNL     1      26.579   2.417  51.294  1.00  0.00     0.174 C 
HETATM   10  C1  UNL     1      26.574   3.356  50.104  1.00  0.00     0.034 C 
ENDBRANCH   8   9
ENDBRANCH   6   8
ENDBRANCH   5   6
BRANCH   5  11
HETATM   11  C17 UNL     1      28.951  -0.379  53.461  1.00  0.00     0.285 C 
BRANCH  11  12
HETATM   12  N3  UNL     1      28.723  -1.804  53.461  1.00  0.00     0.079 N 
HETATM   13  H22 UNL     1      29.614  -2.267  53.793  1.00  0.00     0.312 HD
HETATM   14  H23 UNL     1      28.003  -2.001  54.202  1.00  0.00     0.312 HD
ENDBRANCH  11  12
ENDBRANCH   5  11
ENDBRANCH   4   5
ENDBRANCH   2   3
ENDBRANCH   1   2
BRANCH   1  15
HETATM   15  C8  UNL     1      22.768   1.184  51.943  1.00  0.00     0.158 C 
HETATM   16  N1  UNL     1      23.165   1.573  50.783  1.00  0.00    -0.221 NA
HETATM   17  C9  UNL     1      22.329   1.763  49.653  1.00  0.00     0.235 C 
HETATM   18  N2  UNL     1      21.033   1.495  49.671  1.00  0.00    -0.245 NA
HETATM   19  C10 UNL     1      20.570   0.945  50.918  1.00  0.00     0.057 A 
HETATM   20  C11 UNL     1      19.470   0.318  51.299  1.00  0.00     0.067 A 
HETATM   21  C16 UNL     1      21.354   1.025  52.134  1.00  0.00     0.174 A 
HETATM   22  C12 UNL     1      19.558  -0.046  52.729  1.00  0.00     0.100 A 
HETATM   23  C14 UNL     1      20.732   0.367  53.242  1.00  0.00     0.097 A 
BRANCH  22  24
HETATM   24  O4  UNL     1      18.589  -0.723  53.492  1.00  0.00    -0.353 OA
HETATM   25  C13 UNL     1      18.355  -2.107  53.393  1.00  0.00     0.210 C 
ENDBRANCH  22  24
BRANCH  23  26
HETATM   26  O5  UNL     1      21.267   0.244  54.509  1.00  0.00    -0.356 OA
HETATM   27  C15 UNL     1      21.712  -0.961  55.077  1.00  0.00     0.209 C 
ENDBRANCH  23  26
ENDBRANCH   1  15
TORSDOF 11
ENDMDL
MODEL 5
REMARK VINA RESULT:      -6.4      1.954      2.904
REMARK  11 active torsions:
REMARK  status: ('A' for Active; 'I' for Inactive)
REMARK    1  A    between atoms: C2_2  and  O1_3 
REMARK    2  A    between atoms: O1_3  and  C3_4 
REMARK    3  A    between atoms: C3_4  and  C4_6 
REMARK    4  A    between atoms: C4_6  and  C5_7 
REMARK    5  A    between atoms: C4_6  and  C17_24 
REMARK    6  A    between atoms: C6_8  and  C7_9 
REMARK    7  A    between atoms: C7_9  and  O3_10 
REMARK    8  A    between atoms: O3_10  and  C8_11 
REMARK    9  A    between atoms: C12_17  and  O4_18 
REMARK   10  A    between atoms: C14_20  and  O5_21 
REMARK   11  A    between atoms: C17_24  and  N3_25 
ROOT
HETATM    1  O3  UNL     1      23.516   0.648  53.444  1.00  0.00    -0.333 OA
ENDROOT
BRANCH   1   2
HETATM    2  C7  UNL     1      24.684  -0.157  53.209  1.00  0.00     0.204 C 
BRANCH   2   3
HETATM    3  C6  UNL     1      25.553  -0.228  54.410  1.00  0.00    -0.004 C 
HETATM    4  C5  UNL     1      26.835   0.015  54.383  1.00  0.00    -0.012 C 
BRANCH   4   5
HETATM    5  C4  UNL     1      27.829   0.396  53.377  1.00  0.00     0.135 C 
BRANCH   5   6
HETATM    6  C3  UNL     1      28.040   1.862  53.343  1.00  0.00     0.268 C 
HETATM    7  O2  UNL     1      28.398   2.691  54.209  1.00  0.00    -0.264 OA
BRANCH   6   8
HETATM    8  O1  UNL     1      27.803   2.465  52.128  1.00  0.00    -0.321 OA
BRANCH   8   9
HETATM    9  C2  UNL     1      26.568   2.453  51.475  1.00  0.00     0.174 C 
HETATM   10  C1  UNL     1      26.571   3.159  50.134  1.00  0.00     0.034 C 
ENDBRANCH   8   9
ENDBRANCH   6   8
ENDBRANCH   5   6
BRANCH   5  11
HETATM   11  C17 UNL     1      29.143  -0.348  53.541  1.00  0.00     0.285 C 
BRANCH  11  12
HETATM   12  N3  UNL     1      30.274   0.529  53.355  1.00  0.00     0.079 N 
HETATM   13  H22 UNL     1      30.165   1.334  54.031  1.00  0.00     0.312 HD
HETATM   14  H23 UNL     1      31.128   0.002  53.670  1.00  0.00     0.312 HD
ENDBRANCH  11  12
ENDBRANCH   5  11
ENDBRANCH   4   5
ENDBRANCH   2   3
ENDBRANCH   1   2
BRANCH   1  15
HETATM   15  C8  UNL     1      22.275   0.036  53.445  1.00  0.00     0.158 C 
HETATM   16  N1  UNL     1      21.911  -0.881  54.270  1.00  0.00    -0.221 NA
HETATM   17  C9  UNL     1      20.628  -1.483  54.308  1.00  0.00     0.235 C 
HETATM   18  N2  UNL     1      19.638  -1.106  53.515  1.00  0.00    -0.245 NA
HETATM   19  C10 UNL     1      19.970   0.000  52.656  1.00  0.00     0.057 A 
HETATM   20  C11 UNL     1      19.265   0.840  51.917  1.00  0.00     0.067 A 
HETATM   21  C16 UNL     1      21.340   0.409  52.421  1.00  0.00     0.174 A 
HETATM   22  C12 UNL     1      20.160   1.811  51.251  1.00  0.00     0.100 A 
HETATM   23  C14 UNL     1      21.441   1.563  51.581  1.00  0.00     0.097 A 
BRANCH  22  24
HETATM   24  O4  UNL     1      19.783   2.858  50.391  1.00  0.00    -0.353 OA
HETATM   25  C13 UNL     1      19.366   4.122  50.848  1.00  0.00     0.210 C 
ENDBRANCH  22  24
BRANCH  23  26
HETATM   26  O5  UNL     1      22.613   2.200  51.225  1.00  0.00    -0.356 OA
HETATM   27  C15 UNL     1      22.965   3.504  51.610  1.00  0.00     0.209 C 
ENDBRANCH  23  26
ENDBRANCH   1  15
TORSDOF 11
ENDMDL
MODEL 6
REMARK VINA RESULT:      -6.3      3.647      5.721
REMARK  11 active torsions:
REMARK  status: ('A' for Active; 'I' for Inactive)
REMARK    1  A    between atoms: C2_2  and  O1_3 
REMARK    2  A    between atoms: O1_3  and  C3_4 
REMARK    3  A    between atoms: C3_4  and  C4_6 
REMARK    4  A    between atoms: C4_6  and  C5_7 
REMARK    5  A    between atoms: C4_6  and  C17_24 
REMARK    6  A    between atoms: C6_8  and  C7_9 
REMARK    7  A    between atoms: C7_9  and  O3_10 
REMARK    8  A    between atoms: O3_10  and  C8_11 
REMARK    9  A    between atoms: C12_17  and  O4_18 
REMARK   10  A    between atoms: C14_20  and  O5_21 
REMARK   11  A    between atoms: C17_24  and  N3_25 
ROOT
HETATM    1  O3  UNL     1      26.147   2.739  51.842  1.00  0.00    -0.333 OA
ENDROOT
BRANCH   1   2
HETATM    2  C7  UNL     1      26.711   2.985  50.542  1.00  0.00     0.204 C 
BRANCH   2   3
HETATM    3  C6  UNL     1      25.659   3.228  49.524  1.00  0.00    -0.004 C 
HETATM    4  C5  UNL     1      25.001   4.351  49.425  1.00  0.00    -0.012 C 
BRANCH   4   5
HETATM    5  C4  UNL     1      24.982   5.641  50.118  1.00  0.00     0.135 C 
BRANCH   5   6
HETATM    6  C3  UNL     1      25.017   6.775  49.164  1.00  0.00     0.268 C 
HETATM    7  O2  UNL     1      24.274   7.768  48.994  1.00  0.00    -0.264 OA
BRANCH   6   8
HETATM    8  O1  UNL     1      26.065   6.764  48.272  1.00  0.00    -0.321 OA
BRANCH   8   9
HETATM    9  C2  UNL     1      27.404   6.932  48.633  1.00  0.00     0.174 C 
HETATM   10  C1  UNL     1      28.288   5.749  48.295  1.00  0.00     0.034 C 
ENDBRANCH   8   9
ENDBRANCH   6   8
ENDBRANCH   5   6
BRANCH   5  11
HETATM   11  C17 UNL     1      23.819   5.769  51.086  1.00  0.00     0.285 C 
BRANCH  11  12
HETATM   12  N3  UNL     1      24.021   4.963  52.265  1.00  0.00     0.079 N 
HETATM   13  H22 UNL     1      24.659   4.164  51.997  1.00  0.00     0.312 HD
HETATM   14  H23 UNL     1      24.565   5.548  52.950  1.00  0.00     0.312 HD
ENDBRANCH  11  12
ENDBRANCH   5  11
ENDBRANCH   4   5
ENDBRANCH   2   3
ENDBRANCH   1   2
BRANCH   1  15
HETATM   15  C8  UNL     1      26.430   1.541  52.473  1.00  0.00     0.158 C 
HETATM   16  N1  UNL     1      27.610   1.139  52.788  1.00  0.00    -0.221 NA
HETATM   17  C9  UNL     1      27.908  -0.065  53.475  1.00  0.00     0.235 C 
HETATM   18  N2  UNL     1      26.968  -0.883  53.921  1.00  0.00    -0.245 NA
HETATM   19  C10 UNL     1      25.628  -0.410  53.693  1.00  0.00     0.057 A 
HETATM   20  C11 UNL     1      24.438  -0.743  54.163  1.00  0.00     0.067 A 
HETATM   21  C16 UNL     1      25.336   0.654  52.754  1.00  0.00     0.174 A 
HETATM   22  C12 UNL     1      23.394   0.123  53.575  1.00  0.00     0.100 A 
HETATM   23  C14 UNL     1      23.949   1.005  52.723  1.00  0.00     0.097 A 
BRANCH  22  24
HETATM   24  O4  UNL     1      22.012   0.078  53.832  1.00  0.00    -0.353 OA
HETATM   25  C13 UNL     1      21.407  -0.905  54.638  1.00  0.00     0.210 C 
ENDBRANCH  22  24
BRANCH  23  26
HETATM   26  O5  UNL     1      23.390   2.010  51.959  1.00  0.00    -0.356 OA
HETATM   27  C15 UNL     1      22.577   1.803  50.832  1.00  0.00     0.209 C 
ENDBRANCH  23  26
ENDBRANCH   1  15
TORSDOF 11
ENDMDL
MODEL 7
REMARK VINA RESULT:      -6.2      4.083      6.156
REMARK  11 active torsions:
REMARK  status: ('A' for Active; 'I' for Inactive)
REMARK    1  A    between atoms: C2_2  and  O1_3 
REMARK    2  A    between atoms: O1_3  and  C3_4 
REMARK    3  A    between atoms: C3_4  and  C4_6 
REMARK    4  A    between atoms: C4_6  and  C5_7 
REMARK    5  A    between atoms: C4_6  and  C17_24 
REMARK    6  A    between atoms: C6_8  and  C7_9 
REMARK    7  A    between atoms: C7_9  and  O3_10 
REMARK    8  A    between atoms: O3_10  and  C8_11 
REMARK    9  A    between atoms: C12_17  and  O4_18 
REMARK   10  A    between atoms: C14_20  and  O5_21 
REMARK   11  A    between atoms: C17_24  and  N3_25 
ROOT
HETATM    1  O3  UNL     1      25.395   2.880  50.525  1.00  0.00    -0.333 OA
ENDROOT
BRANCH   1   2
HETATM    2  C7  UNL     1      26.144   2.047  51.427  1.00  0.00     0.204 C 
BRANCH   2   3
HETATM    3  C6  UNL     1      25.731   2.253  52.837  1.00  0.00    -0.004 C 
HETATM    4  C5  UNL     1      25.399   1.277  53.638  1.00  0.00    -0.012 C 
BRANCH   4   5
HETATM    5  C4  UNL     1      25.297  -0.182  53.557  1.00  0.00     0.135 C 
BRANCH   5   6
HETATM    6  C3  UNL     1      26.610  -0.835  53.772  1.00  0.00     0.268 C 
HETATM    7  O2  UNL     1      27.164  -1.827  53.247  1.00  0.00    -0.264 OA
BRANCH   6   8
HETATM    8  O1  UNL     1      27.405  -0.260  54.737  1.00  0.00    -0.321 OA
BRANCH   8   9
HETATM    9  C2  UNL     1      28.781  -0.059  54.601  1.00  0.00     0.174 C 
HETATM   10  C1  UNL     1      29.158   1.322  54.103  1.00  0.00     0.034 C 
ENDBRANCH   8   9
ENDBRANCH   6   8
ENDBRANCH   5   6
BRANCH   5  11
HETATM   11  C17 UNL     1      24.240  -0.747  54.490  1.00  0.00     0.285 C 
BRANCH  11  12
HETATM   12  N3  UNL     1      24.835  -1.415  55.622  1.00  0.00     0.079 N 
HETATM   13  H22 UNL     1      24.312  -1.101  56.485  1.00  0.00     0.312 HD
HETATM   14  H23 UNL     1      24.629  -2.441  55.518  1.00  0.00     0.312 HD
ENDBRANCH  11  12
ENDBRANCH   5  11
ENDBRANCH   4   5
ENDBRANCH   2   3
ENDBRANCH   1   2
BRANCH   1  15
HETATM   15  C8  UNL     1      26.020   3.975  49.957  1.00  0.00     0.158 C 
HETATM   16  N1  UNL     1      27.067   3.916  49.212  1.00  0.00    -0.221 NA
HETATM   17  C9  UNL     1      27.690   5.027  48.588  1.00  0.00     0.235 C 
HETATM   18  N2  UNL     1      27.205   6.255  48.667  1.00  0.00    -0.245 NA
HETATM   19  C10 UNL     1      25.966   6.345  49.394  1.00  0.00     0.057 A 
HETATM   20  C11 UNL     1      25.027   7.270  49.511  1.00  0.00     0.067 A 
HETATM   21  C16 UNL     1      25.500   5.279  50.257  1.00  0.00     0.174 A 
HETATM   22  C12 UNL     1      23.945   6.792  50.396  1.00  0.00     0.100 A 
HETATM   23  C14 UNL     1      24.221   5.551  50.840  1.00  0.00     0.097 A 
BRANCH  22  24
HETATM   24  O4  UNL     1      22.777   7.487  50.757  1.00  0.00    -0.353 OA
HETATM   25  C13 UNL     1      21.748   7.796  49.847  1.00  0.00     0.210 C 
ENDBRANCH  22  24
BRANCH  23  26
HETATM   26  O5  UNL     1      23.513   4.699  51.664  1.00  0.00    -0.356 OA
HETATM   27  C15 UNL     1      22.228   4.203  51.390  1.00  0.00     0.209 C 
ENDBRANCH  23  26
ENDBRANCH   1  15
TORSDOF 11
ENDMDL
MODEL 8
REMARK VINA RESULT:      -6.0      1.829      2.596
REMARK  11 active torsions:
REMARK  status: ('A' for Active; 'I' for Inactive)
REMARK    1  A    between atoms: C2_2  and  O1_3 
REMARK    2  A    between atoms: O1_3  and  C3_4 
REMARK    3  A    between atoms: C3_4  and  C4_6 
REMARK    4  A    between atoms: C4_6  and  C5_7 
REMARK    5  A    between atoms: C4_6  and  C17_24 
REMARK    6  A    between atoms: C6_8  and  C7_9 
REMARK    7  A    between atoms: C7_9  and  O3_10 
REMARK    8  A    between atoms: O3_10  and  C8_11 
REMARK    9  A    between atoms: C12_17  and  O4_18 
REMARK   10  A    between atoms: C14_20  and  O5_21 
REMARK   11  A    between atoms: C17_24  and  N3_25 
ROOT
HETATM    1  O3  UNL     1      23.023   0.699  53.433  1.00  0.00    -0.333 OA
ENDROOT
BRANCH   1   2
HETATM    2  C7  UNL     1      24.189  -0.049  53.046  1.00  0.00     0.204 C 
BRANCH   2   3
HETATM    3  C6  UNL     1      25.026  -0.407  54.218  1.00  0.00    -0.004 C 
HETATM    4  C5  UNL     1      26.275  -0.774  54.124  1.00  0.00    -0.012 C 
BRANCH   4   5
HETATM    5  C4  UNL     1      27.252  -0.968  53.050  1.00  0.00     0.135 C 
BRANCH   5   6
HETATM    6  C3  UNL     1      28.621  -0.601  53.482  1.00  0.00     0.268 C 
HETATM    7  O2  UNL     1      29.758  -0.915  53.066  1.00  0.00    -0.264 OA
BRANCH   6   8
HETATM    8  O1  UNL     1      28.691   0.258  54.556  1.00  0.00    -0.321 OA
BRANCH   8   9
HETATM    9  C2  UNL     1      29.349   1.490  54.533  1.00  0.00     0.174 C 
HETATM   10  C1  UNL     1      28.685   2.530  53.654  1.00  0.00     0.034 C 
ENDBRANCH   8   9
ENDBRANCH   6   8
ENDBRANCH   5   6
BRANCH   5  11
HETATM   11  C17 UNL     1      27.213  -2.370  52.470  1.00  0.00     0.285 C 
BRANCH  11  12
HETATM   12  N3  UNL     1      28.163  -3.239  53.122  1.00  0.00     0.079 N 
HETATM   13  H22 UNL     1      27.634  -4.092  53.455  1.00  0.00     0.312 HD
HETATM   14  H23 UNL     1      28.826  -3.583  52.381  1.00  0.00     0.312 HD
ENDBRANCH  11  12
ENDBRANCH   5  11
ENDBRANCH   4   5
ENDBRANCH   2   3
ENDBRANCH   1   2
BRANCH   1  15
HETATM   15  C8  UNL     1      21.777   0.119  53.274  1.00  0.00     0.158 C 
HETATM   16  N1  UNL     1      21.266  -0.748  54.074  1.00  0.00    -0.221 NA
HETATM   17  C9  UNL     1      19.973  -1.316  53.945  1.00  0.00     0.235 C 
HETATM   18  N2  UNL     1      19.124  -0.952  52.997  1.00  0.00    -0.245 NA
HETATM   19  C10 UNL     1      19.615   0.103  52.151  1.00  0.00     0.057 A 
HETATM   20  C11 UNL     1      19.055   0.925  51.279  1.00  0.00     0.067 A 
HETATM   21  C16 UNL     1      21.017   0.466  52.107  1.00  0.00     0.174 A 
HETATM   22  C12 UNL     1      20.069   1.840  50.714  1.00  0.00     0.100 A 
HETATM   23  C14 UNL     1      21.278   1.576  51.242  1.00  0.00     0.097 A 
BRANCH  22  24
HETATM   24  O4  UNL     1      19.857   2.854  49.762  1.00  0.00    -0.353 OA
HETATM   25  C13 UNL     1      18.954   2.732  48.690  1.00  0.00     0.210 C 
ENDBRANCH  22  24
BRANCH  23  26
HETATM   26  O5  UNL     1      22.510   2.167  51.039  1.00  0.00    -0.356 OA
HETATM   27  C15 UNL     1      22.851   3.468  51.442  1.00  0.00     0.209 C 
ENDBRANCH  23  26
ENDBRANCH   1  15
TORSDOF 11
ENDMDL
MODEL 9
REMARK VINA RESULT:      -6.0      3.389      4.697
REMARK  11 active torsions:
REMARK  status: ('A' for Active; 'I' for Inactive)
REMARK    1  A    between atoms: C2_2  and  O1_3 
REMARK    2  A    between atoms: O1_3  and  C3_4 
REMARK    3  A    between atoms: C3_4  and  C4_6 
REMARK    4  A    between atoms: C4_6  and  C5_7 
REMARK    5  A    between atoms: C4_6  and  C17_24 
REMARK    6  A    between atoms: C6_8  and  C7_9 
REMARK    7  A    between atoms: C7_9  and  O3_10 
REMARK    8  A    between atoms: O3_10  and  C8_11 
REMARK    9  A    between atoms: C12_17  and  O4_18 
REMARK   10  A    between atoms: C14_20  and  O5_21 
REMARK   11  A    between atoms: C17_24  and  N3_25 
ROOT
HETATM    1  O3  UNL     1      25.224   2.937  50.215  1.00  0.00    -0.333 OA
ENDROOT
BRANCH   1   2
HETATM    2  C7  UNL     1      26.379   2.382  50.870  1.00  0.00     0.204 C 
BRANCH   2   3
HETATM    3  C6  UNL     1      26.265   2.466  52.348  1.00  0.00    -0.004 C 
HETATM    4  C5  UNL     1      25.928   1.455  53.101  1.00  0.00    -0.012 C 
BRANCH   4   5
HETATM    5  C4  UNL     1      25.576   0.047  52.902  1.00  0.00     0.135 C 
BRANCH   5   6
HETATM    6  C3  UNL     1      26.648  -0.858  53.379  1.00  0.00     0.268 C 
HETATM    7  O2  UNL     1      27.002  -2.011  53.044  1.00  0.00    -0.264 OA
BRANCH   6   8
HETATM    8  O1  UNL     1      27.431  -0.361  54.396  1.00  0.00    -0.321 OA
BRANCH   8   9
HETATM    9  C2  UNL     1      28.827  -0.416  54.409  1.00  0.00     0.174 C 
HETATM   10  C1  UNL     1      29.495   0.620  53.527  1.00  0.00     0.034 C 
ENDBRANCH   8   9
ENDBRANCH   6   8
ENDBRANCH   5   6
BRANCH   5  11
HETATM   11  C17 UNL     1      24.235  -0.313  53.516  1.00  0.00     0.285 C 
BRANCH  11  12
HETATM   12  N3  UNL     1      24.397  -0.998  54.776  1.00  0.00     0.079 N 
HETATM   13  H22 UNL     1      23.758  -0.529  55.475  1.00  0.00     0.312 HD
HETATM   14  H23 UNL     1      24.018  -1.972  54.649  1.00  0.00     0.312 HD
ENDBRANCH  11  12
ENDBRANCH   5  11
ENDBRANCH   4   5
ENDBRANCH   2   3
ENDBRANCH   1   2
BRANCH   1  15
HETATM   15  C8  UNL     1      24.892   4.257  50.459  1.00  0.00     0.158 C 
HETATM   16  N1  UNL     1      25.596   5.269  50.094  1.00  0.00    -0.221 NA
HETATM   17  C9  UNL     1      25.242   6.627  50.300  1.00  0.00     0.235 C 
HETATM   18  N2  UNL     1      24.095   6.992  50.849  1.00  0.00    -0.245 NA
HETATM   19  C10 UNL     1      23.225   5.889  51.164  1.00  0.00     0.057 A 
HETATM   20  C11 UNL     1      21.944   5.781  51.472  1.00  0.00     0.067 A 
HETATM   21  C16 UNL     1      23.703   4.522  51.219  1.00  0.00     0.174 A 
HETATM   22  C12 UNL     1      21.583   4.362  51.675  1.00  0.00     0.100 A 
HETATM   23  C14 UNL     1      22.663   3.579  51.495  1.00  0.00     0.097 A 
BRANCH  22  24
HETATM   24  O4  UNL     1      20.317   3.849  52.010  1.00  0.00    -0.353 OA
HETATM   25  C13 UNL     1      19.222   3.855  51.124  1.00  0.00     0.210 C 
ENDBRANCH  22  24
BRANCH  23  26
HETATM   26  O5  UNL     1      22.815   2.208  51.562  1.00  0.00    -0.356 OA
HETATM   27  C15 UNL     1      22.245   1.294  50.661  1.00  0.00     0.209 C 
ENDBRANCH  23  26
ENDBRANCH   1  15
TORSDOF 11
ENDMDL
