MODEL 1
REMARK VINA RESULT:      -8.5      0.000      0.000
REMARK  5 active torsions:
REMARK  status: ('A' for Active; 'I' for Inactive)
REMARK    1  A    between atoms: C1_2  and  C2_5 
REMARK    2  A    between atoms: C6_9  and  N1_10 
REMARK    3  A    between atoms: C9_13  and  C10_14 
REMARK    4  A    between atoms: C10_14  and  C11_15 
REMARK    5  A    between atoms: C11_15  and  C12_16 
ROOT
HETATM    1  N1  UNL     1      23.432   1.652  51.936  1.00  0.00    -0.214 NA
HETATM    2  C7  UNL     1      24.454   2.633  52.221  1.00  0.00     0.145 C 
HETATM    3  C8  UNL     1      25.020   3.191  50.957  1.00  0.00     0.029 C 
HETATM    4  C9  UNL     1      25.092   4.314  50.267  1.00  0.00     0.083 C 
HETATM    5  N2  UNL     1      24.286   5.025  51.043  1.00  0.00    -0.404 NA
HETATM    6  C18 UNL     1      23.619   5.712  51.723  1.00  0.00     0.300 C 
HETATM    7  N3  UNL     1      22.407   5.109  52.218  1.00  0.00    -0.225 NA
HETATM    8  C19 UNL     1      22.172   3.839  51.972  1.00  0.00     0.221 C 
HETATM    9  N4  UNL     1      22.337   2.481  51.477  1.00  0.00    -0.312 N 
HETATM   10  H19 UNL     1      21.538   2.392  50.826  1.00  0.00     0.181 HD
ENDROOT
BRANCH   1  11
HETATM   11  C6  UNL     1      22.929   1.062  53.129  1.00  0.00     0.140 A 
HETATM   12  C2  UNL     1      23.607  -0.121  53.653  1.00  0.00     0.048 A 
HETATM   13  C3  UNL     1      22.656  -1.080  53.691  1.00  0.00     0.013 A 
HETATM   14  C4  UNL     1      21.345  -0.654  53.229  1.00  0.00    -0.001 A 
HETATM   15  C5  UNL     1      21.536   0.610  52.905  1.00  0.00    -0.001 A 
BRANCH  12  16
HETATM   16  C1  UNL     1      24.961  -0.526  54.118  1.00  0.00     0.415 C 
HETATM   17  F1  UNL     1      24.860  -1.311  55.254  1.00  0.00    -0.166 F 
HETATM   18  F2  UNL     1      25.644  -1.203  53.114  1.00  0.00    -0.166 F 
HETATM   19  F3  UNL     1      25.737   0.541  54.458  1.00  0.00    -0.166 F 
ENDBRANCH  12  16
ENDBRANCH   1  11
BRANCH   4  20
HETATM   20  C10 UNL     1      25.663   4.864  49.015  1.00  0.00     0.077 C 
BRANCH  20  21
HETATM   21  C11 UNL     1      27.139   4.522  49.047  1.00  0.00     0.045 C 
BRANCH  21  22
HETATM   22  C12 UNL     1      28.004   5.521  48.412  1.00  0.00    -0.058 A 
HETATM   23  C13 UNL     1      29.358   5.435  48.158  1.00  0.00     0.007 A 
HETATM   24  C14 UNL     1      30.053   6.455  47.556  1.00  0.00     0.001 A 
HETATM   25  C15 UNL     1      29.357   7.600  47.198  1.00  0.00     0.000 A 
HETATM   26  C16 UNL     1      28.011   7.744  47.425  1.00  0.00     0.001 A 
HETATM   27  C17 UNL     1      27.340   6.684  48.040  1.00  0.00     0.007 A 
ENDBRANCH  21  22
ENDBRANCH  20  21
ENDBRANCH   4  20
TORSDOF 5
ENDMDL
MODEL 2
REMARK VINA RESULT:      -8.5      1.800      2.700
REMARK  5 active torsions:
REMARK  status: ('A' for Active; 'I' for Inactive)
REMARK    1  A    between atoms: C1_2  and  C2_5 
REMARK    2  A    between atoms: C6_9  and  N1_10 
REMARK    3  A    between atoms: C9_13  and  C10_14 
REMARK    4  A    between atoms: C10_14  and  C11_15 
REMARK    5  A    between atoms: C11_15  and  C12_16 
ROOT
HETATM    1  N1  UNL     1      21.535   1.499  51.715  1.00  0.00    -0.214 NA
HETATM    2  C7  UNL     1      22.677   1.888  52.510  1.00  0.00     0.145 C 
HETATM    3  C8  UNL     1      23.873   2.113  51.644  1.00  0.00     0.029 C 
HETATM    4  C9  UNL     1      24.687   3.069  51.238  1.00  0.00     0.083 C 
HETATM    5  N2  UNL     1      24.035   4.077  51.801  1.00  0.00    -0.404 NA
HETATM    6  C18 UNL     1      23.524   4.998  52.320  1.00  0.00     0.300 C 
HETATM    7  N3  UNL     1      22.084   5.034  52.246  1.00  0.00    -0.225 NA
HETATM    8  C19 UNL     1      21.442   4.021  51.707  1.00  0.00     0.221 C 
HETATM    9  N4  UNL     1      21.183   2.742  51.063  1.00  0.00    -0.312 N 
HETATM   10  H19 UNL     1      20.750   3.037  50.171  1.00  0.00     0.181 HD
ENDROOT
BRANCH   1  11
HETATM   11  C6  UNL     1      20.405   1.216  52.532  1.00  0.00     0.140 A 
HETATM   12  C2  UNL     1      20.370  -0.058  53.245  1.00  0.00     0.048 A 
HETATM   13  C3  UNL     1      19.246  -0.670  52.811  1.00  0.00     0.013 A 
HETATM   14  C4  UNL     1      18.479   0.088  51.837  1.00  0.00    -0.001 A 
HETATM   15  C5  UNL     1      19.184   1.193  51.692  1.00  0.00    -0.001 A 
BRANCH  12  16
HETATM   16  C1  UNL     1      21.179  -0.810  54.242  1.00  0.00     0.415 C 
HETATM   17  F1  UNL     1      22.376  -1.216  53.676  1.00  0.00    -0.166 F 
HETATM   18  F2  UNL     1      21.410  -0.037  55.373  1.00  0.00    -0.166 F 
HETATM   19  F3  UNL     1      20.556  -1.943  54.672  1.00  0.00    -0.166 F 
ENDBRANCH  12  16
ENDBRANCH   1  11
BRANCH   4  20
HETATM   20  C10 UNL     1      25.879   3.285  50.384  1.00  0.00     0.077 C 
BRANCH  20  21
HETATM   21  C11 UNL     1      25.446   4.261  49.308  1.00  0.00     0.045 C 
BRANCH  21  22
HETATM   22  C12 UNL     1      26.469   5.245  48.940  1.00  0.00    -0.058 A 
HETATM   23  C13 UNL     1      26.336   6.617  48.852  1.00  0.00     0.007 A 
HETATM   24  C14 UNL     1      27.382   7.429  48.489  1.00  0.00     0.001 A 
HETATM   25  C15 UNL     1      28.603   6.836  48.205  1.00  0.00     0.000 A 
HETATM   26  C16 UNL     1      28.796   5.478  48.275  1.00  0.00     0.001 A 
HETATM   27  C17 UNL     1      27.707   4.687  48.648  1.00  0.00     0.007 A 
ENDBRANCH  21  22
ENDBRANCH  20  21
ENDBRANCH   4  20
TORSDOF 5
ENDMDL
MODEL 3
REMARK VINA RESULT:      -8.5      2.463      3.518
REMARK  5 active torsions:
REMARK  status: ('A' for Active; 'I' for Inactive)
REMARK    1  A    between atoms: C1_2  and  C2_5 
REMARK    2  A    between atoms: C6_9  and  N1_10 
REMARK    3  A    between atoms: C9_13  and  C10_14 
REMARK    4  A    between atoms: C10_14  and  C11_15 
REMARK    5  A    between atoms: C11_15  and  C12_16 
ROOT
HETATM    1  N1  UNL     1      26.543   0.624  51.798  1.00  0.00    -0.214 NA
HETATM    2  C7  UNL     1      26.680   2.030  52.100  1.00  0.00     0.145 C 
HETATM    3  C8  UNL     1      26.395   2.862  50.893  1.00  0.00     0.029 C 
HETATM    4  C9  UNL     1      25.529   3.742  50.429  1.00  0.00     0.083 C 
HETATM    5  N2  UNL     1      24.679   3.674  51.444  1.00  0.00    -0.404 NA
HETATM    6  C18 UNL     1      23.920   3.689  52.340  1.00  0.00     0.300 C 
HETATM    7  N3  UNL     1      23.590   2.400  52.896  1.00  0.00    -0.225 NA
HETATM    8  C19 UNL     1      24.208   1.329  52.451  1.00  0.00     0.221 C 
HETATM    9  N4  UNL     1      25.107   0.478  51.686  1.00  0.00    -0.312 N 
HETATM   10  H19 UNL     1      24.442  -0.121  51.165  1.00  0.00     0.181 HD
ENDROOT
BRANCH   1  11
HETATM   11  C6  UNL     1      26.875  -0.184  52.921  1.00  0.00     0.140 A 
HETATM   12  C2  UNL     1      28.270  -0.224  53.354  1.00  0.00     0.048 A 
HETATM   13  C3  UNL     1      28.621  -1.527  53.282  1.00  0.00     0.013 A 
HETATM   14  C4  UNL     1      27.565  -2.416  52.827  1.00  0.00    -0.001 A 
HETATM   15  C5  UNL     1      26.550  -1.599  52.622  1.00  0.00    -0.001 A 
BRANCH  12  16
HETATM   16  C1  UNL     1      29.331   0.713  53.814  1.00  0.00     0.415 C 
HETATM   17  F1  UNL     1      29.174   0.984  55.163  1.00  0.00    -0.166 F 
HETATM   18  F2  UNL     1      30.593   0.189  53.563  1.00  0.00    -0.166 F 
HETATM   19  F3  UNL     1      29.278   1.915  53.174  1.00  0.00    -0.166 F 
ENDBRANCH  12  16
ENDBRANCH   1  11
BRANCH   4  20
HETATM   20  C10 UNL     1      25.256   4.571  49.231  1.00  0.00     0.077 C 
BRANCH  20  21
HETATM   21  C11 UNL     1      25.774   5.957  49.558  1.00  0.00     0.045 C 
BRANCH  21  22
HETATM   22  C12 UNL     1      26.897   6.394  48.723  1.00  0.00    -0.058 A 
HETATM   23  C13 UNL     1      27.011   7.562  47.996  1.00  0.00     0.007 A 
HETATM   24  C14 UNL     1      28.125   7.848  47.245  1.00  0.00     0.001 A 
HETATM   25  C15 UNL     1      29.158   6.923  47.229  1.00  0.00     0.000 A 
HETATM   26  C16 UNL     1      29.102   5.744  47.930  1.00  0.00     0.001 A 
HETATM   27  C17 UNL     1      27.952   5.491  48.681  1.00  0.00     0.007 A 
ENDBRANCH  21  22
ENDBRANCH  20  21
ENDBRANCH   4  20
TORSDOF 5
ENDMDL
MODEL 4
REMARK VINA RESULT:      -8.5      3.371      7.718
REMARK  5 active torsions:
REMARK  status: ('A' for Active; 'I' for Inactive)
REMARK    1  A    between atoms: C1_2  and  C2_5 
REMARK    2  A    between atoms: C6_9  and  N1_10 
REMARK    3  A    between atoms: C9_13  and  C10_14 
REMARK    4  A    between atoms: C10_14  and  C11_15 
REMARK    5  A    between atoms: C11_15  and  C12_16 
ROOT
HETATM    1  N1  UNL     1      25.622   1.819  52.822  1.00  0.00    -0.214 NA
HETATM    2  C7  UNL     1      24.684   1.024  52.064  1.00  0.00     0.145 C 
HETATM    3  C8  UNL     1      23.280   1.336  52.465  1.00  0.00     0.029 C 
HETATM    4  C9  UNL     1      22.167   1.867  51.993  1.00  0.00     0.083 C 
HETATM    5  N2  UNL     1      22.665   2.266  50.832  1.00  0.00    -0.404 NA
HETATM    6  C18 UNL     1      23.043   2.596  49.770  1.00  0.00     0.300 C 
HETATM    7  N3  UNL     1      24.346   3.213  49.738  1.00  0.00    -0.225 NA
HETATM    8  C19 UNL     1      25.054   3.281  50.844  1.00  0.00     0.221 C 
HETATM    9  N4  UNL     1      25.446   3.132  52.237  1.00  0.00    -0.312 N 
HETATM   10  H19 UNL     1      25.524   4.117  52.544  1.00  0.00     0.181 HD
ENDROOT
BRANCH   1  11
HETATM   11  C6  UNL     1      26.967   1.486  52.499  1.00  0.00     0.140 A 
HETATM   12  C2  UNL     1      27.488   0.201  52.957  1.00  0.00     0.048 A 
HETATM   13  C3  UNL     1      28.558   0.510  53.722  1.00  0.00     0.013 A 
HETATM   14  C4  UNL     1      28.832   1.933  53.836  1.00  0.00    -0.001 A 
HETATM   15  C5  UNL     1      27.881   2.483  53.106  1.00  0.00    -0.001 A 
BRANCH  12  16
HETATM   16  C1  UNL     1      27.180  -1.249  52.823  1.00  0.00     0.415 C 
HETATM   17  F1  UNL     1      28.312  -2.003  53.082  1.00  0.00    -0.166 F 
HETATM   18  F2  UNL     1      26.144  -1.613  53.674  1.00  0.00    -0.166 F 
HETATM   19  F3  UNL     1      26.779  -1.583  51.564  1.00  0.00    -0.166 F 
ENDBRANCH  12  16
ENDBRANCH   1  11
BRANCH   4  20
HETATM   20  C10 UNL     1      20.772   2.167  52.394  1.00  0.00     0.077 C 
BRANCH  20  21
HETATM   21  C11 UNL     1      19.893   1.283  51.532  1.00  0.00     0.045 C 
BRANCH  21  22
HETATM   22  C12 UNL     1      19.263   0.173  52.254  1.00  0.00    -0.058 A 
HETATM   23  C13 UNL     1      19.814  -0.623  53.238  1.00  0.00     0.007 A 
HETATM   24  C14 UNL     1      19.109  -1.640  53.833  1.00  0.00     0.001 A 
HETATM   25  C15 UNL     1      17.804  -1.862  53.419  1.00  0.00     0.000 A 
HETATM   26  C16 UNL     1      17.203  -1.105  52.444  1.00  0.00     0.001 A 
HETATM   27  C17 UNL     1      17.953  -0.079  51.864  1.00  0.00     0.007 A 
ENDBRANCH  21  22
ENDBRANCH  20  21
ENDBRANCH   4  20
TORSDOF 5
ENDMDL
MODEL 5
REMARK VINA RESULT:      -8.4      3.637      5.220
REMARK  5 active torsions:
REMARK  status: ('A' for Active; 'I' for Inactive)
REMARK    1  A    between atoms: C1_2  and  C2_5 
REMARK    2  A    between atoms: C6_9  and  N1_10 
REMARK    3  A    between atoms: C9_13  and  C10_14 
REMARK    4  A    between atoms: C10_14  and  C11_15 
REMARK    5  A    between atoms: C11_15  and  C12_16 
ROOT
HETATM    1  N1  UNL     1      21.463   1.291  51.511  1.00  0.00    -0.214 NA
HETATM    2  C7  UNL     1      22.456   1.461  52.546  1.00  0.00     0.145 C 
HETATM    3  C8  UNL     1      23.828   1.522  51.960  1.00  0.00     0.029 C 
HETATM    4  C9  UNL     1      24.844   2.349  51.796  1.00  0.00     0.083 C 
HETATM    5  N2  UNL     1      24.246   3.427  52.284  1.00  0.00    -0.404 NA
HETATM    6  C18 UNL     1      23.781   4.399  52.752  1.00  0.00     0.300 C 
HETATM    7  N3  UNL     1      22.412   4.669  52.388  1.00  0.00    -0.225 NA
HETATM    8  C19 UNL     1      21.754   3.795  51.661  1.00  0.00     0.221 C 
HETATM    9  N4  UNL     1      21.448   2.599  50.890  1.00  0.00    -0.312 N 
HETATM   10  H19 UNL     1      21.263   2.992  49.950  1.00  0.00     0.181 HD
ENDROOT
BRANCH   1  11
HETATM   11  C6  UNL     1      20.157   1.165  52.059  1.00  0.00     0.140 A 
HETATM   12  C2  UNL     1      19.798  -0.094  52.707  1.00  0.00     0.048 A 
HETATM   13  C3  UNL     1      18.723  -0.545  52.024  1.00  0.00     0.013 A 
HETATM   14  C4  UNL     1      18.292   0.314  50.933  1.00  0.00    -0.001 A 
HETATM   15  C5  UNL     1      19.153   1.312  50.977  1.00  0.00    -0.001 A 
BRANCH  12  16
HETATM   16  C1  UNL     1      20.266  -0.953  53.828  1.00  0.00     0.415 C 
HETATM   17  F1  UNL     1      20.535  -0.177  54.942  1.00  0.00    -0.166 F 
HETATM   18  F2  UNL     1      19.322  -1.929  54.128  1.00  0.00    -0.166 F 
HETATM   19  F3  UNL     1      21.421  -1.613  53.534  1.00  0.00    -0.166 F 
ENDBRANCH  12  16
ENDBRANCH   1  11
BRANCH   4  20
HETATM   20  C10 UNL     1      26.208   2.401  51.219  1.00  0.00     0.077 C 
BRANCH  20  21
HETATM   21  C11 UNL     1      27.158   2.370  52.399  1.00  0.00     0.045 C 
BRANCH  21  22
HETATM   22  C12 UNL     1      27.671   1.035  52.725  1.00  0.00    -0.058 A 
HETATM   23  C13 UNL     1      27.082  -0.187  52.470  1.00  0.00     0.007 A 
HETATM   24  C14 UNL     1      27.673  -1.372  52.837  1.00  0.00     0.001 A 
HETATM   25  C15 UNL     1      28.899  -1.320  53.481  1.00  0.00     0.000 A 
HETATM   26  C16 UNL     1      29.533  -0.135  53.762  1.00  0.00     0.001 A 
HETATM   27  C17 UNL     1      28.900   1.048  53.374  1.00  0.00     0.007 A 
ENDBRANCH  21  22
ENDBRANCH  20  21
ENDBRANCH   4  20
TORSDOF 5
ENDMDL
MODEL 6
REMARK VINA RESULT:      -8.3      5.229      9.562
REMARK  5 active torsions:
REMARK  status: ('A' for Active; 'I' for Inactive)
REMARK    1  A    between atoms: C1_2  and  C2_5 
REMARK    2  A    between atoms: C6_9  and  N1_10 
REMARK    3  A    between atoms: C9_13  and  C10_14 
REMARK    4  A    between atoms: C10_14  and  C11_15 
REMARK    5  A    between atoms: C11_15  and  C12_16 
ROOT
HETATM    1  N1  UNL     1      31.480   5.332  48.536  1.00  0.00    -0.214 NA
HETATM    2  C7  UNL     1      30.405   5.454  47.577  1.00  0.00     0.145 C 
HETATM    3  C8  UNL     1      29.102   5.059  48.190  1.00  0.00     0.029 C 
HETATM    4  C9  UNL     1      27.934   5.562  48.542  1.00  0.00     0.083 C 
HETATM    5  N2  UNL     1      28.225   6.829  48.279  1.00  0.00    -0.404 NA
HETATM    6  C18 UNL     1      28.413   7.958  48.015  1.00  0.00     0.300 C 
HETATM    7  N3  UNL     1      29.702   8.478  48.400  1.00  0.00    -0.225 NA
HETATM    8  C19 UNL     1      30.597   7.666  48.917  1.00  0.00     0.221 C 
HETATM    9  N4  UNL     1      31.229   6.454  49.415  1.00  0.00    -0.312 N 
HETATM   10  H19 UNL     1      31.381   6.687  50.412  1.00  0.00     0.181 HD
ENDROOT
BRANCH   1  11
HETATM   11  C6  UNL     1      32.738   5.641  47.948  1.00  0.00     0.140 A 
HETATM   12  C2  UNL     1      33.464   4.572  47.268  1.00  0.00     0.048 A 
HETATM   13  C3  UNL     1      34.649   4.490  47.912  1.00  0.00     0.013 A 
HETATM   14  C4  UNL     1      34.814   5.434  49.004  1.00  0.00    -0.001 A 
HETATM   15  C5  UNL     1      33.674   6.098  49.003  1.00  0.00    -0.001 A 
BRANCH  12  16
HETATM   16  C1  UNL     1      33.264   3.616  46.145  1.00  0.00     0.415 C 
HETATM   17  F1  UNL     1      34.394   2.833  45.980  1.00  0.00    -0.166 F 
HETATM   18  F2  UNL     1      32.146   2.821  46.368  1.00  0.00    -0.166 F 
HETATM   19  F3  UNL     1      33.058   4.245  44.955  1.00  0.00    -0.166 F 
ENDBRANCH  12  16
ENDBRANCH   1  11
BRANCH   4  20
HETATM   20  C10 UNL     1      26.639   5.163  49.143  1.00  0.00     0.077 C 
BRANCH  20  21
HETATM   21  C11 UNL     1      26.716   3.661  49.332  1.00  0.00     0.045 C 
BRANCH  21  22
HETATM   22  C12 UNL     1      25.918   3.153  50.452  1.00  0.00    -0.058 A 
HETATM   23  C13 UNL     1      24.553   3.242  50.633  1.00  0.00     0.007 A 
HETATM   24  C14 UNL     1      23.928   2.722  51.740  1.00  0.00     0.001 A 
HETATM   25  C15 UNL     1      24.709   2.092  52.697  1.00  0.00     0.000 A 
HETATM   26  C16 UNL     1      26.071   1.973  52.573  1.00  0.00     0.001 A 
HETATM   27  C17 UNL     1      26.669   2.514  51.432  1.00  0.00     0.007 A 
ENDBRANCH  21  22
ENDBRANCH  20  21
ENDBRANCH   4  20
TORSDOF 5
ENDMDL
MODEL 7
REMARK VINA RESULT:      -7.9      7.832     10.972
REMARK  5 active torsions:
REMARK  status: ('A' for Active; 'I' for Inactive)
REMARK    1  A    between atoms: C1_2  and  C2_5 
REMARK    2  A    between atoms: C6_9  and  N1_10 
REMARK    3  A    between atoms: C9_13  and  C10_14 
REMARK    4  A    between atoms: C10_14  and  C11_15 
REMARK    5  A    between atoms: C11_15  and  C12_16 
ROOT
HETATM    1  N1  UNL     1      14.269   1.118  53.506  1.00  0.00    -0.214 NA
HETATM    2  C7  UNL     1      14.788   1.401  52.187  1.00  0.00     0.145 C 
HETATM    3  C8  UNL     1      16.242   1.072  52.108  1.00  0.00     0.029 C 
HETATM    4  C9  UNL     1      17.081   0.242  51.516  1.00  0.00     0.083 C 
HETATM    5  N2  UNL     1      16.164  -0.509  50.923  1.00  0.00    -0.404 NA
HETATM    6  C18 UNL     1      15.394  -1.174  50.335  1.00  0.00     0.300 C 
HETATM    7  N3  UNL     1      14.214  -1.556  51.071  1.00  0.00    -0.225 NA
HETATM    8  C19 UNL     1      14.025  -1.075  52.279  1.00  0.00     0.221 C 
HETATM    9  N4  UNL     1      14.233  -0.329  53.511  1.00  0.00    -0.312 N 
HETATM   10  H19 UNL     1      14.320  -1.089  54.209  1.00  0.00     0.181 HD
ENDROOT
BRANCH   1  11
HETATM   11  C6  UNL     1      12.900   1.488  53.617  1.00  0.00     0.140 A 
HETATM   12  C2  UNL     1      12.585   2.861  54.002  1.00  0.00     0.048 A 
HETATM   13  C3  UNL     1      11.852   2.748  55.131  1.00  0.00     0.013 A 
HETATM   14  C4  UNL     1      11.623   1.382  55.572  1.00  0.00    -0.001 A 
HETATM   15  C5  UNL     1      12.251   0.663  54.663  1.00  0.00    -0.001 A 
BRANCH  12  16
HETATM   16  C1  UNL     1      12.839   4.248  53.525  1.00  0.00     0.415 C 
HETATM   17  F1  UNL     1      14.032   4.720  54.047  1.00  0.00    -0.166 F 
HETATM   18  F2  UNL     1      12.860   4.296  52.136  1.00  0.00    -0.166 F 
HETATM   19  F3  UNL     1      11.874   5.122  53.926  1.00  0.00    -0.166 F 
ENDBRANCH  12  16
ENDBRANCH   1  11
BRANCH   4  20
HETATM   20  C10 UNL     1      18.527  -0.074  51.436  1.00  0.00     0.077 C 
BRANCH  20  21
HETATM   21  C11 UNL     1      18.924  -0.550  52.819  1.00  0.00     0.045 C 
BRANCH  21  22
HETATM   22  C12 UNL     1      20.362  -0.465  53.095  1.00  0.00    -0.058 A 
HETATM   23  C13 UNL     1      21.318   0.258  52.411  1.00  0.00     0.007 A 
HETATM   24  C14 UNL     1      22.642   0.245  52.775  1.00  0.00     0.001 A 
HETATM   25  C15 UNL     1      23.012  -0.525  53.867  1.00  0.00     0.000 A 
HETATM   26  C16 UNL     1      22.108  -1.266  54.587  1.00  0.00     0.001 A 
HETATM   27  C17 UNL     1      20.771  -1.226  54.184  1.00  0.00     0.007 A 
ENDBRANCH  21  22
ENDBRANCH  20  21
ENDBRANCH   4  20
TORSDOF 5
ENDMDL
MODEL 8
REMARK VINA RESULT:      -7.7      2.339      3.327
REMARK  5 active torsions:
REMARK  status: ('A' for Active; 'I' for Inactive)
REMARK    1  A    between atoms: C1_2  and  C2_5 
REMARK    2  A    between atoms: C6_9  and  N1_10 
REMARK    3  A    between atoms: C9_13  and  C10_14 
REMARK    4  A    between atoms: C10_14  and  C11_15 
REMARK    5  A    between atoms: C11_15  and  C12_16 
ROOT
HETATM    1  N1  UNL     1      24.453   2.312  52.507  1.00  0.00    -0.214 NA
HETATM    2  C7  UNL     1      23.974   2.894  51.275  1.00  0.00     0.145 C 
HETATM    3  C8  UNL     1      23.987   4.385  51.353  1.00  0.00     0.029 C 
HETATM    4  C9  UNL     1      24.580   5.441  50.828  1.00  0.00     0.083 C 
HETATM    5  N2  UNL     1      25.461   4.774  50.094  1.00  0.00    -0.404 NA
HETATM    6  C18 UNL     1      26.228   4.233  49.389  1.00  0.00     0.300 C 
HETATM    7  N3  UNL     1      26.899   3.091  49.960  1.00  0.00    -0.225 NA
HETATM    8  C19 UNL     1      26.555   2.676  51.158  1.00  0.00     0.221 C 
HETATM    9  N4  UNL     1      25.872   2.587  52.440  1.00  0.00    -0.312 N 
HETATM   10  H19 UNL     1      26.645   2.760  53.107  1.00  0.00     0.181 HD
ENDROOT
BRANCH   1  11
HETATM   11  C6  UNL     1      24.384   0.891  52.472  1.00  0.00     0.140 A 
HETATM   12  C2  UNL     1      23.118   0.252  52.819  1.00  0.00     0.048 A 
HETATM   13  C3  UNL     1      23.408  -0.554  53.864  1.00  0.00     0.013 A 
HETATM   14  C4  UNL     1      24.800  -0.531  54.281  1.00  0.00    -0.001 A 
HETATM   15  C5  UNL     1      25.351   0.328  53.444  1.00  0.00    -0.001 A 
BRANCH  12  16
HETATM   16  C1  UNL     1      21.699   0.252  52.370  1.00  0.00     0.415 C 
HETATM   17  F1  UNL     1      21.003  -0.772  52.990  1.00  0.00    -0.166 F 
HETATM   18  F2  UNL     1      21.100   1.479  52.631  1.00  0.00    -0.166 F 
HETATM   19  F3  UNL     1      21.576   0.041  51.030  1.00  0.00    -0.166 F 
ENDBRANCH  12  16
ENDBRANCH   1  11
BRANCH   4  20
HETATM   20  C10 UNL     1      24.582   6.921  50.905  1.00  0.00     0.077 C 
BRANCH  20  21
HETATM   21  C11 UNL     1      24.666   7.410  49.473  1.00  0.00     0.045 C 
BRANCH  21  22
HETATM   22  C12 UNL     1      25.990   7.904  49.081  1.00  0.00    -0.058 A 
HETATM   23  C13 UNL     1      26.676   7.658  47.909  1.00  0.00     0.007 A 
HETATM   24  C14 UNL     1      27.922   8.183  47.669  1.00  0.00     0.001 A 
HETATM   25  C15 UNL     1      28.493   8.984  48.646  1.00  0.00     0.000 A 
HETATM   26  C16 UNL     1      27.861   9.264  49.831  1.00  0.00     0.001 A 
HETATM   27  C17 UNL     1      26.595   8.711  50.037  1.00  0.00     0.007 A 
ENDBRANCH  21  22
ENDBRANCH  20  21
ENDBRANCH   4  20
TORSDOF 5
ENDMDL
MODEL 9
REMARK VINA RESULT:      -7.6      4.930      9.432
REMARK  5 active torsions:
REMARK  status: ('A' for Active; 'I' for Inactive)
REMARK    1  A    between atoms: C1_2  and  C2_5 
REMARK    2  A    between atoms: C6_9  and  N1_10 
REMARK    3  A    between atoms: C9_13  and  C10_14 
REMARK    4  A    between atoms: C10_14  and  C11_15 
REMARK    5  A    between atoms: C11_15  and  C12_16 
ROOT
HETATM    1  N1  UNL     1      28.571   7.625  48.804  1.00  0.00    -0.214 NA
HETATM    2  C7  UNL     1      27.873   6.732  47.908  1.00  0.00     0.145 C 
HETATM    3  C8  UNL     1      27.697   5.386  48.533  1.00  0.00     0.029 C 
HETATM    4  C9  UNL     1      26.760   4.572  48.982  1.00  0.00     0.083 C 
HETATM    5  N2  UNL     1      25.743   5.410  48.834  1.00  0.00    -0.404 NA
HETATM    6  C18 UNL     1      24.801   6.094  48.676  1.00  0.00     0.300 C 
HETATM    7  N3  UNL     1      24.966   7.475  49.056  1.00  0.00    -0.225 NA
HETATM    8  C19 UNL     1      26.146   7.898  49.451  1.00  0.00     0.221 C 
HETATM    9  N4  UNL     1      27.559   7.906  49.800  1.00  0.00    -0.312 N 
HETATM   10  H19 UNL     1      27.529   8.139  50.808  1.00  0.00     0.181 HD
ENDROOT
BRANCH   1  11
HETATM   11  C6  UNL     1      28.804   8.891  48.197  1.00  0.00     0.140 A 
HETATM   12  C2  UNL     1      29.842   8.985  47.174  1.00  0.00     0.048 A 
HETATM   13  C3  UNL     1      30.710   9.909  47.642  1.00  0.00     0.013 A 
HETATM   14  C4  UNL     1      30.356  10.479  48.931  1.00  0.00    -0.001 A 
HETATM   15  C5  UNL     1      29.230   9.861  49.234  1.00  0.00    -0.001 A 
BRANCH  12  16
HETATM   16  C1  UNL     1      30.179   8.381  45.856  1.00  0.00     0.415 C 
HETATM   17  F1  UNL     1      30.853   7.186  46.039  1.00  0.00    -0.166 F 
HETATM   18  F2  UNL     1      29.031   8.184  45.097  1.00  0.00    -0.166 F 
HETATM   19  F3  UNL     1      31.000   9.174  45.113  1.00  0.00    -0.166 F 
ENDBRANCH  12  16
ENDBRANCH   1  11
BRANCH   4  20
HETATM   20  C10 UNL     1      26.592   3.233  49.594  1.00  0.00     0.077 C 
BRANCH  20  21
HETATM   21  C11 UNL     1      25.718   3.442  50.814  1.00  0.00     0.045 C 
BRANCH  21  22
HETATM   22  C12 UNL     1      25.488   2.230  51.607  1.00  0.00    -0.058 A 
HETATM   23  C13 UNL     1      24.377   1.904  52.359  1.00  0.00     0.007 A 
HETATM   24  C14 UNL     1      24.293   0.728  53.062  1.00  0.00     0.001 A 
HETATM   25  C15 UNL     1      25.366  -0.148  53.004  1.00  0.00     0.000 A 
HETATM   26  C16 UNL     1      26.497   0.121  52.274  1.00  0.00     0.001 A 
HETATM   27  C17 UNL     1      26.545   1.328  51.573  1.00  0.00     0.007 A 
ENDBRANCH  21  22
ENDBRANCH  20  21
ENDBRANCH   4  20
TORSDOF 5
ENDMDL
