MODEL 1
REMARK VINA RESULT:      -8.0      0.000      0.000
REMARK  7 active torsions:
REMARK  status: ('A' for Active; 'I' for Inactive)
REMARK    1  A    between atoms: C2_2  and  C3_3 
REMARK    2  A    between atoms: C4_4  and  C5_5 
REMARK    3  A    between atoms: C4_4  and  C7_7 
REMARK    4  A    between atoms: N2_9  and  C8_10 
REMARK    5  A    between atoms: C9_12  and  O1_13 
REMARK    6  A    between atoms: C10_14  and  S1_15 
REMARK    7  A    between atoms: C11_16  and  C12_17 
ROOT
HETATM    1  C7  UNL     1      25.969   1.289  53.044  1.00  0.00     0.067 C 
HETATM    2  N1  UNL     1      25.425   2.352  53.593  1.00  0.00    -0.173 NA
HETATM    3  N2  UNL     1      24.170   2.589  53.024  1.00  0.00    -0.230 N 
HETATM    4  C11 UNL     1      23.742   1.224  53.182  1.00  0.00     0.151 C 
HETATM    5  C18 UNL     1      24.863   0.659  52.223  1.00  0.00     0.094 C 
ENDROOT
BRANCH   3   6
HETATM    6  C8  UNL     1      23.416   3.647  52.445  1.00  0.00     0.301 A 
HETATM    7  N3  UNL     1      22.746   4.598  51.921  1.00  0.00     0.097 N 
HETATM    8  C9  UNL     1      21.465   4.394  51.715  1.00  0.00     0.354 A 
HETATM    9  C10 UNL     1      21.967   5.732  51.297  1.00  0.00     0.372 A 
HETATM   10  S1  UNL     1      23.685   5.390  51.820  1.00  0.00     0.106 SA
BRANCH   8  11
HETATM   11  O1  UNL     1      20.075   4.423  51.388  1.00  0.00    -0.357 OA
HETATM   12  H8  UNL     1      19.495   5.177  51.824  1.00  0.00     0.213 HD
ENDBRANCH   8  11
ENDBRANCH   3   6
BRANCH   4  13
HETATM   13  C12 UNL     1      22.399   0.842  52.764  1.00  0.00    -0.033 A 
HETATM   14  C13 UNL     1      21.549   0.552  53.826  1.00  0.00     0.011 A 
HETATM   15  C14 UNL     1      20.215   0.126  53.644  1.00  0.00     0.019 A 
HETATM   16  C15 UNL     1      19.802   0.025  52.345  1.00  0.00     0.011 A 
HETATM   17 BR1  UNL     1      17.997  -0.579  52.114  1.00  0.00    -0.051 Br
HETATM   18  C16 UNL     1      20.652   0.311  51.313  1.00  0.00     0.019 A 
HETATM   19  C17 UNL     1      21.968   0.725  51.461  1.00  0.00     0.011 A 
ENDBRANCH   4  13
BRANCH   1  20
HETATM   20  C4  UNL     1      27.195   0.555  53.151  1.00  0.00    -0.011 C 
HETATM   21  C3  UNL     1      27.690  -0.674  53.048  1.00  0.00     0.009 C 
BRANCH  21  22
HETATM   22  C2  UNL     1      29.072  -0.625  53.473  1.00  0.00    -0.008 C 
HETATM   23  C1  UNL     1      29.683  -1.831  53.432  1.00  0.00     0.013 C 
ENDBRANCH  21  22
BRANCH  20  24
HETATM   24  C5  UNL     1      28.431   1.166  53.643  1.00  0.00     0.003 C 
HETATM   25  C6  UNL     1      28.617   2.488  53.569  1.00  0.00     0.012 C 
ENDBRANCH  20  24
ENDBRANCH   1  20
TORSDOF 7
ENDMDL
MODEL 2
REMARK VINA RESULT:      -7.7      3.865      7.087
REMARK  7 active torsions:
REMARK  status: ('A' for Active; 'I' for Inactive)
REMARK    1  A    between atoms: C2_2  and  C3_3 
REMARK    2  A    between atoms: C4_4  and  C5_5 
REMARK    3  A    between atoms: C4_4  and  C7_7 
REMARK    4  A    between atoms: N2_9  and  C8_10 
REMARK    5  A    between atoms: C9_12  and  O1_13 
REMARK    6  A    between atoms: C10_14  and  S1_15 
REMARK    7  A    between atoms: C11_16  and  C12_17 
ROOT
HETATM    1  C7  UNL     1      22.432   0.861  52.469  1.00  0.00     0.067 C 
HETATM    2  N1  UNL     1      23.244   1.191  53.450  1.00  0.00    -0.173 NA
HETATM    3  N2  UNL     1      24.478   1.592  52.927  1.00  0.00    -0.230 N 
HETATM    4  C11 UNL     1      23.882   2.482  51.966  1.00  0.00     0.151 C 
HETATM    5  C18 UNL     1      23.132   1.318  51.206  1.00  0.00     0.094 C 
ENDROOT
BRANCH   3   6
HETATM    6  C8  UNL     1      25.868   1.347  53.099  1.00  0.00     0.301 A 
HETATM    7  N3  UNL     1      27.114   1.119  53.250  1.00  0.00     0.097 N 
HETATM    8  C9  UNL     1      27.935   2.137  53.128  1.00  0.00     0.354 A 
HETATM    9  C10 UNL     1      28.587   0.833  53.428  1.00  0.00     0.372 A 
HETATM   10  S1  UNL     1      27.009  -0.089  53.470  1.00  0.00     0.106 SA
BRANCH   8  11
HETATM   11  O1  UNL     1      29.021   3.061  53.043  1.00  0.00    -0.357 OA
HETATM   12  H8  UNL     1      28.789   4.054  52.810  1.00  0.00     0.213 HD
ENDBRANCH   8  11
ENDBRANCH   3   6
BRANCH   4  13
HETATM   13  C12 UNL     1      24.741   3.267  51.088  1.00  0.00    -0.033 A 
HETATM   14  C13 UNL     1      24.453   4.627  51.100  1.00  0.00     0.011 A 
HETATM   15  C14 UNL     1      25.140   5.562  50.295  1.00  0.00     0.019 A 
HETATM   16  C15 UNL     1      26.125   5.043  49.501  1.00  0.00     0.011 A 
HETATM   17 BR1  UNL     1      27.031   6.320  48.396  1.00  0.00    -0.051 Br
HETATM   18  C16 UNL     1      26.392   3.702  49.499  1.00  0.00     0.019 A 
HETATM   19  C17 UNL     1      25.730   2.761  50.274  1.00  0.00     0.011 A 
ENDBRANCH   4  13
BRANCH   1  20
HETATM   20  C4  UNL     1      21.095   0.368  52.326  1.00  0.00    -0.011 C 
HETATM   21  C3  UNL     1      20.031   0.444  51.534  1.00  0.00     0.009 C 
BRANCH  21  22
HETATM   22  C2  UNL     1      18.952  -0.271  52.180  1.00  0.00    -0.008 C 
HETATM   23  C1  UNL     1      17.786  -0.201  51.499  1.00  0.00     0.013 C 
ENDBRANCH  21  22
BRANCH  20  24
HETATM   24  C5  UNL     1      20.440  -0.426  53.369  1.00  0.00     0.003 C 
HETATM   25  C6  UNL     1      21.161  -1.113  54.260  1.00  0.00     0.012 C 
ENDBRANCH  20  24
ENDBRANCH   1  20
TORSDOF 7
ENDMDL
MODEL 3
REMARK VINA RESULT:      -7.6      0.942      1.227
REMARK  7 active torsions:
REMARK  status: ('A' for Active; 'I' for Inactive)
REMARK    1  A    between atoms: C2_2  and  C3_3 
REMARK    2  A    between atoms: C4_4  and  C5_5 
REMARK    3  A    between atoms: C4_4  and  C7_7 
REMARK    4  A    between atoms: N2_9  and  C8_10 
REMARK    5  A    between atoms: C9_12  and  O1_13 
REMARK    6  A    between atoms: C10_14  and  S1_15 
REMARK    7  A    between atoms: C11_16  and  C12_17 
ROOT
HETATM    1  C7  UNL     1      25.832   1.779  53.259  1.00  0.00     0.067 C 
HETATM    2  N1  UNL     1      25.191   2.839  53.700  1.00  0.00    -0.173 NA
HETATM    3  N2  UNL     1      24.057   3.068  52.913  1.00  0.00    -0.230 N 
HETATM    4  C11 UNL     1      23.617   1.700  52.991  1.00  0.00     0.151 C 
HETATM    5  C18 UNL     1      24.897   1.143  52.252  1.00  0.00     0.094 C 
ENDROOT
BRANCH   3   6
HETATM    6  C8  UNL     1      23.415   4.121  52.206  1.00  0.00     0.301 A 
HETATM    7  N3  UNL     1      22.845   5.067  51.567  1.00  0.00     0.097 N 
HETATM    8  C9  UNL     1      21.581   4.906  51.246  1.00  0.00     0.354 A 
HETATM    9  C10 UNL     1      22.184   6.195  50.809  1.00  0.00     0.372 A 
HETATM   10  S1  UNL     1      23.825   5.812  51.518  1.00  0.00     0.106 SA
BRANCH   8  11
HETATM   11  O1  UNL     1      20.232   4.975  50.782  1.00  0.00    -0.357 OA
HETATM   12  H8  UNL     1      19.478   4.704  51.455  1.00  0.00     0.213 HD
ENDBRANCH   8  11
ENDBRANCH   3   6
BRANCH   4  13
HETATM   13  C12 UNL     1      22.374   1.310  52.338  1.00  0.00    -0.033 A 
HETATM   14  C13 UNL     1      21.313   1.140  53.220  1.00  0.00     0.011 A 
HETATM   15  C14 UNL     1      20.029   0.728  52.801  1.00  0.00     0.019 A 
HETATM   16  C15 UNL     1      19.888   0.513  51.459  1.00  0.00     0.011 A 
HETATM   17 BR1  UNL     1      18.146  -0.070  50.910  1.00  0.00    -0.051 Br
HETATM   18  C16 UNL     1      20.944   0.682  50.607  1.00  0.00     0.019 A 
HETATM   19  C17 UNL     1      22.216   1.079  50.989  1.00  0.00     0.011 A 
ENDBRANCH   4  13
BRANCH   1  20
HETATM   20  C4  UNL     1      27.022   1.053  53.587  1.00  0.00    -0.011 C 
HETATM   21  C3  UNL     1      28.233   0.764  53.122  1.00  0.00     0.009 C 
BRANCH  21  22
HETATM   22  C2  UNL     1      28.824  -0.208  54.016  1.00  0.00    -0.008 C 
HETATM   23  C1  UNL     1      29.847  -0.893  53.454  1.00  0.00     0.013 C 
ENDBRANCH  21  22
BRANCH  20  24
HETATM   24  C5  UNL     1      27.098   0.160  54.746  1.00  0.00     0.003 C 
HETATM   25  C6  UNL     1      25.987  -0.260  55.359  1.00  0.00     0.012 C 
ENDBRANCH  20  24
ENDBRANCH   1  20
TORSDOF 7
ENDMDL
MODEL 4
REMARK VINA RESULT:      -7.5      3.929      6.102
REMARK  7 active torsions:
REMARK  status: ('A' for Active; 'I' for Inactive)
REMARK    1  A    between atoms: C2_2  and  C3_3 
REMARK    2  A    between atoms: C4_4  and  C5_5 
REMARK    3  A    between atoms: C4_4  and  C7_7 
REMARK    4  A    between atoms: N2_9  and  C8_10 
REMARK    5  A    between atoms: C9_12  and  O1_13 
REMARK    6  A    between atoms: C10_14  and  S1_15 
REMARK    7  A    between atoms: C11_16  and  C12_17 
ROOT
HETATM    1  C7  UNL     1      26.057   4.228  49.850  1.00  0.00     0.067 C 
HETATM    2  N1  UNL     1      26.704   3.084  49.822  1.00  0.00    -0.173 NA
HETATM    3  N2  UNL     1      26.276   2.272  50.877  1.00  0.00    -0.230 N 
HETATM    4  C11 UNL     1      24.881   2.480  50.587  1.00  0.00     0.151 C 
HETATM    5  C18 UNL     1      24.953   4.033  50.868  1.00  0.00     0.094 C 
ENDROOT
BRANCH   3   6
HETATM    6  C8  UNL     1      26.808   1.485  51.934  1.00  0.00     0.301 A 
HETATM    7  N3  UNL     1      27.285   0.785  52.889  1.00  0.00     0.097 N 
HETATM    8  C9  UNL     1      27.053  -0.508  52.866  1.00  0.00     0.354 A 
HETATM    9  C10 UNL     1      27.853  -0.030  54.027  1.00  0.00     0.372 A 
HETATM   10  S1  UNL     1      27.820   1.717  53.491  1.00  0.00     0.106 SA
BRANCH   8  11
HETATM   11  O1  UNL     1      26.939  -1.916  53.074  1.00  0.00    -0.357 OA
HETATM   12  H8  UNL     1      26.004  -2.353  52.904  1.00  0.00     0.213 HD
ENDBRANCH   8  11
ENDBRANCH   3   6
BRANCH   4  13
HETATM   13  C12 UNL     1      23.874   1.807  51.398  1.00  0.00    -0.033 A 
HETATM   14  C13 UNL     1      22.776   1.368  50.667  1.00  0.00     0.011 A 
HETATM   15  C14 UNL     1      21.669   0.723  51.262  1.00  0.00     0.019 A 
HETATM   16  C15 UNL     1      21.748   0.547  52.615  1.00  0.00     0.011 A 
HETATM   17 BR1  UNL     1      20.226  -0.306  53.410  1.00  0.00    -0.051 Br
HETATM   18  C16 UNL     1      22.834   0.989  53.318  1.00  0.00     0.019 A 
HETATM   19  C17 UNL     1      23.932   1.629  52.763  1.00  0.00     0.011 A 
ENDBRANCH   4  13
BRANCH   1  20
HETATM   20  C4  UNL     1      26.039   5.450  49.102  1.00  0.00    -0.011 C 
HETATM   21  C3  UNL     1      25.208   6.364  48.612  1.00  0.00     0.009 C 
BRANCH  21  22
HETATM   22  C2  UNL     1      25.987   7.272  47.798  1.00  0.00    -0.008 C 
HETATM   23  C1  UNL     1      25.239   8.234  47.211  1.00  0.00     0.013 C 
ENDBRANCH  21  22
BRANCH  20  24
HETATM   24  C5  UNL     1      27.241   5.995  48.467  1.00  0.00     0.003 C 
HETATM   25  C6  UNL     1      28.373   5.286  48.423  1.00  0.00     0.012 C 
ENDBRANCH  20  24
ENDBRANCH   1  20
TORSDOF 7
ENDMDL
MODEL 5
REMARK VINA RESULT:      -7.4      4.453      5.862
REMARK  7 active torsions:
REMARK  status: ('A' for Active; 'I' for Inactive)
REMARK    1  A    between atoms: C2_2  and  C3_3 
REMARK    2  A    between atoms: C4_4  and  C5_5 
REMARK    3  A    between atoms: C4_4  and  C7_7 
REMARK    4  A    between atoms: N2_9  and  C8_10 
REMARK    5  A    between atoms: C9_12  and  O1_13 
REMARK    6  A    between atoms: C10_14  and  S1_15 
REMARK    7  A    between atoms: C11_16  and  C12_17 
ROOT
HETATM    1  C7  UNL     1      26.409   4.863  48.927  1.00  0.00     0.067 C 
HETATM    2  N1  UNL     1      25.105   5.028  48.944  1.00  0.00    -0.173 NA
HETATM    3  N2  UNL     1      24.491   3.894  49.486  1.00  0.00    -0.230 N 
HETATM    4  C11 UNL     1      25.370   3.854  50.626  1.00  0.00     0.151 C 
HETATM    5  C18 UNL     1      26.660   3.614  49.746  1.00  0.00     0.094 C 
ENDROOT
BRANCH   3   6
HETATM    6  C8  UNL     1      23.440   2.981  49.201  1.00  0.00     0.301 A 
HETATM    7  N3  UNL     1      22.499   2.160  48.937  1.00  0.00     0.097 N 
HETATM    8  C9  UNL     1      22.088   1.377  49.908  1.00  0.00     0.354 A 
HETATM    9  C10 UNL     1      21.386   1.192  48.609  1.00  0.00     0.372 A 
HETATM   10  S1  UNL     1      22.357   2.486  47.756  1.00  0.00     0.106 SA
BRANCH   8  11
HETATM   11  O1  UNL     1      21.472   0.426  50.778  1.00  0.00    -0.357 OA
HETATM   12  H8  UNL     1      21.264  -0.520  50.384  1.00  0.00     0.213 HD
ENDBRANCH   8  11
ENDBRANCH   3   6
BRANCH   4  13
HETATM   13  C12 UNL     1      25.179   2.824  51.640  1.00  0.00    -0.033 A 
HETATM   14  C13 UNL     1      26.093   1.781  51.549  1.00  0.00     0.011 A 
HETATM   15  C14 UNL     1      26.064   0.662  52.411  1.00  0.00     0.019 A 
HETATM   16  C15 UNL     1      25.078   0.673  53.357  1.00  0.00     0.011 A 
HETATM   17 BR1  UNL     1      25.037  -0.864  54.502  1.00  0.00    -0.051 Br
HETATM   18  C16 UNL     1      24.186   1.707  53.429  1.00  0.00     0.019 A 
HETATM   19  C17 UNL     1      24.186   2.814  52.594  1.00  0.00     0.011 A 
ENDBRANCH   4  13
BRANCH   1  20
HETATM   20  C4  UNL     1      27.561   5.599  48.500  1.00  0.00    -0.011 C 
HETATM   21  C3  UNL     1      28.834   5.441  48.154  1.00  0.00     0.009 C 
BRANCH  21  22
HETATM   22  C2  UNL     1      29.409   6.758  47.986  1.00  0.00    -0.008 C 
HETATM   23  C1  UNL     1      30.675   6.728  47.511  1.00  0.00     0.013 C 
ENDBRANCH  21  22
BRANCH  20  24
HETATM   24  C5  UNL     1      27.588   7.063  48.477  1.00  0.00     0.003 C 
HETATM   25  C6  UNL     1      26.836   7.774  49.322  1.00  0.00     0.012 C 
ENDBRANCH  20  24
ENDBRANCH   1  20
TORSDOF 7
ENDMDL
MODEL 6
REMARK VINA RESULT:      -7.4      3.768      6.858
REMARK  7 active torsions:
REMARK  status: ('A' for Active; 'I' for Inactive)
REMARK    1  A    between atoms: C2_2  and  C3_3 
REMARK    2  A    between atoms: C4_4  and  C5_5 
REMARK    3  A    between atoms: C4_4  and  C7_7 
REMARK    4  A    between atoms: N2_9  and  C8_10 
REMARK    5  A    between atoms: C9_12  and  O1_13 
REMARK    6  A    between atoms: C10_14  and  S1_15 
REMARK    7  A    between atoms: C11_16  and  C12_17 
ROOT
HETATM    1  C7  UNL     1      23.280   3.457  50.949  1.00  0.00     0.067 C 
HETATM    2  N1  UNL     1      22.839   3.237  52.169  1.00  0.00    -0.173 NA
HETATM    3  N2  UNL     1      23.374   2.040  52.656  1.00  0.00    -0.230 N 
HETATM    4  C11 UNL     1      24.719   2.382  52.274  1.00  0.00     0.151 C 
HETATM    5  C18 UNL     1      24.374   2.433  50.734  1.00  0.00     0.094 C 
ENDROOT
BRANCH   3   6
HETATM    6  C8  UNL     1      22.958   0.835  53.285  1.00  0.00     0.301 A 
HETATM    7  N3  UNL     1      22.580  -0.249  53.842  1.00  0.00     0.097 N 
HETATM    8  C9  UNL     1      23.370  -0.767  54.756  1.00  0.00     0.354 A 
HETATM    9  C10 UNL     1      22.122  -1.534  54.492  1.00  0.00     0.372 A 
HETATM   10  S1  UNL     1      21.521  -0.363  53.223  1.00  0.00     0.106 SA
BRANCH   8  11
HETATM   11  O1  UNL     1      24.041  -1.525  55.762  1.00  0.00    -0.357 OA
HETATM   12  H8  UNL     1      23.455  -2.143  56.370  1.00  0.00     0.213 HD
ENDBRANCH   8  11
ENDBRANCH   3   6
BRANCH   4  13
HETATM   13  C12 UNL     1      25.806   1.459  52.578  1.00  0.00    -0.033 A 
HETATM   14  C13 UNL     1      26.775   2.000  53.415  1.00  0.00     0.011 A 
HETATM   15  C14 UNL     1      27.932   1.290  53.805  1.00  0.00     0.019 A 
HETATM   16  C15 UNL     1      28.036   0.019  53.312  1.00  0.00     0.011 A 
HETATM   17 BR1  UNL     1      29.624  -0.922  53.830  1.00  0.00    -0.051 Br
HETATM   18  C16 UNL     1      27.075  -0.495  52.487  1.00  0.00     0.019 A 
HETATM   19  C17 UNL     1      25.933   0.180  52.083  1.00  0.00     0.011 A 
ENDBRANCH   4  13
BRANCH   1  20
HETATM   20  C4  UNL     1      23.106   4.445  49.926  1.00  0.00    -0.011 C 
HETATM   21  C3  UNL     1      22.778   4.579  48.646  1.00  0.00     0.009 C 
BRANCH  21  22
HETATM   22  C2  UNL     1      22.989   5.963  48.282  1.00  0.00    -0.008 C 
HETATM   23  C1  UNL     1      22.698   6.221  46.987  1.00  0.00     0.013 C 
ENDBRANCH  21  22
BRANCH  20  24
HETATM   24  C5  UNL     1      23.475   5.849  50.126  1.00  0.00     0.003 C 
HETATM   25  C6  UNL     1      24.005   6.259  51.282  1.00  0.00     0.012 C 
ENDBRANCH  20  24
ENDBRANCH   1  20
TORSDOF 7
ENDMDL
MODEL 7
REMARK VINA RESULT:      -7.2      3.852      5.466
REMARK  7 active torsions:
REMARK  status: ('A' for Active; 'I' for Inactive)
REMARK    1  A    between atoms: C2_2  and  C3_3 
REMARK    2  A    between atoms: C4_4  and  C5_5 
REMARK    3  A    between atoms: C4_4  and  C7_7 
REMARK    4  A    between atoms: N2_9  and  C8_10 
REMARK    5  A    between atoms: C9_12  and  O1_13 
REMARK    6  A    between atoms: C10_14  and  S1_15 
REMARK    7  A    between atoms: C11_16  and  C12_17 
ROOT
HETATM    1  C7  UNL     1      23.302   2.001  52.151  1.00  0.00     0.067 C 
HETATM    2  N1  UNL     1      23.669   3.254  52.307  1.00  0.00    -0.173 NA
HETATM    3  N2  UNL     1      23.831   3.859  51.057  1.00  0.00    -0.230 N 
HETATM    4  C11 UNL     1      22.563   3.388  50.565  1.00  0.00     0.151 C 
HETATM    5  C18 UNL     1      22.973   1.866  50.679  1.00  0.00     0.094 C 
ENDROOT
BRANCH   3   6
HETATM    6  C8  UNL     1      24.775   4.642  50.338  1.00  0.00     0.301 A 
HETATM    7  N3  UNL     1      25.620   5.352  49.698  1.00  0.00     0.097 N 
HETATM    8  C9  UNL     1      26.680   4.743  49.215  1.00  0.00     0.354 A 
HETATM    9  C10 UNL     1      26.614   6.206  48.945  1.00  0.00     0.372 A 
HETATM   10  S1  UNL     1      25.021   6.423  49.815  1.00  0.00     0.106 SA
BRANCH   8  11
HETATM   11  O1  UNL     1      27.901   4.328  48.602  1.00  0.00    -0.357 OA
HETATM   12  H8  UNL     1      28.211   3.343  48.768  1.00  0.00     0.213 HD
ENDBRANCH   8  11
ENDBRANCH   3   6
BRANCH   4  13
HETATM   13  C12 UNL     1      22.134   3.757  49.222  1.00  0.00    -0.033 A 
HETATM   14  C13 UNL     1      22.469   2.816  48.255  1.00  0.00     0.011 A 
HETATM   15  C14 UNL     1      22.179   2.993  46.884  1.00  0.00     0.019 A 
HETATM   16  C15 UNL     1      21.535   4.155  46.563  1.00  0.00     0.011 A 
HETATM   17 BR1  UNL     1      21.173   4.391  44.695  1.00  0.00    -0.051 Br
HETATM   18  C16 UNL     1      21.218   5.070  47.527  1.00  0.00     0.019 A 
HETATM   19  C17 UNL     1      21.494   4.927  48.879  1.00  0.00     0.011 A 
ENDBRANCH   4  13
BRANCH   1  20
HETATM   20  C4  UNL     1      23.005   0.875  52.986  1.00  0.00    -0.011 C 
HETATM   21  C3  UNL     1      22.016   0.313  53.671  1.00  0.00     0.009 C 
BRANCH  21  22
HETATM   22  C2  UNL     1      22.574  -0.791  54.421  1.00  0.00    -0.008 C 
HETATM   23  C1  UNL     1      21.676  -1.771  54.671  1.00  0.00     0.013 C 
ENDBRANCH  21  22
BRANCH  20  24
HETATM   24  C5  UNL     1      24.046  -0.038  53.464  1.00  0.00     0.003 C 
HETATM   25  C6  UNL     1      25.290   0.030  52.980  1.00  0.00     0.012 C 
ENDBRANCH  20  24
ENDBRANCH   1  20
TORSDOF 7
ENDMDL
MODEL 8
REMARK VINA RESULT:      -7.0      4.618      6.594
REMARK  7 active torsions:
REMARK  status: ('A' for Active; 'I' for Inactive)
REMARK    1  A    between atoms: C2_2  and  C3_3 
REMARK    2  A    between atoms: C4_4  and  C5_5 
REMARK    3  A    between atoms: C4_4  and  C7_7 
REMARK    4  A    between atoms: N2_9  and  C8_10 
REMARK    5  A    between atoms: C9_12  and  O1_13 
REMARK    6  A    between atoms: C10_14  and  S1_15 
REMARK    7  A    between atoms: C11_16  and  C12_17 
ROOT
HETATM    1  C7  UNL     1      22.539   1.741  51.083  1.00  0.00     0.067 C 
HETATM    2  N1  UNL     1      22.659   1.605  49.781  1.00  0.00    -0.173 NA
HETATM    3  N2  UNL     1      22.919   2.849  49.197  1.00  0.00    -0.230 N 
HETATM    4  C11 UNL     1      23.967   3.167  50.130  1.00  0.00     0.151 C 
HETATM    5  C18 UNL     1      22.997   3.154  51.377  1.00  0.00     0.094 C 
ENDROOT
BRANCH   3   6
HETATM    6  C8  UNL     1      22.457   3.674  48.135  1.00  0.00     0.301 A 
HETATM    7  N3  UNL     1      22.047   4.420  47.185  1.00  0.00     0.097 N 
HETATM    8  C9  UNL     1      21.952   3.883  45.990  1.00  0.00     0.354 A 
HETATM    9  C10 UNL     1      21.563   5.317  46.069  1.00  0.00     0.372 A 
HETATM   10  S1  UNL     1      21.896   5.438  47.863  1.00  0.00     0.106 SA
BRANCH   8  11
HETATM   11  O1  UNL     1      21.767   3.545  44.615  1.00  0.00    -0.357 OA
HETATM   12  H8  UNL     1      21.179   2.707  44.401  1.00  0.00     0.213 HD
ENDBRANCH   8  11
ENDBRANCH   3   6
BRANCH   4  13
HETATM   13  C12 UNL     1      24.691   4.426  49.992  1.00  0.00    -0.033 A 
HETATM   14  C13 UNL     1      24.203   5.438  50.810  1.00  0.00     0.011 A 
HETATM   15  C14 UNL     1      24.735   6.747  50.807  1.00  0.00     0.019 A 
HETATM   16  C15 UNL     1      25.777   6.956  49.948  1.00  0.00     0.011 A 
HETATM   17 BR1  UNL     1      26.470   8.743  49.937  1.00  0.00    -0.051 Br
HETATM   18  C16 UNL     1      26.241   5.949  49.148  1.00  0.00     0.019 A 
HETATM   19  C17 UNL     1      25.736   4.658  49.125  1.00  0.00     0.011 A 
ENDBRANCH   4  13
BRANCH   1  20
HETATM   20  C4  UNL     1      22.262   0.902  52.212  1.00  0.00    -0.011 C 
HETATM   21  C3  UNL     1      22.846   0.338  53.263  1.00  0.00     0.009 C 
BRANCH  21  22
HETATM   22  C2  UNL     1      21.875  -0.536  53.886  1.00  0.00    -0.008 C 
HETATM   23  C1  UNL     1      22.353  -1.163  54.985  1.00  0.00     0.013 C 
ENDBRANCH  21  22
BRANCH  20  24
HETATM   24  C5  UNL     1      20.969   0.240  52.393  1.00  0.00     0.003 C 
HETATM   25  C6  UNL     1      19.947   0.498  51.572  1.00  0.00     0.012 C 
ENDBRANCH  20  24
ENDBRANCH   1  20
TORSDOF 7
ENDMDL
MODEL 9
REMARK VINA RESULT:      -7.0      3.576      7.254
REMARK  7 active torsions:
REMARK  status: ('A' for Active; 'I' for Inactive)
REMARK    1  A    between atoms: C2_2  and  C3_3 
REMARK    2  A    between atoms: C4_4  and  C5_5 
REMARK    3  A    between atoms: C4_4  and  C7_7 
REMARK    4  A    between atoms: N2_9  and  C8_10 
REMARK    5  A    between atoms: C9_12  and  O1_13 
REMARK    6  A    between atoms: C10_14  and  S1_15 
REMARK    7  A    between atoms: C11_16  and  C12_17 
ROOT
HETATM    1  C7  UNL     1      21.041   0.592  52.390  1.00  0.00     0.067 C 
HETATM    2  N1  UNL     1      21.794   0.786  53.450  1.00  0.00    -0.173 NA
HETATM    3  N2  UNL     1      23.042   1.281  53.060  1.00  0.00    -0.230 N 
HETATM    4  C11 UNL     1      22.475   2.294  52.210  1.00  0.00     0.151 C 
HETATM    5  C18 UNL     1      21.793   1.243  51.248  1.00  0.00     0.094 C 
ENDROOT
BRANCH   3   6
HETATM    6  C8  UNL     1      24.427   1.034  53.269  1.00  0.00     0.301 A 
HETATM    7  N3  UNL     1      25.670   0.820  53.462  1.00  0.00     0.097 N 
HETATM    8  C9  UNL     1      26.089  -0.423  53.384  1.00  0.00     0.354 A 
HETATM    9  C10 UNL     1      27.144   0.580  53.696  1.00  0.00     0.372 A 
HETATM   10  S1  UNL     1      25.985   1.994  53.661  1.00  0.00     0.106 SA
BRANCH   8  11
HETATM   11  O1  UNL     1      26.787  -1.668  53.359  1.00  0.00    -0.357 OA
HETATM   12  H8  UNL     1      27.769  -1.676  53.719  1.00  0.00     0.213 HD
ENDBRANCH   8  11
ENDBRANCH   3   6
BRANCH   4  13
HETATM   13  C12 UNL     1      23.359   3.213  51.504  1.00  0.00    -0.033 A 
HETATM   14  C13 UNL     1      23.954   2.657  50.378  1.00  0.00     0.011 A 
HETATM   15  C14 UNL     1      24.873   3.362  49.571  1.00  0.00     0.019 A 
HETATM   16  C15 UNL     1      25.138   4.644  49.964  1.00  0.00     0.011 A 
HETATM   17 BR1  UNL     1      26.407   5.580  48.873  1.00  0.00    -0.051 Br
HETATM   18  C16 UNL     1      24.547   5.174  51.077  1.00  0.00     0.019 A 
HETATM   19  C17 UNL     1      23.646   4.504  51.891  1.00  0.00     0.011 A 
ENDBRANCH   4  13
BRANCH   1  20
HETATM   20  C4  UNL     1      19.725   0.104  52.104  1.00  0.00    -0.011 C 
HETATM   21  C3  UNL     1      18.743   0.203  51.214  1.00  0.00     0.009 C 
BRANCH  21  22
HETATM   22  C2  UNL     1      17.607  -0.528  51.732  1.00  0.00    -0.008 C 
HETATM   23  C1  UNL     1      16.525  -0.472  50.923  1.00  0.00     0.013 C 
ENDBRANCH  21  22
BRANCH  20  24
HETATM   24  C5  UNL     1      18.973  -0.717  53.055  1.00  0.00     0.003 C 
HETATM   25  C6  UNL     1      19.600  -1.585  53.855  1.00  0.00     0.012 C 
ENDBRANCH  20  24
ENDBRANCH   1  20
TORSDOF 7
ENDMDL
