MODEL 1
REMARK VINA RESULT:      -9.3      0.000      0.000
REMARK  6 active torsions:
REMARK  status: ('A' for Active; 'I' for Inactive)
REMARK       I    between atoms: C1_2  and  N1_3 
REMARK    1  A    between atoms: C1_2  and  C16_25 
REMARK    2  A    between atoms: N1_3  and  C2_4 
REMARK    3  A    between atoms: C5_9  and  C6_10 
REMARK    4  A    between atoms: C6_10  and  N3_11 
REMARK    5  A    between atoms: N3_11  and  C7_12 
REMARK    6  A    between atoms: C9_16  and  C10_17 
ROOT
HETATM    1  C2  UNL     1      23.298  -0.163  53.223  1.00  0.00     0.138 C 
HETATM    2  N2  UNL     1      22.562  -0.292  54.271  1.00  0.00    -0.119 NA
HETATM    3  O2  UNL     1      21.253   0.089  54.361  1.00  0.00    -0.251 OA
HETATM    4  C3  UNL     1      20.632   0.793  53.309  1.00  0.00     0.238 C 
HETATM    5  C4  UNL     1      21.673   1.476  52.506  1.00  0.00    -0.049 C 
HETATM    6  C5  UNL     1      21.834   2.758  52.176  1.00  0.00    -0.002 C 
HETATM    7  C15 UNL     1      22.643   0.449  52.041  1.00  0.00     0.117 C 
ENDROOT
BRANCH   6   8
HETATM    8  C6  UNL     1      21.284   4.112  52.300  1.00  0.00     0.165 C 
BRANCH   8   9
HETATM    9  N3  UNL     1      22.293   5.126  52.536  1.00  0.00    -0.219 N 
HETATM   10  H7  UNL     1      22.943   5.734  53.117  1.00  0.00     0.178 HD
BRANCH   9  11
HETATM   11  C7  UNL     1      22.709   5.696  51.273  1.00  0.00     0.723 A 
HETATM   12  N4  UNL     1      21.717   6.438  50.724  1.00  0.00    -0.074 NA
HETATM   13  C8  UNL     1      21.857   7.083  49.532  1.00  0.00     0.154 A 
HETATM   14  P1  UNL     1      23.405   6.882  48.772  1.00  0.00     0.021 P 
HETATM   15  C9  UNL     1      24.481   5.883  49.695  1.00  0.00     0.101 A 
HETATM   16  N6  UNL     1      23.973   5.402  50.870  1.00  0.00    -0.061 NA
BRANCH  15  17
HETATM   17  C10 UNL     1      25.849   5.555  49.263  1.00  0.00     0.012 A 
HETATM   18  C11 UNL     1      26.442   6.688  48.694  1.00  0.00     0.017 A 
HETATM   19  C12 UNL     1      27.731   6.638  48.207  1.00  0.00     0.020 A 
HETATM   20  C13 UNL     1      28.401   5.434  48.306  1.00  0.00     0.116 A 
HETATM   21  N5  UNL     1      27.818   4.357  48.853  1.00  0.00    -0.272 NA
HETATM   22  C14 UNL     1      26.563   4.384  49.333  1.00  0.00     0.130 A 
ENDBRANCH  15  17
ENDBRANCH   9  11
ENDBRANCH   8   9
ENDBRANCH   6   8
BRANCH   1  23
HETATM   23  N1  UNL     1      24.641  -0.613  53.306  1.00  0.00    -0.309 N 
HETATM   24  C1  UNL     1      25.732   0.291  53.239  1.00  0.00     0.257 C 
HETATM   25  O1  UNL     1      25.528   1.522  53.104  1.00  0.00    -0.267 OA
HETATM   26  H1  UNL     1      24.784  -1.639  53.416  1.00  0.00     0.170 HD
BRANCH  24  27
HETATM   27  C16 UNL     1      27.114  -0.159  53.323  1.00  0.00     0.032 A 
HETATM   28  C17 UNL     1      28.063   0.747  53.748  1.00  0.00     0.017 A 
HETATM   29  C18 UNL     1      29.385   0.334  53.836  1.00  0.00     0.001 A 
HETATM   30  C19 UNL     1      29.810  -0.956  53.516  1.00  0.00     0.000 A 
HETATM   31  C20 UNL     1      28.849  -1.858  53.088  1.00  0.00     0.001 A 
HETATM   32  C21 UNL     1      27.545  -1.430  53.008  1.00  0.00     0.017 A 
ENDBRANCH  24  27
ENDBRANCH   1  23
TORSDOF 6
ENDMDL
MODEL 2
REMARK VINA RESULT:      -9.1      2.672      6.269
REMARK  6 active torsions:
REMARK  status: ('A' for Active; 'I' for Inactive)
REMARK       I    between atoms: C1_2  and  N1_3 
REMARK    1  A    between atoms: C1_2  and  C16_25 
REMARK    2  A    between atoms: N1_3  and  C2_4 
REMARK    3  A    between atoms: C5_9  and  C6_10 
REMARK    4  A    between atoms: C6_10  and  N3_11 
REMARK    5  A    between atoms: N3_11  and  C7_12 
REMARK    6  A    between atoms: C9_16  and  C10_17 
ROOT
HETATM    1  C2  UNL     1      26.461   1.689  52.748  1.00  0.00     0.138 C 
HETATM    2  N2  UNL     1      26.629   1.917  54.003  1.00  0.00    -0.119 NA
HETATM    3  O2  UNL     1      26.435   1.001  54.998  1.00  0.00    -0.251 OA
HETATM    4  C3  UNL     1      25.891  -0.268  54.715  1.00  0.00     0.238 C 
HETATM    5  C4  UNL     1      25.116  -0.190  53.454  1.00  0.00    -0.049 C 
HETATM    6  C5  UNL     1      23.847  -0.491  53.177  1.00  0.00    -0.002 C 
HETATM    7  C15 UNL     1      26.021   0.319  52.389  1.00  0.00     0.117 C 
ENDROOT
BRANCH   6   8
HETATM    8  C6  UNL     1      22.580  -0.988  53.724  1.00  0.00     0.165 C 
BRANCH   8   9
HETATM    9  N3  UNL     1      21.772   0.046  54.339  1.00  0.00    -0.219 N 
HETATM   10  H7  UNL     1      21.447   0.691  55.119  1.00  0.00     0.178 HD
BRANCH   9  11
HETATM   11  C7  UNL     1      20.806   0.538  53.381  1.00  0.00     0.723 A 
HETATM   12  N4  UNL     1      19.821  -0.369  53.173  1.00  0.00    -0.074 NA
HETATM   13  C8  UNL     1      18.788  -0.146  52.313  1.00  0.00     0.154 A 
HETATM   14  P1  UNL     1      18.830   1.391  51.505  1.00  0.00     0.021 P 
HETATM   15  C9  UNL     1      20.202   2.350  51.960  1.00  0.00     0.101 A 
HETATM   16  N6  UNL     1      21.043   1.777  52.873  1.00  0.00    -0.061 NA
BRANCH  15  17
HETATM   17  C10 UNL     1      20.468   3.690  51.411  1.00  0.00     0.012 A 
HETATM   18  C11 UNL     1      21.598   4.232  52.034  1.00  0.00     0.017 A 
HETATM   19  C12 UNL     1      22.054   5.488  51.692  1.00  0.00     0.020 A 
HETATM   20  C13 UNL     1      21.353   6.176  50.720  1.00  0.00     0.116 A 
HETATM   21  N5  UNL     1      20.272   5.641  50.134  1.00  0.00    -0.272 NA
HETATM   22  C14 UNL     1      19.810   4.419  50.451  1.00  0.00     0.130 A 
ENDBRANCH  15  17
ENDBRANCH   9  11
ENDBRANCH   8   9
ENDBRANCH   6   8
BRANCH   1  23
HETATM   23  N1  UNL     1      26.709   2.759  51.849  1.00  0.00    -0.309 N 
HETATM   24  C1  UNL     1      25.706   3.236  50.966  1.00  0.00     0.257 C 
HETATM   25  O1  UNL     1      24.565   2.713  50.964  1.00  0.00    -0.267 OA
HETATM   26  H1  UNL     1      27.664   3.175  51.870  1.00  0.00     0.170 HD
BRANCH  24  27
HETATM   27  C16 UNL     1      25.949   4.332  50.040  1.00  0.00     0.032 A 
HETATM   28  C17 UNL     1      27.141   4.340  49.348  1.00  0.00     0.017 A 
HETATM   29  C18 UNL     1      27.386   5.377  48.458  1.00  0.00     0.001 A 
HETATM   30  C19 UNL     1      26.488   6.419  48.225  1.00  0.00     0.000 A 
HETATM   31  C20 UNL     1      25.293   6.402  48.927  1.00  0.00     0.001 A 
HETATM   32  C21 UNL     1      25.068   5.365  49.802  1.00  0.00     0.017 A 
ENDBRANCH  24  27
ENDBRANCH   1  23
TORSDOF 6
ENDMDL
MODEL 3
REMARK VINA RESULT:      -9.1      3.249      6.007
REMARK  6 active torsions:
REMARK  status: ('A' for Active; 'I' for Inactive)
REMARK       I    between atoms: C1_2  and  N1_3 
REMARK    1  A    between atoms: C1_2  and  C16_25 
REMARK    2  A    between atoms: N1_3  and  C2_4 
REMARK    3  A    between atoms: C5_9  and  C6_10 
REMARK    4  A    between atoms: C6_10  and  N3_11 
REMARK    5  A    between atoms: N3_11  and  C7_12 
REMARK    6  A    between atoms: C9_16  and  C10_17 
ROOT
HETATM    1  C2  UNL     1      24.931   2.853  51.909  1.00  0.00     0.138 C 
HETATM    2  N2  UNL     1      25.262   3.686  50.986  1.00  0.00    -0.119 NA
HETATM    3  O2  UNL     1      24.712   4.924  50.813  1.00  0.00    -0.251 OA
HETATM    4  C3  UNL     1      23.610   5.339  51.588  1.00  0.00     0.238 C 
HETATM    5  C4  UNL     1      22.894   4.142  52.087  1.00  0.00    -0.049 C 
HETATM    6  C5  UNL     1      21.622   3.760  51.968  1.00  0.00    -0.002 C 
HETATM    7  C15 UNL     1      23.867   3.304  52.839  1.00  0.00     0.117 C 
ENDROOT
BRANCH   6   8
HETATM    8  C6  UNL     1      20.308   4.105  51.417  1.00  0.00     0.165 C 
BRANCH   8   9
HETATM    9  N3  UNL     1      19.836   3.167  50.416  1.00  0.00    -0.219 N 
HETATM   10  H7  UNL     1      19.614   2.821  49.436  1.00  0.00     0.178 HD
BRANCH   9  11
HETATM   11  C7  UNL     1      19.377   1.959  51.066  1.00  0.00     0.723 A 
HETATM   12  N4  UNL     1      18.100   1.673  50.714  1.00  0.00    -0.074 NA
HETATM   13  C8  UNL     1      17.435   0.583  51.191  1.00  0.00     0.154 A 
HETATM   14  P1  UNL     1      18.349  -0.410  52.283  1.00  0.00     0.021 P 
HETATM   15  C9  UNL     1      19.953   0.193  52.555  1.00  0.00     0.101 A 
HETATM   16  N6  UNL     1      20.270   1.342  51.885  1.00  0.00    -0.061 NA
BRANCH  15  17
HETATM   17  C10 UNL     1      20.923  -0.466  53.444  1.00  0.00     0.012 A 
HETATM   18  C11 UNL     1      22.178   0.132  53.289  1.00  0.00     0.017 A 
HETATM   19  C12 UNL     1      23.263  -0.311  54.016  1.00  0.00     0.020 A 
HETATM   20  C13 UNL     1      23.055  -1.358  54.894  1.00  0.00     0.116 A 
HETATM   21  N5  UNL     1      21.845  -1.920  55.030  1.00  0.00    -0.272 NA
HETATM   22  C14 UNL     1      20.775  -1.504  54.332  1.00  0.00     0.130 A 
ENDBRANCH  15  17
ENDBRANCH   9  11
ENDBRANCH   8   9
ENDBRANCH   6   8
BRANCH   1  23
HETATM   23  N1  UNL     1      25.607   1.606  51.941  1.00  0.00    -0.309 N 
HETATM   24  C1  UNL     1      26.582   1.315  52.929  1.00  0.00     0.257 C 
HETATM   25  O1  UNL     1      26.869   2.167  53.806  1.00  0.00    -0.267 OA
HETATM   26  H1  UNL     1      25.352   0.917  51.202  1.00  0.00     0.170 HD
BRANCH  24  27
HETATM   27  C16 UNL     1      27.283   0.040  52.973  1.00  0.00     0.032 A 
HETATM   28  C17 UNL     1      28.576   0.030  53.453  1.00  0.00     0.017 A 
HETATM   29  C18 UNL     1      29.257  -1.179  53.504  1.00  0.00     0.001 A 
HETATM   30  C19 UNL     1      28.703  -2.391  53.092  1.00  0.00     0.000 A 
HETATM   31  C20 UNL     1      27.403  -2.370  52.609  1.00  0.00     0.001 A 
HETATM   32  C21 UNL     1      26.745  -1.163  52.568  1.00  0.00     0.017 A 
ENDBRANCH  24  27
ENDBRANCH   1  23
TORSDOF 6
ENDMDL
MODEL 4
REMARK VINA RESULT:      -8.9      3.755      6.759
REMARK  6 active torsions:
REMARK  status: ('A' for Active; 'I' for Inactive)
REMARK       I    between atoms: C1_2  and  N1_3 
REMARK    1  A    between atoms: C1_2  and  C16_25 
REMARK    2  A    between atoms: N1_3  and  C2_4 
REMARK    3  A    between atoms: C5_9  and  C6_10 
REMARK    4  A    between atoms: C6_10  and  N3_11 
REMARK    5  A    between atoms: N3_11  and  C7_12 
REMARK    6  A    between atoms: C9_16  and  C10_17 
ROOT
HETATM    1  C2  UNL     1      24.351   3.758  51.050  1.00  0.00     0.138 C 
HETATM    2  N2  UNL     1      24.144   4.977  51.407  1.00  0.00    -0.119 NA
HETATM    3  O2  UNL     1      24.330   6.069  50.608  1.00  0.00    -0.251 OA
HETATM    4  C3  UNL     1      24.907   5.938  49.329  1.00  0.00     0.238 C 
HETATM    5  C4  UNL     1      25.714   4.696  49.289  1.00  0.00    -0.049 C 
HETATM    6  C5  UNL     1      26.995   4.484  48.989  1.00  0.00    -0.002 C 
HETATM    7  C15 UNL     1      24.827   3.560  49.660  1.00  0.00     0.117 C 
ENDROOT
BRANCH   6   8
HETATM    8  C6  UNL     1      28.257   5.112  48.583  1.00  0.00     0.165 C 
BRANCH   8   9
HETATM    9  N3  UNL     1      28.267   6.552  48.754  1.00  0.00    -0.219 N 
HETATM   10  H7  UNL     1      27.852   7.512  48.940  1.00  0.00     0.178 HD
BRANCH   9  11
HETATM   11  C7  UNL     1      29.616   7.048  48.582  1.00  0.00     0.723 A 
HETATM   12  N4  UNL     1      29.636   8.402  48.552  1.00  0.00    -0.074 NA
HETATM   13  C8  UNL     1      30.786   9.115  48.399  1.00  0.00     0.154 A 
HETATM   14  P1  UNL     1      32.225   8.156  48.247  1.00  0.00     0.021 P 
HETATM   15  C9  UNL     1      31.905   6.452  48.319  1.00  0.00     0.101 A 
HETATM   16  N6  UNL     1      30.593   6.107  48.484  1.00  0.00    -0.061 NA
BRANCH  15  17
HETATM   17  C10 UNL     1      32.957   5.428  48.208  1.00  0.00     0.012 A 
HETATM   18  C11 UNL     1      32.405   4.247  47.697  1.00  0.00     0.017 A 
HETATM   19  C12 UNL     1      33.191   3.132  47.500  1.00  0.00     0.020 A 
HETATM   20  C13 UNL     1      34.530   3.233  47.825  1.00  0.00     0.116 A 
HETATM   21  N5  UNL     1      35.043   4.371  48.314  1.00  0.00    -0.272 NA
HETATM   22  C14 UNL     1      34.295   5.470  48.514  1.00  0.00     0.130 A 
ENDBRANCH  15  17
ENDBRANCH   9  11
ENDBRANCH   8   9
ENDBRANCH   6   8
BRANCH   1  23
HETATM   23  N1  UNL     1      24.105   2.743  52.012  1.00  0.00    -0.309 N 
HETATM   24  C1  UNL     1      22.913   1.974  51.992  1.00  0.00     0.257 C 
HETATM   25  O1  UNL     1      22.041   2.180  51.112  1.00  0.00    -0.267 OA
HETATM   26  H1  UNL     1      24.843   2.593  52.731  1.00  0.00     0.170 HD
BRANCH  24  27
HETATM   27  C16 UNL     1      22.650   0.930  52.972  1.00  0.00     0.032 A 
HETATM   28  C17 UNL     1      23.695   0.106  53.333  1.00  0.00     0.017 A 
HETATM   29  C18 UNL     1      23.460  -0.893  54.269  1.00  0.00     0.001 A 
HETATM   30  C19 UNL     1      22.219  -1.110  54.867  1.00  0.00     0.000 A 
HETATM   31  C20 UNL     1      21.175  -0.276  54.496  1.00  0.00     0.001 A 
HETATM   32  C21 UNL     1      21.428   0.707  53.568  1.00  0.00     0.017 A 
ENDBRANCH  24  27
ENDBRANCH   1  23
TORSDOF 6
ENDMDL
MODEL 5
REMARK VINA RESULT:      -8.8      3.103      7.416
REMARK  6 active torsions:
REMARK  status: ('A' for Active; 'I' for Inactive)
REMARK       I    between atoms: C1_2  and  N1_3 
REMARK    1  A    between atoms: C1_2  and  C16_25 
REMARK    2  A    between atoms: N1_3  and  C2_4 
REMARK    3  A    between atoms: C5_9  and  C6_10 
REMARK    4  A    between atoms: C6_10  and  N3_11 
REMARK    5  A    between atoms: N3_11  and  C7_12 
REMARK    6  A    between atoms: C9_16  and  C10_17 
ROOT
HETATM    1  C2  UNL     1      27.116   5.400  48.957  1.00  0.00     0.138 C 
HETATM    2  N2  UNL     1      27.328   4.192  49.347  1.00  0.00    -0.119 NA
HETATM    3  O2  UNL     1      26.362   3.239  49.504  1.00  0.00    -0.251 OA
HETATM    4  C3  UNL     1      24.997   3.564  49.368  1.00  0.00     0.238 C 
HETATM    5  C4  UNL     1      24.822   5.015  49.611  1.00  0.00    -0.049 C 
HETATM    6  C5  UNL     1      24.051   5.680  50.472  1.00  0.00    -0.002 C 
HETATM    7  C15 UNL     1      25.705   5.751  48.666  1.00  0.00     0.117 C 
ENDROOT
BRANCH   6   8
HETATM    8  C6  UNL     1      23.060   5.555  51.546  1.00  0.00     0.165 C 
BRANCH   8   9
HETATM    9  N3  UNL     1      23.627   5.122  52.809  1.00  0.00    -0.219 N 
HETATM   10  H7  UNL     1      24.034   5.241  53.783  1.00  0.00     0.178 HD
BRANCH   9  11
HETATM   11  C7  UNL     1      23.736   3.679  52.819  1.00  0.00     0.723 A 
HETATM   12  N4  UNL     1      22.607   3.103  52.343  1.00  0.00    -0.074 NA
HETATM   13  C8  UNL     1      22.457   1.752  52.249  1.00  0.00     0.154 A 
HETATM   14  P1  UNL     1      23.824   0.826  52.786  1.00  0.00     0.021 P 
HETATM   15  C9  UNL     1      25.130   1.823  53.346  1.00  0.00     0.101 A 
HETATM   16  N6  UNL     1      24.907   3.170  53.287  1.00  0.00    -0.061 NA
BRANCH  15  17
HETATM   17  C10 UNL     1      26.398   1.279  53.859  1.00  0.00     0.012 A 
HETATM   18  C11 UNL     1      27.459   2.079  53.421  1.00  0.00     0.017 A 
HETATM   19  C12 UNL     1      28.759   1.776  53.769  1.00  0.00     0.020 A 
HETATM   20  C13 UNL     1      28.961   0.661  54.559  1.00  0.00     0.116 A 
HETATM   21  N5  UNL     1      27.933  -0.096  54.969  1.00  0.00    -0.272 NA
HETATM   22  C14 UNL     1      26.659   0.181  54.642  1.00  0.00     0.130 A 
ENDBRANCH  15  17
ENDBRANCH   9  11
ENDBRANCH   8   9
ENDBRANCH   6   8
BRANCH   1  23
HETATM   23  N1  UNL     1      28.240   6.261  48.848  1.00  0.00    -0.309 N 
HETATM   24  C1  UNL     1      29.464   5.816  48.287  1.00  0.00     0.257 C 
HETATM   25  O1  UNL     1      29.578   4.637  47.871  1.00  0.00    -0.267 OA
HETATM   26  H1  UNL     1      28.119   7.233  49.201  1.00  0.00     0.170 HD
BRANCH  24  27
HETATM   27  C16 UNL     1      30.623   6.688  48.170  1.00  0.00     0.032 A 
HETATM   28  C17 UNL     1      31.057   7.019  46.903  1.00  0.00     0.017 A 
HETATM   29  C18 UNL     1      32.159   7.853  46.774  1.00  0.00     0.001 A 
HETATM   30  C19 UNL     1      32.858   8.378  47.862  1.00  0.00     0.000 A 
HETATM   31  C20 UNL     1      32.414   8.038  49.131  1.00  0.00     0.001 A 
HETATM   32  C21 UNL     1      31.319   7.212  49.237  1.00  0.00     0.017 A 
ENDBRANCH  24  27
ENDBRANCH   1  23
TORSDOF 6
ENDMDL
MODEL 6
REMARK VINA RESULT:      -8.7      4.174      7.287
REMARK  6 active torsions:
REMARK  status: ('A' for Active; 'I' for Inactive)
REMARK       I    between atoms: C1_2  and  N1_3 
REMARK    1  A    between atoms: C1_2  and  C16_25 
REMARK    2  A    between atoms: N1_3  and  C2_4 
REMARK    3  A    between atoms: C5_9  and  C6_10 
REMARK    4  A    between atoms: C6_10  and  N3_11 
REMARK    5  A    between atoms: N3_11  and  C7_12 
REMARK    6  A    between atoms: C9_16  and  C10_17 
ROOT
HETATM    1  C2  UNL     1      25.917   4.808  50.025  1.00  0.00     0.138 C 
HETATM    2  N2  UNL     1      25.040   5.683  50.375  1.00  0.00    -0.119 NA
HETATM    3  O2  UNL     1      24.735   6.812  49.669  1.00  0.00    -0.251 OA
HETATM    4  C3  UNL     1      25.480   7.175  48.529  1.00  0.00     0.238 C 
HETATM    5  C4  UNL     1      26.819   6.547  48.610  1.00  0.00    -0.049 C 
HETATM    6  C5  UNL     1      28.045   7.071  48.568  1.00  0.00    -0.002 C 
HETATM    7  C15 UNL     1      26.632   5.078  48.753  1.00  0.00     0.117 C 
ENDROOT
BRANCH   6   8
HETATM    8  C6  UNL     1      28.821   8.310  48.448  1.00  0.00     0.165 C 
BRANCH   8   9
HETATM    9  N3  UNL     1      29.951   8.373  49.354  1.00  0.00    -0.219 N 
HETATM   10  H7  UNL     1      30.443   8.494  50.288  1.00  0.00     0.178 HD
BRANCH   9  11
HETATM   11  C7  UNL     1      31.175   8.151  48.614  1.00  0.00     0.723 A 
HETATM   12  N4  UNL     1      31.730   9.324  48.227  1.00  0.00    -0.074 NA
HETATM   13  C8  UNL     1      32.890   9.387  47.515  1.00  0.00     0.154 A 
HETATM   14  P1  UNL     1      33.603   7.849  47.144  1.00  0.00     0.021 P 
HETATM   15  C9  UNL     1      32.680   6.516  47.762  1.00  0.00     0.101 A 
HETATM   16  N6  UNL     1      31.544   6.853  48.442  1.00  0.00    -0.061 NA
BRANCH  15  17
HETATM   17  C10 UNL     1      33.070   5.108  47.575  1.00  0.00     0.012 A 
HETATM   18  C11 UNL     1      32.012   4.406  46.988  1.00  0.00     0.017 A 
HETATM   19  C12 UNL     1      32.130   3.060  46.710  1.00  0.00     0.020 A 
HETATM   20  C13 UNL     1      33.325   2.447  47.034  1.00  0.00     0.116 A 
HETATM   21  N5  UNL     1      34.328   3.135  47.596  1.00  0.00    -0.272 NA
HETATM   22  C14 UNL     1      34.236   4.446  47.875  1.00  0.00     0.130 A 
ENDBRANCH  15  17
ENDBRANCH   9  11
ENDBRANCH   8   9
ENDBRANCH   6   8
BRANCH   1  23
HETATM   23  N1  UNL     1      26.107   3.691  50.880  1.00  0.00    -0.309 N 
HETATM   24  C1  UNL     1      25.175   2.623  50.924  1.00  0.00     0.257 C 
HETATM   25  O1  UNL     1      24.151   2.645  50.198  1.00  0.00    -0.267 OA
HETATM   26  H1  UNL     1      26.964   3.698  51.472  1.00  0.00     0.170 HD
BRANCH  24  27
HETATM   27  C16 UNL     1      25.359   1.472  51.797  1.00  0.00     0.032 A 
HETATM   28  C17 UNL     1      24.318   1.120  52.629  1.00  0.00     0.017 A 
HETATM   29  C18 UNL     1      24.476   0.024  53.465  1.00  0.00     0.001 A 
HETATM   30  C19 UNL     1      25.639  -0.746  53.511  1.00  0.00     0.000 A 
HETATM   31  C20 UNL     1      26.680  -0.383  52.672  1.00  0.00     0.001 A 
HETATM   32  C21 UNL     1      26.503   0.706  51.850  1.00  0.00     0.017 A 
ENDBRANCH  24  27
ENDBRANCH   1  23
TORSDOF 6
ENDMDL
MODEL 7
REMARK VINA RESULT:      -8.7      3.071      6.322
REMARK  6 active torsions:
REMARK  status: ('A' for Active; 'I' for Inactive)
REMARK       I    between atoms: C1_2  and  N1_3 
REMARK    1  A    between atoms: C1_2  and  C16_25 
REMARK    2  A    between atoms: N1_3  and  C2_4 
REMARK    3  A    between atoms: C5_9  and  C6_10 
REMARK    4  A    between atoms: C6_10  and  N3_11 
REMARK    5  A    between atoms: N3_11  and  C7_12 
REMARK    6  A    between atoms: C9_16  and  C10_17 
ROOT
HETATM    1  C2  UNL     1      25.820   4.030  50.570  1.00  0.00     0.138 C 
HETATM    2  N2  UNL     1      26.299   4.597  49.518  1.00  0.00    -0.119 NA
HETATM    3  O2  UNL     1      25.571   5.326  48.621  1.00  0.00    -0.251 OA
HETATM    4  C3  UNL     1      24.167   5.402  48.723  1.00  0.00     0.238 C 
HETATM    5  C4  UNL     1      23.674   4.226  49.477  1.00  0.00    -0.049 C 
HETATM    6  C5  UNL     1      22.781   3.287  49.163  1.00  0.00    -0.002 C 
HETATM    7  C15 UNL     1      24.364   4.202  50.794  1.00  0.00     0.117 C 
ENDROOT
BRANCH   6   8
HETATM    8  C6  UNL     1      21.851   2.804  48.138  1.00  0.00     0.165 C 
BRANCH   8   9
HETATM    9  N3  UNL     1      21.552   1.389  48.248  1.00  0.00    -0.219 N 
HETATM   10  H7  UNL     1      21.546   0.370  47.946  1.00  0.00     0.178 HD
BRANCH   9  11
HETATM   11  C7  UNL     1      20.833   1.143  49.479  1.00  0.00     0.723 A 
HETATM   12  N4  UNL     1      19.527   1.483  49.356  1.00  0.00    -0.074 NA
HETATM   13  C8  UNL     1      18.634   1.346  50.376  1.00  0.00     0.154 A 
HETATM   14  P1  UNL     1      19.298   0.701  51.845  1.00  0.00     0.021 P 
HETATM   15  C9  UNL     1      20.994   0.355  51.720  1.00  0.00     0.101 A 
HETATM   16  N6  UNL     1      21.561   0.631  50.507  1.00  0.00    -0.061 NA
BRANCH  15  17
HETATM   17  C10 UNL     1      21.790  -0.192  52.830  1.00  0.00     0.012 A 
HETATM   18  C11 UNL     1      20.954  -0.910  53.692  1.00  0.00     0.017 A 
HETATM   19  C12 UNL     1      21.465  -1.523  54.817  1.00  0.00     0.020 A 
HETATM   20  C13 UNL     1      22.821  -1.397  55.050  1.00  0.00     0.116 A 
HETATM   21  N5  UNL     1      23.607  -0.705  54.213  1.00  0.00    -0.272 NA
HETATM   22  C14 UNL     1      23.131  -0.100  53.111  1.00  0.00     0.130 A 
ENDBRANCH  15  17
ENDBRANCH   9  11
ENDBRANCH   8   9
ENDBRANCH   6   8
BRANCH   1  23
HETATM   23  N1  UNL     1      26.723   3.310  51.395  1.00  0.00    -0.309 N 
HETATM   24  C1  UNL     1      26.500   1.949  51.727  1.00  0.00     0.257 C 
HETATM   25  O1  UNL     1      25.487   1.348  51.293  1.00  0.00    -0.267 OA
HETATM   26  H1  UNL     1      27.555   3.831  51.744  1.00  0.00     0.170 HD
BRANCH  24  27
HETATM   27  C16 UNL     1      27.418   1.199  52.572  1.00  0.00     0.032 A 
HETATM   28  C17 UNL     1      27.293  -0.174  52.602  1.00  0.00     0.017 A 
HETATM   29  C18 UNL     1      28.163  -0.904  53.401  1.00  0.00     0.001 A 
HETATM   30  C19 UNL     1      29.163  -0.321  54.180  1.00  0.00     0.000 A 
HETATM   31  C20 UNL     1      29.280   1.060  54.143  1.00  0.00     0.001 A 
HETATM   32  C21 UNL     1      28.409   1.764  53.345  1.00  0.00     0.017 A 
ENDBRANCH  24  27
ENDBRANCH   1  23
TORSDOF 6
ENDMDL
MODEL 8
REMARK VINA RESULT:      -8.6      1.846      2.343
REMARK  6 active torsions:
REMARK  status: ('A' for Active; 'I' for Inactive)
REMARK       I    between atoms: C1_2  and  N1_3 
REMARK    1  A    between atoms: C1_2  and  C16_25 
REMARK    2  A    between atoms: N1_3  and  C2_4 
REMARK    3  A    between atoms: C5_9  and  C6_10 
REMARK    4  A    between atoms: C6_10  and  N3_11 
REMARK    5  A    between atoms: N3_11  and  C7_12 
REMARK    6  A    between atoms: C9_16  and  C10_17 
ROOT
HETATM    1  C2  UNL     1      24.461   2.017  52.410  1.00  0.00     0.138 C 
HETATM    2  N2  UNL     1      24.838   3.237  52.249  1.00  0.00    -0.119 NA
HETATM    3  O2  UNL     1      24.013   4.324  52.297  1.00  0.00    -0.251 OA
HETATM    4  C3  UNL     1      22.616   4.167  52.402  1.00  0.00     0.238 C 
HETATM    5  C4  UNL     1      22.243   2.826  51.894  1.00  0.00    -0.049 C 
HETATM    6  C5  UNL     1      21.390   2.449  50.942  1.00  0.00    -0.002 C 
HETATM    7  C15 UNL     1      23.014   1.812  52.663  1.00  0.00     0.117 C 
ENDROOT
BRANCH   6   8
HETATM    8  C6  UNL     1      20.429   2.908  49.934  1.00  0.00     0.165 C 
BRANCH   8   9
HETATM    9  N3  UNL     1      21.053   3.390  48.717  1.00  0.00    -0.219 N 
HETATM   10  H7  UNL     1      21.331   3.366  47.692  1.00  0.00     0.178 HD
BRANCH   9  11
HETATM   11  C7  UNL     1      21.712   4.651  48.980  1.00  0.00     0.723 A 
HETATM   12  N4  UNL     1      20.824   5.590  49.385  1.00  0.00    -0.074 NA
HETATM   13  C8  UNL     1      21.193   6.864  49.695  1.00  0.00     0.154 A 
HETATM   14  P1  UNL     1      22.890   7.192  49.534  1.00  0.00     0.021 P 
HETATM   15  C9  UNL     1      23.792   5.809  48.999  1.00  0.00     0.101 A 
HETATM   16  N6  UNL     1      23.058   4.676  48.784  1.00  0.00    -0.061 NA
BRANCH  15  17
HETATM   17  C10 UNL     1      25.248   5.830  48.779  1.00  0.00     0.012 A 
HETATM   18  C11 UNL     1      25.792   4.594  49.145  1.00  0.00     0.017 A 
HETATM   19  C12 UNL     1      27.147   4.362  49.033  1.00  0.00     0.020 A 
HETATM   20  C13 UNL     1      27.930   5.392  48.549  1.00  0.00     0.116 A 
HETATM   21  N5  UNL     1      27.392   6.570  48.203  1.00  0.00    -0.272 NA
HETATM   22  C14 UNL     1      26.075   6.819  48.304  1.00  0.00     0.130 A 
ENDBRANCH  15  17
ENDBRANCH   9  11
ENDBRANCH   8   9
ENDBRANCH   6   8
BRANCH   1  23
HETATM   23  N1  UNL     1      25.455   1.007  52.328  1.00  0.00    -0.309 N 
HETATM   24  C1  UNL     1      26.345   0.752  53.402  1.00  0.00     0.257 C 
HETATM   25  O1  UNL     1      26.269   1.424  54.460  1.00  0.00    -0.267 OA
HETATM   26  H1  UNL     1      25.498   0.465  51.439  1.00  0.00     0.170 HD
BRANCH  24  27
HETATM   27  C16 UNL     1      27.368  -0.280  53.331  1.00  0.00     0.032 A 
HETATM   28  C17 UNL     1      28.647   0.049  53.728  1.00  0.00     0.017 A 
HETATM   29  C18 UNL     1      29.634  -0.925  53.668  1.00  0.00     0.001 A 
HETATM   30  C19 UNL     1      29.403  -2.228  53.225  1.00  0.00     0.000 A 
HETATM   31  C20 UNL     1      28.114  -2.548  52.826  1.00  0.00     0.001 A 
HETATM   32  C21 UNL     1      27.151  -1.569  52.894  1.00  0.00     0.017 A 
ENDBRANCH  24  27
ENDBRANCH   1  23
TORSDOF 6
ENDMDL
MODEL 9
REMARK VINA RESULT:      -8.5      5.447      8.882
REMARK  6 active torsions:
REMARK  status: ('A' for Active; 'I' for Inactive)
REMARK       I    between atoms: C1_2  and  N1_3 
REMARK    1  A    between atoms: C1_2  and  C16_25 
REMARK    2  A    between atoms: N1_3  and  C2_4 
REMARK    3  A    between atoms: C5_9  and  C6_10 
REMARK    4  A    between atoms: C6_10  and  N3_11 
REMARK    5  A    between atoms: N3_11  and  C7_12 
REMARK    6  A    between atoms: C9_16  and  C10_17 
ROOT
HETATM    1  C2  UNL     1      22.760   0.243  52.981  1.00  0.00     0.138 C 
HETATM    2  N2  UNL     1      22.483   0.956  51.947  1.00  0.00    -0.119 NA
HETATM    3  O2  UNL     1      21.327   1.663  51.769  1.00  0.00    -0.251 OA
HETATM    4  C3  UNL     1      20.264   1.552  52.687  1.00  0.00     0.238 C 
HETATM    5  C4  UNL     1      20.380   0.260  53.404  1.00  0.00    -0.049 C 
HETATM    6  C5  UNL     1      19.525  -0.753  53.543  1.00  0.00    -0.002 C 
HETATM    7  C15 UNL     1      21.723   0.207  54.042  1.00  0.00     0.117 C 
ENDROOT
BRANCH   6   8
HETATM    8  C6  UNL     1      18.190  -1.258  53.205  1.00  0.00     0.165 C 
BRANCH   8   9
HETATM    9  N3  UNL     1      17.530  -0.493  52.165  1.00  0.00    -0.219 N 
HETATM   10  H7  UNL     1      17.467   0.103  51.287  1.00  0.00     0.178 HD
BRANCH   9  11
HETATM   11  C7  UNL     1      16.101  -0.500  52.395  1.00  0.00     0.723 A 
HETATM   12  N4  UNL     1      15.584  -1.738  52.210  1.00  0.00    -0.074 NA
HETATM   13  C8  UNL     1      14.258  -2.010  52.366  1.00  0.00     0.154 A 
HETATM   14  P1  UNL     1      13.283  -0.648  52.822  1.00  0.00     0.021 P 
HETATM   15  C9  UNL     1      14.206   0.812  52.988  1.00  0.00     0.101 A 
HETATM   16  N6  UNL     1      15.545   0.691  52.744  1.00  0.00    -0.061 NA
BRANCH  15  17
HETATM   17  C10 UNL     1      13.610   2.106  53.360  1.00  0.00     0.012 A 
HETATM   18  C11 UNL     1      12.459   1.886  54.125  1.00  0.00     0.017 A 
HETATM   19  C12 UNL     1      11.715   2.947  54.597  1.00  0.00     0.020 A 
HETATM   20  C13 UNL     1      12.153   4.219  54.284  1.00  0.00     0.116 A 
HETATM   21  N5  UNL     1      13.258   4.412  53.549  1.00  0.00    -0.272 NA
HETATM   22  C14 UNL     1      13.998   3.393  53.079  1.00  0.00     0.130 A 
ENDBRANCH  15  17
ENDBRANCH   9  11
ENDBRANCH   8   9
ENDBRANCH   6   8
BRANCH   1  23
HETATM   23  N1  UNL     1      24.011  -0.427  53.000  1.00  0.00    -0.309 N 
HETATM   24  C1  UNL     1      25.219   0.263  53.275  1.00  0.00     0.257 C 
HETATM   25  O1  UNL     1      25.204   1.496  53.511  1.00  0.00    -0.267 OA
HETATM   26  H1  UNL     1      23.996  -1.449  52.801  1.00  0.00     0.170 HD
BRANCH  24  27
HETATM   27  C16 UNL     1      26.508  -0.413  53.297  1.00  0.00     0.032 A 
HETATM   28  C17 UNL     1      26.601  -1.644  52.682  1.00  0.00     0.017 A 
HETATM   29  C18 UNL     1      27.825  -2.300  52.691  1.00  0.00     0.001 A 
HETATM   30  C19 UNL     1      28.971  -1.781  53.294  1.00  0.00     0.000 A 
HETATM   31  C20 UNL     1      28.865  -0.544  53.911  1.00  0.00     0.001 A 
HETATM   32  C21 UNL     1      27.646   0.090  53.889  1.00  0.00     0.017 A 
ENDBRANCH  24  27
ENDBRANCH   1  23
TORSDOF 6
ENDMDL
