MODEL 1
REMARK VINA RESULT:      -6.6      0.000      0.000
REMARK  10 active torsions:
REMARK  status: ('A' for Active; 'I' for Inactive)
REMARK    1  A    between atoms: C2_2  and  C3_3 
REMARK    2  A    between atoms: C3_3  and  N1_4 
REMARK    3  A    between atoms: N1_4  and  C4_5 
REMARK    4  A    between atoms: N1_4  and  C17_21 
REMARK    5  A    between atoms: C4_5  and  C5_6 
REMARK    6  A    between atoms: C6_7  and  C7_8 
REMARK    7  A    between atoms: C10_11  and  C11_12 
REMARK    8  A    between atoms: C12_13  and  N2_15 
REMARK    9  A    between atoms: C17_21  and  C18_22 
REMARK   10  A    between atoms: C18_22  and  O1_23 
ROOT
HETATM    1  C7  UNL     1      22.273   0.126  53.268  1.00  0.00     0.051 C 
HETATM    2  C8  UNL     1      21.790  -0.063  52.055  1.00  0.00     0.002 C 
HETATM    3  C9  UNL     1      20.372   0.073  51.724  1.00  0.00     0.049 C 
HETATM    4  C10 UNL     1      19.556   0.148  52.992  1.00  0.00     0.082 C 
HETATM    5  S1  UNL     1      20.830   0.536  54.219  1.00  0.00    -0.112 SA
ENDROOT
BRANCH   1   6
HETATM    6  C6  UNL     1      23.657   0.001  53.622  1.00  0.00    -0.058 C 
HETATM    7  C5  UNL     1      24.823  -0.103  53.899  1.00  0.00    -0.070 C 
BRANCH   7   8
HETATM    8  C4  UNL     1      26.266  -0.233  54.215  1.00  0.00     0.366 C 
BRANCH   8   9
HETATM    9  N1  UNL     1      27.039  -0.337  52.987  1.00  0.00     0.101 N 
BRANCH   9  10
HETATM   10  C3  UNL     1      26.444   0.389  51.892  1.00  0.00     0.273 C 
BRANCH  10  11
HETATM   11  C2  UNL     1      27.028   1.793  51.943  1.00  0.00     0.026 C 
HETATM   12  C1  UNL     1      26.411   2.720  50.918  1.00  0.00     0.007 C 
ENDBRANCH  10  11
ENDBRANCH   9  10
BRANCH   9  13
HETATM   13  C17 UNL     1      27.266  -1.740  52.710  1.00  0.00     0.299 C 
BRANCH  13  14
HETATM   14  C18 UNL     1      28.601  -2.287  53.011  1.00  0.00     0.194 C 
BRANCH  14  15
HETATM   15  O1  UNL     1      28.595  -3.594  53.381  1.00  0.00    -0.399 OA
HETATM   16  H23 UNL     1      28.844  -3.678  54.328  1.00  0.00     0.209 HD
ENDBRANCH  14  15
ENDBRANCH  13  14
ENDBRANCH   9  13
ENDBRANCH   8   9
ENDBRANCH   7   8
ENDBRANCH   1   6
BRANCH   4  17
HETATM   17  C11 UNL     1      18.971  -1.195  53.235  1.00  0.00     0.032 C 
HETATM   18  C12 UNL     1      17.704  -1.351  52.876  1.00  0.00     0.106 C 
HETATM   19 CL1  UNL     1      16.939   0.041  52.182  1.00  0.00    -0.064 Cl
BRANCH  18  20
HETATM   20  N2  UNL     1      16.950  -2.551  53.007  1.00  0.00    -0.324 N 
HETATM   21  C13 UNL     1      17.305  -3.684  53.634  1.00  0.00     0.097 A 
HETATM   22  C14 UNL     1      16.260  -4.577  53.517  1.00  0.00     0.019 A 
HETATM   23  C15 UNL     1      15.236  -3.979  52.800  1.00  0.00     0.019 A 
HETATM   24  C16 UNL     1      15.715  -2.718  52.505  1.00  0.00     0.097 A 
ENDBRANCH  18  20
ENDBRANCH   4  17
TORSDOF 10
ENDMDL
MODEL 2
REMARK VINA RESULT:      -6.5      5.779      8.882
REMARK  10 active torsions:
REMARK  status: ('A' for Active; 'I' for Inactive)
REMARK    1  A    between atoms: C2_2  and  C3_3 
REMARK    2  A    between atoms: C3_3  and  N1_4 
REMARK    3  A    between atoms: N1_4  and  C4_5 
REMARK    4  A    between atoms: N1_4  and  C17_21 
REMARK    5  A    between atoms: C4_5  and  C5_6 
REMARK    6  A    between atoms: C6_7  and  C7_8 
REMARK    7  A    between atoms: C10_11  and  C11_12 
REMARK    8  A    between atoms: C12_13  and  N2_15 
REMARK    9  A    between atoms: C17_21  and  C18_22 
REMARK   10  A    between atoms: C18_22  and  O1_23 
ROOT
HETATM    1  C7  UNL     1      24.019   2.764  52.028  1.00  0.00     0.051 C 
HETATM    2  C8  UNL     1      23.812   3.948  52.572  1.00  0.00     0.002 C 
HETATM    3  C9  UNL     1      23.438   5.133  51.801  1.00  0.00     0.049 C 
HETATM    4  C10 UNL     1      23.628   4.866  50.328  1.00  0.00     0.082 C 
HETATM    5  S1  UNL     1      23.734   3.058  50.299  1.00  0.00    -0.112 SA
ENDROOT
BRANCH   1   6
HETATM    6  C6  UNL     1      24.385   1.585  52.756  1.00  0.00    -0.058 C 
HETATM    7  C5  UNL     1      24.708   0.607  53.377  1.00  0.00    -0.070 C 
BRANCH   7   8
HETATM    8  C4  UNL     1      25.128  -0.587  54.151  1.00  0.00     0.366 C 
BRANCH   8   9
HETATM    9  N1  UNL     1      26.577  -0.709  54.137  1.00  0.00     0.101 N 
BRANCH   9  10
HETATM   10  C3  UNL     1      27.236   0.427  54.735  1.00  0.00     0.273 C 
BRANCH  10  11
HETATM   11  C2  UNL     1      28.357   0.820  53.784  1.00  0.00     0.026 C 
HETATM   12  C1  UNL     1      28.422   2.313  53.543  1.00  0.00     0.007 C 
ENDBRANCH  10  11
ENDBRANCH   9  10
BRANCH   9  13
HETATM   13  C17 UNL     1      26.997  -0.986  52.780  1.00  0.00     0.299 C 
BRANCH  13  14
HETATM   14  C18 UNL     1      27.115  -2.400  52.379  1.00  0.00     0.194 C 
BRANCH  14  15
HETATM   15  O1  UNL     1      28.056  -3.096  53.070  1.00  0.00    -0.399 OA
HETATM   16  H23 UNL     1      27.835  -3.101  54.028  1.00  0.00     0.209 HD
ENDBRANCH  14  15
ENDBRANCH  13  14
ENDBRANCH   9  13
ENDBRANCH   8   9
ENDBRANCH   7   8
ENDBRANCH   1   6
BRANCH   4  17
HETATM   17  C11 UNL     1      24.915   5.482  49.917  1.00  0.00     0.032 C 
HETATM   18  C12 UNL     1      24.914   6.100  48.743  1.00  0.00     0.106 C 
HETATM   19 CL1  UNL     1      23.411   6.083  47.881  1.00  0.00    -0.064 Cl
BRANCH  18  20
HETATM   20  N2  UNL     1      26.030   6.766  48.160  1.00  0.00    -0.324 N 
HETATM   21  C13 UNL     1      26.017   7.815  47.321  1.00  0.00     0.097 A 
HETATM   22  C14 UNL     1      27.326   8.133  47.023  1.00  0.00     0.019 A 
HETATM   23  C15 UNL     1      28.165   7.257  47.695  1.00  0.00     0.019 A 
HETATM   24  C16 UNL     1      27.308   6.426  48.388  1.00  0.00     0.097 A 
ENDBRANCH  18  20
ENDBRANCH   4  17
TORSDOF 10
ENDMDL
MODEL 3
REMARK VINA RESULT:      -6.4      6.119      9.039
REMARK  10 active torsions:
REMARK  status: ('A' for Active; 'I' for Inactive)
REMARK    1  A    between atoms: C2_2  and  C3_3 
REMARK    2  A    between atoms: C3_3  and  N1_4 
REMARK    3  A    between atoms: N1_4  and  C4_5 
REMARK    4  A    between atoms: N1_4  and  C17_21 
REMARK    5  A    between atoms: C4_5  and  C5_6 
REMARK    6  A    between atoms: C6_7  and  C7_8 
REMARK    7  A    between atoms: C10_11  and  C11_12 
REMARK    8  A    between atoms: C12_13  and  N2_15 
REMARK    9  A    between atoms: C17_21  and  C18_22 
REMARK   10  A    between atoms: C18_22  and  O1_23 
ROOT
HETATM    1  C7  UNL     1      23.965   3.981  51.493  1.00  0.00     0.051 C 
HETATM    2  C8  UNL     1      23.622   2.972  50.714  1.00  0.00     0.002 C 
HETATM    3  C9  UNL     1      23.525   1.590  51.184  1.00  0.00     0.049 C 
HETATM    4  C10 UNL     1      24.155   1.469  52.551  1.00  0.00     0.082 C 
HETATM    5  S1  UNL     1      24.231   3.203  53.068  1.00  0.00    -0.112 SA
ENDROOT
BRANCH   1   6
HETATM    6  C6  UNL     1      24.068   5.344  51.063  1.00  0.00    -0.058 C 
HETATM    7  C5  UNL     1      24.140   6.494  50.717  1.00  0.00    -0.070 C 
BRANCH   7   8
HETATM    8  C4  UNL     1      24.211   7.918  50.307  1.00  0.00     0.366 C 
BRANCH   8   9
HETATM    9  N1  UNL     1      25.223   8.093  49.278  1.00  0.00     0.101 N 
BRANCH   9  10
HETATM   10  C3  UNL     1      25.016   7.228  48.142  1.00  0.00     0.273 C 
BRANCH  10  11
HETATM   11  C2  UNL     1      24.646   8.134  46.977  1.00  0.00     0.026 C 
HETATM   12  C1  UNL     1      23.573   7.538  46.091  1.00  0.00     0.007 C 
ENDBRANCH  10  11
ENDBRANCH   9  10
BRANCH   9  13
HETATM   13  C17 UNL     1      26.526   7.956  49.892  1.00  0.00     0.299 C 
BRANCH  13  14
HETATM   14  C18 UNL     1      27.373   9.160  49.970  1.00  0.00     0.194 C 
BRANCH  14  15
HETATM   15  O1  UNL     1      27.665   9.553  51.238  1.00  0.00    -0.399 OA
HETATM   16  H23 UNL     1      27.225   8.957  51.885  1.00  0.00     0.209 HD
ENDBRANCH  14  15
ENDBRANCH  13  14
ENDBRANCH   9  13
ENDBRANCH   8   9
ENDBRANCH   7   8
ENDBRANCH   1   6
BRANCH   4  17
HETATM   17  C11 UNL     1      25.516   0.904  52.375  1.00  0.00     0.032 C 
HETATM   18  C12 UNL     1      25.825  -0.122  53.157  1.00  0.00     0.106 C 
HETATM   19 CL1  UNL     1      24.588  -0.632  54.257  1.00  0.00    -0.064 Cl
BRANCH  18  20
HETATM   20  N2  UNL     1      27.065  -0.822  53.150  1.00  0.00    -0.324 N 
HETATM   21  C13 UNL     1      27.296  -2.088  52.768  1.00  0.00     0.097 A 
HETATM   22  C14 UNL     1      28.644  -2.337  52.920  1.00  0.00     0.019 A 
HETATM   23  C15 UNL     1      29.259  -1.194  53.408  1.00  0.00     0.019 A 
HETATM   24  C16 UNL     1      28.233  -0.280  53.534  1.00  0.00     0.097 A 
ENDBRANCH  18  20
ENDBRANCH   4  17
TORSDOF 10
ENDMDL
MODEL 4
REMARK VINA RESULT:      -6.4      1.960      2.552
REMARK  10 active torsions:
REMARK  status: ('A' for Active; 'I' for Inactive)
REMARK    1  A    between atoms: C2_2  and  C3_3 
REMARK    2  A    between atoms: C3_3  and  N1_4 
REMARK    3  A    between atoms: N1_4  and  C4_5 
REMARK    4  A    between atoms: N1_4  and  C17_21 
REMARK    5  A    between atoms: C4_5  and  C5_6 
REMARK    6  A    between atoms: C6_7  and  C7_8 
REMARK    7  A    between atoms: C10_11  and  C11_12 
REMARK    8  A    between atoms: C12_13  and  N2_15 
REMARK    9  A    between atoms: C17_21  and  C18_22 
REMARK   10  A    between atoms: C18_22  and  O1_23 
ROOT
HETATM    1  C7  UNL     1      21.923   1.614  52.168  1.00  0.00     0.051 C 
HETATM    2  C8  UNL     1      21.667   1.086  50.986  1.00  0.00     0.002 C 
HETATM    3  C9  UNL     1      20.312   0.830  50.497  1.00  0.00     0.049 C 
HETATM    4  C10 UNL     1      19.325   0.966  51.630  1.00  0.00     0.082 C 
HETATM    5  S1  UNL     1      20.306   1.865  52.859  1.00  0.00    -0.112 SA
ENDROOT
BRANCH   1   6
HETATM    6  C6  UNL     1      23.238   1.877  52.674  1.00  0.00    -0.058 C 
HETATM    7  C5  UNL     1      24.338   2.119  53.096  1.00  0.00    -0.070 C 
BRANCH   7   8
HETATM    8  C4  UNL     1      25.691   2.442  53.610  1.00  0.00     0.366 C 
BRANCH   8   9
HETATM    9  N1  UNL     1      26.671   1.524  53.053  1.00  0.00     0.101 N 
BRANCH   9  10
HETATM   10  C3  UNL     1      26.622   0.219  53.667  1.00  0.00     0.273 C 
BRANCH  10  11
HETATM   11  C2  UNL     1      26.348  -0.772  52.545  1.00  0.00     0.026 C 
HETATM   12  C1  UNL     1      27.174  -2.034  52.666  1.00  0.00     0.007 C 
ENDBRANCH  10  11
ENDBRANCH   9  10
BRANCH   9  13
HETATM   13  C17 UNL     1      27.973   2.154  53.112  1.00  0.00     0.299 C 
BRANCH  13  14
HETATM   14  C18 UNL     1      28.999   1.520  53.960  1.00  0.00     0.194 C 
BRANCH  14  15
HETATM   15  O1  UNL     1      29.690   2.392  54.740  1.00  0.00    -0.399 OA
HETATM   16  H23 UNL     1      30.597   2.520  54.380  1.00  0.00     0.209 HD
ENDBRANCH  14  15
ENDBRANCH  13  14
ENDBRANCH   9  13
ENDBRANCH   8   9
ENDBRANCH   7   8
ENDBRANCH   1   6
BRANCH   4  17
HETATM   17  C11 UNL     1      18.992  -0.400  52.108  1.00  0.00     0.032 C 
HETATM   18  C12 UNL     1      17.701  -0.662  52.268  1.00  0.00     0.106 C 
HETATM   19 CL1  UNL     1      16.616   0.637  51.895  1.00  0.00    -0.064 Cl
BRANCH  18  20
HETATM   20  N2  UNL     1      17.158  -1.903  52.705  1.00  0.00    -0.324 N 
HETATM   21  C13 UNL     1      17.733  -2.821  53.499  1.00  0.00     0.097 A 
HETATM   22  C14 UNL     1      16.836  -3.857  53.664  1.00  0.00     0.019 A 
HETATM   23  C15 UNL     1      15.681  -3.569  52.954  1.00  0.00     0.019 A 
HETATM   24  C16 UNL     1      15.933  -2.342  52.373  1.00  0.00     0.097 A 
ENDBRANCH  18  20
ENDBRANCH   4  17
TORSDOF 10
ENDMDL
MODEL 5
REMARK VINA RESULT:      -6.4      5.000      7.299
REMARK  10 active torsions:
REMARK  status: ('A' for Active; 'I' for Inactive)
REMARK    1  A    between atoms: C2_2  and  C3_3 
REMARK    2  A    between atoms: C3_3  and  N1_4 
REMARK    3  A    between atoms: N1_4  and  C4_5 
REMARK    4  A    between atoms: N1_4  and  C17_21 
REMARK    5  A    between atoms: C4_5  and  C5_6 
REMARK    6  A    between atoms: C6_7  and  C7_8 
REMARK    7  A    between atoms: C10_11  and  C11_12 
REMARK    8  A    between atoms: C12_13  and  N2_15 
REMARK    9  A    between atoms: C17_21  and  C18_22 
REMARK   10  A    between atoms: C18_22  and  O1_23 
ROOT
HETATM    1  C7  UNL     1      25.318   4.222  49.609  1.00  0.00     0.051 C 
HETATM    2  C8  UNL     1      24.472   3.438  48.968  1.00  0.00     0.002 C 
HETATM    3  C9  UNL     1      23.151   3.084  49.490  1.00  0.00     0.049 C 
HETATM    4  C10 UNL     1      23.051   3.483  50.942  1.00  0.00     0.082 C 
HETATM    5  S1  UNL     1      24.440   4.636  51.097  1.00  0.00    -0.112 SA
ENDROOT
BRANCH   1   6
HETATM    6  C6  UNL     1      26.616   4.588  49.124  1.00  0.00    -0.058 C 
HETATM    7  C5  UNL     1      27.697   4.904  48.701  1.00  0.00    -0.070 C 
BRANCH   7   8
HETATM    8  C4  UNL     1      29.018   5.302  48.156  1.00  0.00     0.366 C 
BRANCH   8   9
HETATM    9  N1  UNL     1      29.176   6.745  48.231  1.00  0.00     0.101 N 
BRANCH   9  10
HETATM   10  C3  UNL     1      29.022   7.389  46.949  1.00  0.00     0.273 C 
BRANCH  10  11
HETATM   11  C2  UNL     1      28.023   8.517  47.155  1.00  0.00     0.026 C 
HETATM   12  C1  UNL     1      26.590   8.030  47.183  1.00  0.00     0.007 C 
ENDBRANCH  10  11
ENDBRANCH   9  10
BRANCH   9  13
HETATM   13  C17 UNL     1      30.434   7.031  48.887  1.00  0.00     0.299 C 
BRANCH  13  14
HETATM   14  C18 UNL     1      31.338   5.898  49.152  1.00  0.00     0.194 C 
BRANCH  14  15
HETATM   15  O1  UNL     1      31.443   5.567  50.466  1.00  0.00    -0.399 OA
HETATM   16  H23 UNL     1      32.240   5.990  50.858  1.00  0.00     0.209 HD
ENDBRANCH  14  15
ENDBRANCH  13  14
ENDBRANCH   9  13
ENDBRANCH   8   9
ENDBRANCH   7   8
ENDBRANCH   1   6
BRANCH   4  17
HETATM   17  C11 UNL     1      23.272   2.267  51.763  1.00  0.00     0.032 C 
HETATM   18  C12 UNL     1      22.242   1.863  52.494  1.00  0.00     0.106 C 
HETATM   19 CL1  UNL     1      20.806   2.826  52.372  1.00  0.00    -0.064 Cl
BRANCH  18  20
HETATM   20  N2  UNL     1      22.228   0.721  53.344  1.00  0.00    -0.324 N 
HETATM   21  C13 UNL     1      23.224  -0.152  53.568  1.00  0.00     0.097 A 
HETATM   22  C14 UNL     1      22.767  -1.091  54.470  1.00  0.00     0.019 A 
HETATM   23  C15 UNL     1      21.458  -0.788  54.810  1.00  0.00     0.019 A 
HETATM   24  C16 UNL     1      21.169   0.348  54.081  1.00  0.00     0.097 A 
ENDBRANCH  18  20
ENDBRANCH   4  17
TORSDOF 10
ENDMDL
MODEL 6
REMARK VINA RESULT:      -6.3      5.591      7.819
REMARK  10 active torsions:
REMARK  status: ('A' for Active; 'I' for Inactive)
REMARK    1  A    between atoms: C2_2  and  C3_3 
REMARK    2  A    between atoms: C3_3  and  N1_4 
REMARK    3  A    between atoms: N1_4  and  C4_5 
REMARK    4  A    between atoms: N1_4  and  C17_21 
REMARK    5  A    between atoms: C4_5  and  C5_6 
REMARK    6  A    between atoms: C6_7  and  C7_8 
REMARK    7  A    between atoms: C10_11  and  C11_12 
REMARK    8  A    between atoms: C12_13  and  N2_15 
REMARK    9  A    between atoms: C17_21  and  C18_22 
REMARK   10  A    between atoms: C18_22  and  O1_23 
ROOT
HETATM    1  C7  UNL     1      24.557   4.479  49.590  1.00  0.00     0.051 C 
HETATM    2  C8  UNL     1      23.857   3.592  48.908  1.00  0.00     0.002 C 
HETATM    3  C9  UNL     1      22.603   3.013  49.392  1.00  0.00     0.049 C 
HETATM    4  C10 UNL     1      22.419   3.340  50.854  1.00  0.00     0.082 C 
HETATM    5  S1  UNL     1      23.602   4.694  51.073  1.00  0.00    -0.112 SA
ENDROOT
BRANCH   1   6
HETATM    6  C6  UNL     1      25.786   5.064  49.143  1.00  0.00    -0.058 C 
HETATM    7  C5  UNL     1      26.814   5.572  48.780  1.00  0.00    -0.070 C 
BRANCH   7   8
HETATM    8  C4  UNL     1      28.075   6.221  48.344  1.00  0.00     0.366 C 
BRANCH   8   9
HETATM    9  N1  UNL     1      27.834   7.619  48.025  1.00  0.00     0.101 N 
BRANCH   9  10
HETATM   10  C3  UNL     1      28.369   7.996  46.739  1.00  0.00     0.273 C 
BRANCH  10  11
HETATM   11  C2  UNL     1      29.844   8.296  46.962  1.00  0.00     0.026 C 
HETATM   12  C1  UNL     1      30.715   7.827  45.817  1.00  0.00     0.007 C 
ENDBRANCH  10  11
ENDBRANCH   9  10
BRANCH   9  13
HETATM   13  C17 UNL     1      28.317   8.427  49.124  1.00  0.00     0.299 C 
BRANCH  13  14
HETATM   14  C18 UNL     1      27.330   9.238  49.860  1.00  0.00     0.194 C 
BRANCH  14  15
HETATM   15  O1  UNL     1      27.666   9.482  51.154  1.00  0.00    -0.399 OA
HETATM   16  H23 UNL     1      28.140  10.341  51.223  1.00  0.00     0.209 HD
ENDBRANCH  14  15
ENDBRANCH  13  14
ENDBRANCH   9  13
ENDBRANCH   8   9
ENDBRANCH   7   8
ENDBRANCH   1   6
BRANCH   4  17
HETATM   17  C11 UNL     1      22.822   2.147  51.640  1.00  0.00     0.032 C 
HETATM   18  C12 UNL     1      21.944   1.720  52.539  1.00  0.00     0.106 C 
HETATM   19 CL1  UNL     1      20.473   2.629  52.649  1.00  0.00    -0.064 Cl
BRANCH  18  20
HETATM   20  N2  UNL     1      22.117   0.593  53.392  1.00  0.00    -0.324 N 
HETATM   21  C13 UNL     1      23.243  -0.102  53.621  1.00  0.00     0.097 A 
HETATM   22  C14 UNL     1      22.945  -1.102  54.525  1.00  0.00     0.019 A 
HETATM   23  C15 UNL     1      21.602  -1.019  54.859  1.00  0.00     0.019 A 
HETATM   24  C16 UNL     1      21.132   0.052  54.126  1.00  0.00     0.097 A 
ENDBRANCH  18  20
ENDBRANCH   4  17
TORSDOF 10
ENDMDL
MODEL 7
REMARK VINA RESULT:      -6.2      4.310      5.537
REMARK  10 active torsions:
REMARK  status: ('A' for Active; 'I' for Inactive)
REMARK    1  A    between atoms: C2_2  and  C3_3 
REMARK    2  A    between atoms: C3_3  and  N1_4 
REMARK    3  A    between atoms: N1_4  and  C4_5 
REMARK    4  A    between atoms: N1_4  and  C17_21 
REMARK    5  A    between atoms: C4_5  and  C5_6 
REMARK    6  A    between atoms: C6_7  and  C7_8 
REMARK    7  A    between atoms: C10_11  and  C11_12 
REMARK    8  A    between atoms: C12_13  and  N2_15 
REMARK    9  A    between atoms: C17_21  and  C18_22 
REMARK   10  A    between atoms: C18_22  and  O1_23 
ROOT
HETATM    1  C7  UNL     1      18.324  -0.021  51.784  1.00  0.00     0.051 C 
HETATM    2  C8  UNL     1      17.690  -0.840  52.602  1.00  0.00     0.002 C 
HETATM    3  C9  UNL     1      16.238  -1.020  52.593  1.00  0.00     0.049 C 
HETATM    4  C10 UNL     1      15.593   0.059  51.758  1.00  0.00     0.082 C 
HETATM    5  S1  UNL     1      17.010   0.682  50.817  1.00  0.00    -0.112 SA
ENDROOT
BRANCH   1   6
HETATM    6  C6  UNL     1      19.743   0.176  51.768  1.00  0.00    -0.058 C 
HETATM    7  C5  UNL     1      20.932   0.362  51.759  1.00  0.00    -0.070 C 
BRANCH   7   8
HETATM    8  C4  UNL     1      22.393   0.618  51.750  1.00  0.00     0.366 C 
BRANCH   8   9
HETATM    9  N1  UNL     1      22.922   0.543  53.102  1.00  0.00     0.101 N 
BRANCH   9  10
HETATM   10  C3  UNL     1      24.261   1.071  53.206  1.00  0.00     0.273 C 
BRANCH  10  11
HETATM   11  C2  UNL     1      25.202  -0.104  52.985  1.00  0.00     0.026 C 
HETATM   12  C1  UNL     1      26.365   0.240  52.080  1.00  0.00     0.007 C 
ENDBRANCH  10  11
ENDBRANCH   9  10
BRANCH   9  13
HETATM   13  C17 UNL     1      22.789  -0.821  53.568  1.00  0.00     0.299 C 
BRANCH  13  14
HETATM   14  C18 UNL     1      22.195  -1.032  54.900  1.00  0.00     0.194 C 
BRANCH  14  15
HETATM   15  O1  UNL     1      20.939  -1.550  54.872  1.00  0.00    -0.399 OA
HETATM   16  H23 UNL     1      20.529  -1.392  53.992  1.00  0.00     0.209 HD
ENDBRANCH  14  15
ENDBRANCH  13  14
ENDBRANCH   9  13
ENDBRANCH   8   9
ENDBRANCH   7   8
ENDBRANCH   1   6
BRANCH   4  17
HETATM   17  C11 UNL     1      15.069   1.096  52.682  1.00  0.00     0.032 C 
HETATM   18  C12 UNL     1      13.794   1.427  52.520  1.00  0.00     0.106 C 
HETATM   19 CL1  UNL     1      12.952   0.595  51.254  1.00  0.00    -0.064 Cl
BRANCH  18  20
HETATM   20  N2  UNL     1      13.085   2.385  53.298  1.00  0.00    -0.324 N 
HETATM   21  C13 UNL     1      12.174   2.157  54.258  1.00  0.00     0.097 A 
HETATM   22  C14 UNL     1      11.760   3.379  54.747  1.00  0.00     0.019 A 
HETATM   23  C15 UNL     1      12.434   4.385  54.072  1.00  0.00     0.019 A 
HETATM   24  C16 UNL     1      13.246   3.713  53.180  1.00  0.00     0.097 A 
ENDBRANCH  18  20
ENDBRANCH   4  17
TORSDOF 10
ENDMDL
MODEL 8
REMARK VINA RESULT:      -6.0      6.456      9.336
REMARK  10 active torsions:
REMARK  status: ('A' for Active; 'I' for Inactive)
REMARK    1  A    between atoms: C2_2  and  C3_3 
REMARK    2  A    between atoms: C3_3  and  N1_4 
REMARK    3  A    between atoms: N1_4  and  C4_5 
REMARK    4  A    between atoms: N1_4  and  C17_21 
REMARK    5  A    between atoms: C4_5  and  C5_6 
REMARK    6  A    between atoms: C6_7  and  C7_8 
REMARK    7  A    between atoms: C10_11  and  C11_12 
REMARK    8  A    between atoms: C12_13  and  N2_15 
REMARK    9  A    between atoms: C17_21  and  C18_22 
REMARK   10  A    between atoms: C18_22  and  O1_23 
ROOT
HETATM    1  C7  UNL     1      24.073   5.156  49.533  1.00  0.00     0.051 C 
HETATM    2  C8  UNL     1      23.844   3.985  48.968  1.00  0.00     0.002 C 
HETATM    3  C9  UNL     1      23.469   2.789  49.721  1.00  0.00     0.049 C 
HETATM    4  C10 UNL     1      23.686   3.024  51.197  1.00  0.00     0.082 C 
HETATM    5  S1  UNL     1      23.813   4.829  51.260  1.00  0.00    -0.112 SA
ENDROOT
BRANCH   1   6
HETATM    6  C6  UNL     1      24.441   6.345  48.823  1.00  0.00    -0.058 C 
HETATM    7  C5  UNL     1      24.752   7.331  48.209  1.00  0.00    -0.070 C 
BRANCH   7   8
HETATM    8  C4  UNL     1      25.142   8.532  47.431  1.00  0.00     0.366 C 
BRANCH   8   9
HETATM    9  N1  UNL     1      26.512   8.908  47.743  1.00  0.00     0.101 N 
BRANCH   9  10
HETATM   10  C3  UNL     1      27.439   7.813  47.582  1.00  0.00     0.273 C 
BRANCH  10  11
HETATM   11  C2  UNL     1      28.287   8.147  46.365  1.00  0.00     0.026 C 
HETATM   12  C1  UNL     1      29.745   7.786  46.552  1.00  0.00     0.007 C 
ENDBRANCH  10  11
ENDBRANCH   9  10
BRANCH   9  13
HETATM   13  C17 UNL     1      26.531   9.507  49.061  1.00  0.00     0.299 C 
BRANCH  13  14
HETATM   14  C18 UNL     1      27.787   9.423  49.829  1.00  0.00     0.194 C 
BRANCH  14  15
HETATM   15  O1  UNL     1      27.618   9.487  51.176  1.00  0.00    -0.399 OA
HETATM   16  H23 UNL     1      27.754  10.409  51.490  1.00  0.00     0.209 HD
ENDBRANCH  14  15
ENDBRANCH  13  14
ENDBRANCH   9  13
ENDBRANCH   8   9
ENDBRANCH   7   8
ENDBRANCH   1   6
BRANCH   4  17
HETATM   17  C11 UNL     1      24.972   2.385  51.573  1.00  0.00     0.032 C 
HETATM   18  C12 UNL     1      24.896   1.413  52.473  1.00  0.00     0.106 C 
HETATM   19 CL1  UNL     1      23.307   1.051  53.062  1.00  0.00    -0.064 Cl
BRANCH  18  20
HETATM   20  N2  UNL     1      25.998   0.659  52.970  1.00  0.00    -0.324 N 
HETATM   21  C13 UNL     1      26.614   0.784  54.156  1.00  0.00     0.097 A 
HETATM   22  C14 UNL     1      27.618  -0.160  54.212  1.00  0.00     0.019 A 
HETATM   23  C15 UNL     1      27.620  -0.884  53.030  1.00  0.00     0.019 A 
HETATM   24  C16 UNL     1      26.592  -0.334  52.290  1.00  0.00     0.097 A 
ENDBRANCH  18  20
ENDBRANCH   4  17
TORSDOF 10
ENDMDL
MODEL 9
REMARK VINA RESULT:      -6.0      6.043     11.270
REMARK  10 active torsions:
REMARK  status: ('A' for Active; 'I' for Inactive)
REMARK    1  A    between atoms: C2_2  and  C3_3 
REMARK    2  A    between atoms: C3_3  and  N1_4 
REMARK    3  A    between atoms: N1_4  and  C4_5 
REMARK    4  A    between atoms: N1_4  and  C17_21 
REMARK    5  A    between atoms: C4_5  and  C5_6 
REMARK    6  A    between atoms: C6_7  and  C7_8 
REMARK    7  A    between atoms: C10_11  and  C11_12 
REMARK    8  A    between atoms: C12_13  and  N2_15 
REMARK    9  A    between atoms: C17_21  and  C18_22 
REMARK   10  A    between atoms: C18_22  and  O1_23 
ROOT
HETATM    1  C7  UNL     1      24.378   5.454  50.747  1.00  0.00     0.051 C 
HETATM    2  C8  UNL     1      24.055   6.670  51.146  1.00  0.00     0.002 C 
HETATM    3  C9  UNL     1      24.355   7.875  50.373  1.00  0.00     0.049 C 
HETATM    4  C10 UNL     1      25.321   7.544  49.262  1.00  0.00     0.082 C 
HETATM    5  S1  UNL     1      25.182   5.739  49.189  1.00  0.00    -0.112 SA
ENDROOT
BRANCH   1   6
HETATM    6  C6  UNL     1      24.097   4.255  51.480  1.00  0.00    -0.058 C 
HETATM    7  C5  UNL     1      23.874   3.256  52.112  1.00  0.00    -0.070 C 
BRANCH   7   8
HETATM    8  C4  UNL     1      23.616   2.032  52.909  1.00  0.00     0.366 C 
BRANCH   8   9
HETATM    9  N1  UNL     1      24.773   1.152  52.863  1.00  0.00     0.101 N 
BRANCH   9  10
HETATM   10  C3  UNL     1      24.517  -0.134  53.465  1.00  0.00     0.273 C 
BRANCH  10  11
HETATM   11  C2  UNL     1      23.006  -0.250  53.601  1.00  0.00     0.026 C 
HETATM   12  C1  UNL     1      22.589  -1.118  54.768  1.00  0.00     0.007 C 
ENDBRANCH  10  11
ENDBRANCH   9  10
BRANCH   9  13
HETATM   13  C17 UNL     1      25.902   1.855  53.433  1.00  0.00     0.299 C 
BRANCH  13  14
HETATM   14  C18 UNL     1      27.179   1.802  52.698  1.00  0.00     0.194 C 
BRANCH  14  15
HETATM   15  O1  UNL     1      27.393   2.867  51.881  1.00  0.00    -0.399 OA
HETATM   16  H23 UNL     1      26.549   3.139  51.454  1.00  0.00     0.209 HD
ENDBRANCH  14  15
ENDBRANCH  13  14
ENDBRANCH   9  13
ENDBRANCH   8   9
ENDBRANCH   7   8
ENDBRANCH   1   6
BRANCH   4  17
HETATM   17  C11 UNL     1      26.677   7.957  49.701  1.00  0.00     0.032 C 
HETATM   18  C12 UNL     1      27.551   8.206  48.734  1.00  0.00     0.106 C 
HETATM   19 CL1  UNL     1      26.964   8.003  47.116  1.00  0.00    -0.064 Cl
BRANCH  18  20
HETATM   20  N2  UNL     1      28.898   8.624  48.925  1.00  0.00    -0.324 N 
HETATM   21  C13 UNL     1      30.018   7.901  48.758  1.00  0.00     0.097 A 
HETATM   22  C14 UNL     1      31.093   8.717  49.045  1.00  0.00     0.019 A 
HETATM   23  C15 UNL     1      30.624   9.973  49.396  1.00  0.00     0.019 A 
HETATM   24  C16 UNL     1      29.251   9.862  49.307  1.00  0.00     0.097 A 
ENDBRANCH  18  20
ENDBRANCH   4  17
TORSDOF 10
ENDMDL
