MODEL 1
REMARK VINA RESULT:      -8.9      0.000      0.000
REMARK  8 active torsions:
REMARK  status: ('A' for Active; 'I' for Inactive)
REMARK    1  A    between atoms: C4_5  and  N2_6 
REMARK    2  A    between atoms: C7_9  and  O1_10 
REMARK    3  A    between atoms: O1_10  and  C8_11 
REMARK    4  A    between atoms: C8_11  and  C9_12 
REMARK    5  A    between atoms: C9_12  and  N3_13 
REMARK    6  A    between atoms: C13_17  and  N4_18 
REMARK    7  A    between atoms: C18_23  and  S1_24 
REMARK    8  A    between atoms: S1_24  and  C19_26 
ROOT
HETATM    1  C1  UNL     1      21.272   0.487  51.458  1.00  0.00     0.020 C 
HETATM    2  C2  UNL     1      22.688   0.753  51.765  1.00  0.00     0.007 C 
HETATM    3  C3  UNL     1      23.174   1.759  50.988  1.00  0.00     0.146 C 
HETATM    4  N1  UNL     1      23.952   2.752  50.335  1.00  0.00    -0.267 NA
HETATM    5  C4  UNL     1      25.056   3.267  50.900  1.00  0.00     0.113 C 
HETATM    6  C16 UNL     1      25.347   2.559  52.242  1.00  0.00     0.058 A 
HETATM    7  C17 UNL     1      26.631   2.082  51.965  1.00  0.00     0.030 C 
HETATM    8  C18 UNL     1      26.609   1.912  53.577  1.00  0.00     0.122 C 
HETATM    9  C20 UNL     1      25.180   1.636  53.418  1.00  0.00     0.062 A 
HETATM   10  C21 UNL     1      24.193   2.385  53.233  1.00  0.00     0.042 A 
HETATM   11  N5  UNL     1      24.627   0.336  53.119  1.00  0.00    -0.409 N 
HETATM   12  C22 UNL     1      23.223  -0.088  52.944  1.00  0.00     0.127 C 
HETATM   13  H27 UNL     1      25.285  -0.497  52.992  1.00  0.00     0.154 HD
ENDROOT
BRANCH   5  14
HETATM   14  N2  UNL     1      25.697   4.250  50.113  1.00  0.00    -0.341 N 
HETATM   15  C5  UNL     1      26.825   3.983  49.290  1.00  0.00     0.095 A 
HETATM   16  C6  UNL     1      27.330   5.024  48.647  1.00  0.00     0.053 A 
HETATM   17  C7  UNL     1      26.781   6.384  48.752  1.00  0.00     0.068 A 
HETATM   18  C14 UNL     1      25.729   6.572  49.524  1.00  0.00     0.030 A 
HETATM   19  C15 UNL     1      25.036   5.517  50.307  1.00  0.00     0.160 A 
BRANCH  17  20
HETATM   20  O1  UNL     1      27.414   7.385  48.027  1.00  0.00    -0.350 OA
BRANCH  20  21
HETATM   21  C8  UNL     1      27.351   8.735  48.502  1.00  0.00     0.206 C 
BRANCH  21  22
HETATM   22  C9  UNL     1      28.704   9.099  49.031  1.00  0.00     0.301 C 
BRANCH  22  23
HETATM   23  N3  UNL     1      29.342  10.103  48.208  1.00  0.00     0.123 N 
HETATM   24  C10 UNL     1      28.462  11.185  47.908  1.00  0.00     0.275 C 
HETATM   25  C11 UNL     1      28.936  12.417  48.638  1.00  0.00     0.034 C 
HETATM   26  C12 UNL     1      30.317  12.055  49.109  1.00  0.00     0.070 C 
HETATM   27  C13 UNL     1      30.509  10.593  48.877  1.00  0.00     0.451 C 
BRANCH  27  28
HETATM   28  N4  UNL     1      30.683   9.914  50.155  1.00  0.00     0.112 N 
HETATM   29  H18 UNL     1      31.579   9.390  50.163  1.00  0.00     0.315 HD
HETATM   30  H19 UNL     1      29.901   9.229  50.247  1.00  0.00     0.315 HD
ENDBRANCH  27  28
ENDBRANCH  22  23
ENDBRANCH  21  22
ENDBRANCH  20  21
ENDBRANCH  17  20
ENDBRANCH   5  14
BRANCH   8  31
HETATM   31  S1  UNL     1      27.589   0.532  54.015  1.00  0.00     0.084 S 
HETATM   32  O2  UNL     1      26.919  -0.198  55.167  1.00  0.00    -0.250 OA
BRANCH  31  33
HETATM   33  C19 UNL     1      29.204   1.058  54.458  1.00  0.00     0.337 C 
HETATM   34  O3  UNL     1      29.373   2.207  54.893  1.00  0.00    -0.293 OA
ENDBRANCH  31  33
ENDBRANCH   8  31
TORSDOF 8
ENDMDL
MODEL 2
REMARK VINA RESULT:      -8.7      1.717      2.265
REMARK  8 active torsions:
REMARK  status: ('A' for Active; 'I' for Inactive)
REMARK    1  A    between atoms: C4_5  and  N2_6 
REMARK    2  A    between atoms: C7_9  and  O1_10 
REMARK    3  A    between atoms: O1_10  and  C8_11 
REMARK    4  A    between atoms: C8_11  and  C9_12 
REMARK    5  A    between atoms: C9_12  and  N3_13 
REMARK    6  A    between atoms: C13_17  and  N4_18 
REMARK    7  A    between atoms: C18_23  and  S1_24 
REMARK    8  A    between atoms: S1_24  and  C19_26 
ROOT
HETATM    1  C1  UNL     1      21.141   0.789  51.277  1.00  0.00     0.020 C 
HETATM    2  C2  UNL     1      22.564   0.971  51.614  1.00  0.00     0.007 C 
HETATM    3  C3  UNL     1      23.128   1.938  50.842  1.00  0.00     0.146 C 
HETATM    4  N1  UNL     1      23.980   2.877  50.200  1.00  0.00    -0.267 NA
HETATM    5  C4  UNL     1      25.101   3.327  50.786  1.00  0.00     0.113 C 
HETATM    6  C16 UNL     1      25.318   2.613  52.139  1.00  0.00     0.058 A 
HETATM    7  C17 UNL     1      26.576   2.056  51.893  1.00  0.00     0.030 C 
HETATM    8  C18 UNL     1      26.508   1.900  53.505  1.00  0.00     0.122 C 
HETATM    9  C20 UNL     1      25.069   1.711  53.317  1.00  0.00     0.062 A 
HETATM   10  C21 UNL     1      24.134   2.518  53.104  1.00  0.00     0.042 A 
HETATM   11  N5  UNL     1      24.443   0.445  53.014  1.00  0.00    -0.409 N 
HETATM   12  C22 UNL     1      23.020   0.107  52.809  1.00  0.00     0.127 C 
HETATM   13  H27 UNL     1      25.052  -0.428  52.907  1.00  0.00     0.154 HD
ENDROOT
BRANCH   5  14
HETATM   14  N2  UNL     1      25.819   4.263  50.008  1.00  0.00    -0.341 N 
HETATM   15  C5  UNL     1      26.977   3.930  49.252  1.00  0.00     0.095 A 
HETATM   16  C6  UNL     1      27.553   4.933  48.609  1.00  0.00     0.053 A 
HETATM   17  C7  UNL     1      27.052   6.315  48.648  1.00  0.00     0.068 A 
HETATM   18  C14 UNL     1      25.970   6.564  49.358  1.00  0.00     0.030 A 
HETATM   19  C15 UNL     1      25.197   5.558  50.133  1.00  0.00     0.160 A 
BRANCH  17  20
HETATM   20  O1  UNL     1      27.759   7.271  47.930  1.00  0.00    -0.350 OA
BRANCH  20  21
HETATM   21  C8  UNL     1      28.634   8.162  48.631  1.00  0.00     0.206 C 
BRANCH  21  22
HETATM   22  C9  UNL     1      30.011   7.991  48.067  1.00  0.00     0.301 C 
BRANCH  22  23
HETATM   23  N3  UNL     1      30.876   7.283  48.985  1.00  0.00     0.123 N 
HETATM   24  C10 UNL     1      31.111   5.939  48.567  1.00  0.00     0.275 C 
HETATM   25  C11 UNL     1      32.549   5.808  48.133  1.00  0.00     0.034 C 
HETATM   26  C12 UNL     1      33.200   7.066  48.634  1.00  0.00     0.070 C 
HETATM   27  C13 UNL     1      32.119   7.983  49.102  1.00  0.00     0.451 C 
BRANCH  27  28
HETATM   28  N4  UNL     1      32.103   9.184  48.275  1.00  0.00     0.112 N 
HETATM   29  H18 UNL     1      31.239   9.729  48.454  1.00  0.00     0.315 HD
HETATM   30  H19 UNL     1      32.095   8.871  47.280  1.00  0.00     0.315 HD
ENDBRANCH  27  28
ENDBRANCH  22  23
ENDBRANCH  21  22
ENDBRANCH  20  21
ENDBRANCH  17  20
ENDBRANCH   5  14
BRANCH   8  31
HETATM   31  S1  UNL     1      27.392   0.466  53.974  1.00  0.00     0.084 S 
HETATM   32  O2  UNL     1      26.716  -0.151  55.188  1.00  0.00    -0.250 OA
BRANCH  31  33
HETATM   33  C19 UNL     1      29.062   0.875  54.326  1.00  0.00     0.337 C 
HETATM   34  O3  UNL     1      29.319   1.945  54.898  1.00  0.00    -0.293 OA
ENDBRANCH  31  33
ENDBRANCH   8  31
TORSDOF 8
ENDMDL
MODEL 3
REMARK VINA RESULT:      -7.8      3.503      5.143
REMARK  8 active torsions:
REMARK  status: ('A' for Active; 'I' for Inactive)
REMARK    1  A    between atoms: C4_5  and  N2_6 
REMARK    2  A    between atoms: C7_9  and  O1_10 
REMARK    3  A    between atoms: O1_10  and  C8_11 
REMARK    4  A    between atoms: C8_11  and  C9_12 
REMARK    5  A    between atoms: C9_12  and  N3_13 
REMARK    6  A    between atoms: C13_17  and  N4_18 
REMARK    7  A    between atoms: C18_23  and  S1_24 
REMARK    8  A    between atoms: S1_24  and  C19_26 
ROOT
HETATM    1  C1  UNL     1      29.257   1.126  54.121  1.00  0.00     0.020 C 
HETATM    2  C2  UNL     1      27.798   0.967  53.991  1.00  0.00     0.007 C 
HETATM    3  C3  UNL     1      27.311   1.741  52.984  1.00  0.00     0.146 C 
HETATM    4  N1  UNL     1      26.523   2.425  52.020  1.00  0.00    -0.267 NA
HETATM    5  C4  UNL     1      25.323   1.963  51.634  1.00  0.00     0.113 C 
HETATM    6  C16 UNL     1      24.953   0.700  52.445  1.00  0.00     0.058 A 
HETATM    7  C17 UNL     1      23.754   1.146  53.008  1.00  0.00     0.030 C 
HETATM    8  C18 UNL     1      23.617  -0.447  53.275  1.00  0.00     0.122 C 
HETATM    9  C20 UNL     1      25.073  -0.437  53.421  1.00  0.00     0.062 A 
HETATM   10  C21 UNL     1      26.004  -0.403  52.583  1.00  0.00     0.042 A 
HETATM   11  N5  UNL     1      25.769  -0.135  54.650  1.00  0.00    -0.409 N 
HETATM   12  C22 UNL     1      27.215  -0.098  54.945  1.00  0.00     0.127 C 
HETATM   13  H27 UNL     1      25.205   0.108  55.526  1.00  0.00     0.154 HD
ENDROOT
BRANCH   5  14
HETATM   14  N2  UNL     1      24.686   2.765  50.661  1.00  0.00    -0.341 N 
HETATM   15  C5  UNL     1      23.414   2.458  50.102  1.00  0.00     0.095 A 
HETATM   16  C6  UNL     1      22.977   3.293  49.172  1.00  0.00     0.053 A 
HETATM   17  C7  UNL     1      23.730   4.475  48.726  1.00  0.00     0.068 A 
HETATM   18  C14 UNL     1      24.898   4.715  49.285  1.00  0.00     0.030 A 
HETATM   19  C15 UNL     1      25.533   3.888  50.344  1.00  0.00     0.160 A 
BRANCH  17  20
HETATM   20  O1  UNL     1      23.153   5.262  47.738  1.00  0.00    -0.350 OA
BRANCH  20  21
HETATM   21  C8  UNL     1      22.290   6.338  48.120  1.00  0.00     0.206 C 
BRANCH  21  22
HETATM   22  C9  UNL     1      22.888   7.612  47.606  1.00  0.00     0.301 C 
BRANCH  22  23
HETATM   23  N3  UNL     1      23.087   8.572  48.669  1.00  0.00     0.123 N 
HETATM   24  C10 UNL     1      22.624   8.079  49.925  1.00  0.00     0.275 C 
HETATM   25  C11 UNL     1      23.812   7.823  50.818  1.00  0.00     0.034 C 
HETATM   26  C12 UNL     1      24.952   8.504  50.114  1.00  0.00     0.070 C 
HETATM   27  C13 UNL     1      24.477   8.903  48.756  1.00  0.00     0.451 C 
BRANCH  27  28
HETATM   28  N4  UNL     1      25.234   8.182  47.741  1.00  0.00     0.112 N 
HETATM   29  H18 UNL     1      25.055   8.590  46.804  1.00  0.00     0.315 HD
HETATM   30  H19 UNL     1      24.888   7.197  47.742  1.00  0.00     0.315 HD
ENDBRANCH  27  28
ENDBRANCH  22  23
ENDBRANCH  21  22
ENDBRANCH  20  21
ENDBRANCH  17  20
ENDBRANCH   5  14
BRANCH   8  31
HETATM   31  S1  UNL     1      22.721  -0.700  54.755  1.00  0.00     0.084 S 
HETATM   32  O2  UNL     1      23.495  -1.668  55.636  1.00  0.00    -0.250 OA
BRANCH  31  33
HETATM   33  C19 UNL     1      21.121  -1.321  54.392  1.00  0.00     0.337 C 
HETATM   34  O3  UNL     1      20.352  -0.650  53.687  1.00  0.00    -0.293 OA
ENDBRANCH  31  33
ENDBRANCH   8  31
TORSDOF 8
ENDMDL
MODEL 4
REMARK VINA RESULT:      -7.7      6.468      9.350
REMARK  8 active torsions:
REMARK  status: ('A' for Active; 'I' for Inactive)
REMARK    1  A    between atoms: C4_5  and  N2_6 
REMARK    2  A    between atoms: C7_9  and  O1_10 
REMARK    3  A    between atoms: O1_10  and  C8_11 
REMARK    4  A    between atoms: C8_11  and  C9_12 
REMARK    5  A    between atoms: C9_12  and  N3_13 
REMARK    6  A    between atoms: C13_17  and  N4_18 
REMARK    7  A    between atoms: C18_23  and  S1_24 
REMARK    8  A    between atoms: S1_24  and  C19_26 
ROOT
HETATM    1  C1  UNL     1      17.114  -2.578  53.442  1.00  0.00     0.020 C 
HETATM    2  C2  UNL     1      17.439  -1.227  52.954  1.00  0.00     0.007 C 
HETATM    3  C3  UNL     1      18.782  -1.011  52.974  1.00  0.00     0.146 C 
HETATM    4  N1  UNL     1      20.104  -0.499  52.882  1.00  0.00    -0.267 NA
HETATM    5  C4  UNL     1      20.411   0.517  52.059  1.00  0.00     0.113 C 
HETATM    6  C16 UNL     1      19.136   1.040  51.361  1.00  0.00     0.058 A 
HETATM    7  C17 UNL     1      19.184   2.371  51.786  1.00  0.00     0.030 C 
HETATM    8  C18 UNL     1      18.114   2.500  50.575  1.00  0.00     0.122 C 
HETATM    9  C20 UNL     1      17.693   1.148  50.949  1.00  0.00     0.062 A 
HETATM   10  C21 UNL     1      18.189   0.020  50.725  1.00  0.00     0.042 A 
HETATM   11  N5  UNL     1      16.726   0.849  51.979  1.00  0.00    -0.409 N 
HETATM   12  C22 UNL     1      16.204  -0.449  52.451  1.00  0.00     0.127 C 
HETATM   13  H27 UNL     1      16.277   1.651  52.525  1.00  0.00     0.154 HD
ENDROOT
BRANCH   5  14
HETATM   14  N2  UNL     1      21.774   0.888  52.090  1.00  0.00    -0.341 N 
HETATM   15  C5  UNL     1      22.460   1.449  50.978  1.00  0.00     0.095 A 
HETATM   16  C6  UNL     1      23.745   1.704  51.162  1.00  0.00     0.053 A 
HETATM   17  C7  UNL     1      24.451   1.440  52.426  1.00  0.00     0.068 A 
HETATM   18  C14 UNL     1      23.763   0.927  53.426  1.00  0.00     0.030 A 
HETATM   19  C15 UNL     1      22.317   0.587  53.393  1.00  0.00     0.160 A 
BRANCH  17  20
HETATM   20  O1  UNL     1      25.803   1.751  52.478  1.00  0.00    -0.350 OA
BRANCH  20  21
HETATM   21  C8  UNL     1      26.390   2.097  53.738  1.00  0.00     0.206 C 
BRANCH  21  22
HETATM   22  C9  UNL     1      27.181   0.917  54.215  1.00  0.00     0.301 C 
BRANCH  22  23
HETATM   23  N3  UNL     1      28.081   0.433  53.191  1.00  0.00     0.123 N 
HETATM   24  C10 UNL     1      29.446   0.517  53.597  1.00  0.00     0.275 C 
HETATM   25  C11 UNL     1      29.979  -0.878  53.808  1.00  0.00     0.034 C 
HETATM   26  C12 UNL     1      28.938  -1.766  53.185  1.00  0.00     0.070 C 
HETATM   27  C13 UNL     1      27.749  -0.922  52.869  1.00  0.00     0.451 C 
BRANCH  27  28
HETATM   28  N4  UNL     1      26.609  -1.365  53.661  1.00  0.00     0.112 N 
HETATM   29  H18 UNL     1      26.517  -2.397  53.610  1.00  0.00     0.315 HD
HETATM   30  H19 UNL     1      25.756  -0.938  53.237  1.00  0.00     0.315 HD
ENDBRANCH  27  28
ENDBRANCH  22  23
ENDBRANCH  21  22
ENDBRANCH  20  21
ENDBRANCH  17  20
ENDBRANCH   5  14
BRANCH   8  31
HETATM   31  S1  UNL     1      16.973   3.768  50.960  1.00  0.00     0.084 S 
HETATM   32  O2  UNL     1      16.634   3.689  52.440  1.00  0.00    -0.250 OA
BRANCH  31  33
HETATM   33  C19 UNL     1      15.530   3.597  49.976  1.00  0.00     0.337 C 
HETATM   34  O3  UNL     1      14.797   2.609  50.134  1.00  0.00    -0.293 OA
ENDBRANCH  31  33
ENDBRANCH   8  31
TORSDOF 8
ENDMDL
MODEL 5
REMARK VINA RESULT:      -7.6      5.419     10.520
REMARK  8 active torsions:
REMARK  status: ('A' for Active; 'I' for Inactive)
REMARK    1  A    between atoms: C4_5  and  N2_6 
REMARK    2  A    between atoms: C7_9  and  O1_10 
REMARK    3  A    between atoms: O1_10  and  C8_11 
REMARK    4  A    between atoms: C8_11  and  C9_12 
REMARK    5  A    between atoms: C9_12  and  N3_13 
REMARK    6  A    between atoms: C13_17  and  N4_18 
REMARK    7  A    between atoms: C18_23  and  S1_24 
REMARK    8  A    between atoms: S1_24  and  C19_26 
ROOT
HETATM    1  C1  UNL     1      25.074  -0.889  54.731  1.00  0.00     0.020 C 
HETATM    2  C2  UNL     1      24.830   0.081  53.649  1.00  0.00     0.007 C 
HETATM    3  C3  UNL     1      23.497   0.242  53.432  1.00  0.00     0.146 C 
HETATM    4  N1  UNL     1      22.202   0.614  52.980  1.00  0.00    -0.267 NA
HETATM    5  C4  UNL     1      21.985   1.770  52.333  1.00  0.00     0.113 C 
HETATM    6  C16 UNL     1      23.323   2.512  52.109  1.00  0.00     0.058 A 
HETATM    7  C17 UNL     1      23.290   2.605  50.714  1.00  0.00     0.030 C 
HETATM    8  C18 UNL     1      24.445   3.695  51.043  1.00  0.00     0.122 C 
HETATM    9  C20 UNL     1      24.793   2.824  52.168  1.00  0.00     0.062 A 
HETATM   10  C21 UNL     1      24.276   2.660  53.297  1.00  0.00     0.042 A 
HETATM   11  N5  UNL     1      25.677   1.686  52.077  1.00  0.00    -0.409 N 
HETATM   12  C22 UNL     1      26.122   0.736  53.116  1.00  0.00     0.127 C 
HETATM   13  H27 UNL     1      26.115   1.436  51.133  1.00  0.00     0.154 HD
ENDROOT
BRANCH   5  14
HETATM   14  N2  UNL     1      20.637   1.979  51.967  1.00  0.00    -0.341 N 
HETATM   15  C5  UNL     1      20.011   3.256  51.978  1.00  0.00     0.095 A 
HETATM   16  C6  UNL     1      18.730   3.273  51.645  1.00  0.00     0.053 A 
HETATM   17  C7  UNL     1      17.973   2.066  51.277  1.00  0.00     0.068 A 
HETATM   18  C14 UNL     1      18.607   0.911  51.277  1.00  0.00     0.030 A 
HETATM   19  C15 UNL     1      20.040   0.714  51.617  1.00  0.00     0.160 A 
BRANCH  17  20
HETATM   20  O1  UNL     1      16.632   2.228  50.955  1.00  0.00    -0.350 OA
BRANCH  20  21
HETATM   21  C8  UNL     1      15.634   1.793  51.887  1.00  0.00     0.206 C 
BRANCH  21  22
HETATM   22  C9  UNL     1      15.241   2.973  52.721  1.00  0.00     0.301 C 
BRANCH  22  23
HETATM   23  N3  UNL     1      13.847   3.313  52.535  1.00  0.00     0.123 N 
HETATM   24  C10 UNL     1      12.998   2.176  52.676  1.00  0.00     0.275 C 
HETATM   25  C11 UNL     1      12.191   2.323  53.941  1.00  0.00     0.034 C 
HETATM   26  C12 UNL     1      12.393   3.758  54.340  1.00  0.00     0.070 C 
HETATM   27  C13 UNL     1      13.474   4.322  53.479  1.00  0.00     0.451 C 
BRANCH  27  28
HETATM   28  N4  UNL     1      14.617   4.689  54.306  1.00  0.00     0.112 N 
HETATM   29  H18 UNL     1      14.296   5.010  55.238  1.00  0.00     0.315 HD
HETATM   30  H19 UNL     1      15.097   5.485  53.831  1.00  0.00     0.315 HD
ENDBRANCH  27  28
ENDBRANCH  22  23
ENDBRANCH  21  22
ENDBRANCH  20  21
ENDBRANCH  17  20
ENDBRANCH   5  14
BRANCH   8  31
HETATM   31  S1  UNL     1      25.599   3.712  49.730  1.00  0.00     0.084 S 
HETATM   32  O2  UNL     1      26.979   3.402  50.287  1.00  0.00    -0.250 OA
BRANCH  31  33
HETATM   33  C19 UNL     1      25.580   5.275  48.932  1.00  0.00     0.337 C 
HETATM   34  O3  UNL     1      26.616   5.956  48.902  1.00  0.00    -0.293 OA
ENDBRANCH  31  33
ENDBRANCH   8  31
TORSDOF 8
ENDMDL
MODEL 6
REMARK VINA RESULT:      -7.5      4.551      9.552
REMARK  8 active torsions:
REMARK  status: ('A' for Active; 'I' for Inactive)
REMARK    1  A    between atoms: C4_5  and  N2_6 
REMARK    2  A    between atoms: C7_9  and  O1_10 
REMARK    3  A    between atoms: O1_10  and  C8_11 
REMARK    4  A    between atoms: C8_11  and  C9_12 
REMARK    5  A    between atoms: C9_12  and  N3_13 
REMARK    6  A    between atoms: C13_17  and  N4_18 
REMARK    7  A    between atoms: C18_23  and  S1_24 
REMARK    8  A    between atoms: S1_24  and  C19_26 
ROOT
HETATM    1  C1  UNL     1      33.779   2.875  47.301  1.00  0.00     0.020 C 
HETATM    2  C2  UNL     1      33.362   4.288  47.276  1.00  0.00     0.007 C 
HETATM    3  C3  UNL     1      32.034   4.409  47.543  1.00  0.00     0.146 C 
HETATM    4  N1  UNL     1      30.704   4.846  47.784  1.00  0.00    -0.267 NA
HETATM    5  C4  UNL     1      30.434   6.100  48.180  1.00  0.00     0.113 C 
HETATM    6  C16 UNL     1      31.735   6.934  48.227  1.00  0.00     0.058 A 
HETATM    7  C17 UNL     1      31.375   7.949  47.335  1.00  0.00     0.030 C 
HETATM    8  C18 UNL     1      32.661   8.637  48.043  1.00  0.00     0.122 C 
HETATM    9  C20 UNL     1      33.196   7.279  48.143  1.00  0.00     0.062 A 
HETATM   10  C21 UNL     1      32.954   6.333  48.928  1.00  0.00     0.042 A 
HETATM   11  N5  UNL     1      33.936   6.613  47.096  1.00  0.00    -0.409 N 
HETATM   12  C22 UNL     1      34.538   5.265  47.060  1.00  0.00     0.127 C 
HETATM   13  H27 UNL     1      34.112   7.123  46.172  1.00  0.00     0.154 HD
ENDROOT
BRANCH   5  14
HETATM   14  N2  UNL     1      29.059   6.355  48.382  1.00  0.00    -0.341 N 
HETATM   15  C5  UNL     1      28.514   7.663  48.505  1.00  0.00     0.095 A 
HETATM   16  C6  UNL     1      27.211   7.725  48.730  1.00  0.00     0.053 A 
HETATM   17  C7  UNL     1      26.351   6.537  48.845  1.00  0.00     0.068 A 
HETATM   18  C14 UNL     1      26.909   5.351  48.714  1.00  0.00     0.030 A 
HETATM   19  C15 UNL     1      28.351   5.101  48.453  1.00  0.00     0.160 A 
BRANCH  17  20
HETATM   20  O1  UNL     1      25.000   6.749  49.088  1.00  0.00    -0.350 OA
BRANCH  20  21
HETATM   21  C8  UNL     1      24.140   5.618  49.270  1.00  0.00     0.206 C 
BRANCH  21  22
HETATM   22  C9  UNL     1      23.540   5.714  50.639  1.00  0.00     0.301 C 
BRANCH  22  23
HETATM   23  N3  UNL     1      23.079   4.426  51.108  1.00  0.00     0.123 N 
HETATM   24  C10 UNL     1      23.753   3.350  50.457  1.00  0.00     0.275 C 
HETATM   25  C11 UNL     1      24.652   2.663  51.454  1.00  0.00     0.034 C 
HETATM   26  C12 UNL     1      24.207   3.203  52.783  1.00  0.00     0.070 C 
HETATM   27  C13 UNL     1      23.274   4.339  52.524  1.00  0.00     0.451 C 
BRANCH  27  28
HETATM   28  N4  UNL     1      23.854   5.575  53.032  1.00  0.00     0.112 N 
HETATM   29  H18 UNL     1      24.392   6.052  52.285  1.00  0.00     0.315 HD
HETATM   30  H19 UNL     1      24.514   5.313  53.797  1.00  0.00     0.315 HD
ENDBRANCH  27  28
ENDBRANCH  22  23
ENDBRANCH  21  22
ENDBRANCH  20  21
ENDBRANCH  17  20
ENDBRANCH   5  14
BRANCH   8  31
HETATM   31  S1  UNL     1      33.463   9.670  46.883  1.00  0.00     0.084 S 
HETATM   32  O2  UNL     1      34.966   9.539  47.066  1.00  0.00    -0.250 OA
BRANCH  31  33
HETATM   33  C19 UNL     1      32.946  11.333  47.099  1.00  0.00     0.337 C 
HETATM   34  O3  UNL     1      31.741  11.582  47.253  1.00  0.00    -0.293 OA
ENDBRANCH  31  33
ENDBRANCH   8  31
TORSDOF 8
ENDMDL
MODEL 7
REMARK VINA RESULT:      -7.5      5.117     12.181
REMARK  8 active torsions:
REMARK  status: ('A' for Active; 'I' for Inactive)
REMARK    1  A    between atoms: C4_5  and  N2_6 
REMARK    2  A    between atoms: C7_9  and  O1_10 
REMARK    3  A    between atoms: O1_10  and  C8_11 
REMARK    4  A    between atoms: C8_11  and  C9_12 
REMARK    5  A    between atoms: C9_12  and  N3_13 
REMARK    6  A    between atoms: C13_17  and  N4_18 
REMARK    7  A    between atoms: C18_23  and  S1_24 
REMARK    8  A    between atoms: S1_24  and  C19_26 
ROOT
HETATM    1  C1  UNL     1      27.826  -0.513  53.753  1.00  0.00     0.020 C 
HETATM    2  C2  UNL     1      26.835   0.274  52.998  1.00  0.00     0.007 C 
HETATM    3  C3  UNL     1      25.576  -0.193  53.213  1.00  0.00     0.146 C 
HETATM    4  N1  UNL     1      24.178  -0.447  53.238  1.00  0.00    -0.267 NA
HETATM    5  C4  UNL     1      23.283   0.502  52.919  1.00  0.00     0.113 C 
HETATM    6  C16 UNL     1      24.010   1.788  52.464  1.00  0.00     0.058 A 
HETATM    7  C17 UNL     1      23.459   1.909  51.185  1.00  0.00     0.030 C 
HETATM    8  C18 UNL     1      24.078   3.396  51.369  1.00  0.00     0.122 C 
HETATM    9  C20 UNL     1      25.128   2.743  52.153  1.00  0.00     0.062 A 
HETATM   10  C21 UNL     1      25.157   2.314  53.329  1.00  0.00     0.042 A 
HETATM   11  N5  UNL     1      26.319   2.150  51.590  1.00  0.00    -0.409 N 
HETATM   12  C22 UNL     1      27.454   1.475  52.250  1.00  0.00     0.127 C 
HETATM   13  H27 UNL     1      26.463   2.169  50.530  1.00  0.00     0.154 HD
ENDROOT
BRANCH   5  14
HETATM   14  N2  UNL     1      21.939   0.075  53.009  1.00  0.00    -0.341 N 
HETATM   15  C5  UNL     1      20.887   0.627  52.226  1.00  0.00     0.095 A 
HETATM   16  C6  UNL     1      19.678   0.142  52.461  1.00  0.00     0.053 A 
HETATM   17  C7  UNL     1      19.405  -0.905  53.458  1.00  0.00     0.068 A 
HETATM   18  C14 UNL     1      20.420  -1.386  54.148  1.00  0.00     0.030 A 
HETATM   19  C15 UNL     1      21.837  -0.961  54.007  1.00  0.00     0.160 A 
BRANCH  17  20
HETATM   20  O1  UNL     1      18.088  -1.318  53.605  1.00  0.00    -0.350 OA
BRANCH  20  21
HETATM   21  C8  UNL     1      17.776  -2.710  53.482  1.00  0.00     0.206 C 
BRANCH  21  22
HETATM   22  C9  UNL     1      16.382  -2.823  52.944  1.00  0.00     0.301 C 
BRANCH  22  23
HETATM   23  N3  UNL     1      15.959  -4.203  52.852  1.00  0.00     0.123 N 
HETATM   24  C10 UNL     1      16.585  -5.020  53.840  1.00  0.00     0.275 C 
HETATM   25  C11 UNL     1      15.548  -5.449  54.846  1.00  0.00     0.034 C 
HETATM   26  C12 UNL     1      14.239  -5.100  54.196  1.00  0.00     0.070 C 
HETATM   27  C13 UNL     1      14.536  -4.273  52.989  1.00  0.00     0.451 C 
BRANCH  27  28
HETATM   28  N4  UNL     1      13.977  -2.939  53.161  1.00  0.00     0.112 N 
HETATM   29  H18 UNL     1      14.445  -2.270  52.520  1.00  0.00     0.315 HD
HETATM   30  H19 UNL     1      14.176  -2.646  54.143  1.00  0.00     0.315 HD
ENDBRANCH  27  28
ENDBRANCH  22  23
ENDBRANCH  21  22
ENDBRANCH  20  21
ENDBRANCH  17  20
ENDBRANCH   5  14
BRANCH   8  31
HETATM   31  S1  UNL     1      24.581   3.998  49.806  1.00  0.00     0.084 S 
HETATM   32  O2  UNL     1      25.857   4.805  49.980  1.00  0.00    -0.250 OA
BRANCH  31  33
HETATM   33  C19 UNL     1      23.308   4.980  49.102  1.00  0.00     0.337 C 
HETATM   34  O3  UNL     1      23.105   4.929  47.879  1.00  0.00    -0.293 OA
ENDBRANCH  31  33
ENDBRANCH   8  31
TORSDOF 8
ENDMDL
MODEL 8
REMARK VINA RESULT:      -7.4      3.553      9.414
REMARK  8 active torsions:
REMARK  status: ('A' for Active; 'I' for Inactive)
REMARK    1  A    between atoms: C4_5  and  N2_6 
REMARK    2  A    between atoms: C7_9  and  O1_10 
REMARK    3  A    between atoms: O1_10  and  C8_11 
REMARK    4  A    between atoms: C8_11  and  C9_12 
REMARK    5  A    between atoms: C9_12  and  N3_13 
REMARK    6  A    between atoms: C13_17  and  N4_18 
REMARK    7  A    between atoms: C18_23  and  S1_24 
REMARK    8  A    between atoms: S1_24  and  C19_26 
ROOT
HETATM    1  C1  UNL     1      28.137  11.436  46.075  1.00  0.00     0.020 C 
HETATM    2  C2  UNL     1      28.879  10.302  46.652  1.00  0.00     0.007 C 
HETATM    3  C3  UNL     1      28.031   9.406  47.225  1.00  0.00     0.146 C 
HETATM    4  N1  UNL     1      27.414   8.314  47.892  1.00  0.00    -0.267 NA
HETATM    5  C4  UNL     1      28.026   7.125  48.016  1.00  0.00     0.113 C 
HETATM    6  C16 UNL     1      29.453   7.199  47.425  1.00  0.00     0.058 A 
HETATM    7  C17 UNL     1      30.179   6.836  48.564  1.00  0.00     0.030 C 
HETATM    8  C18 UNL     1      31.316   6.633  47.426  1.00  0.00     0.122 C 
HETATM    9  C20 UNL     1      30.670   7.750  46.735  1.00  0.00     0.062 A 
HETATM   10  C21 UNL     1      29.631   7.823  46.040  1.00  0.00     0.042 A 
HETATM   11  N5  UNL     1      30.955   9.143  46.990  1.00  0.00    -0.409 N 
HETATM   12  C22 UNL     1      30.396  10.362  46.372  1.00  0.00     0.127 C 
HETATM   13  H27 UNL     1      31.678   9.403  47.735  1.00  0.00     0.154 HD
ENDROOT
BRANCH   5  14
HETATM   14  N2  UNL     1      27.261   6.154  48.699  1.00  0.00    -0.341 N 
HETATM   15  C5  UNL     1      27.544   4.761  48.656  1.00  0.00     0.095 A 
HETATM   16  C6  UNL     1      26.705   3.982  49.320  1.00  0.00     0.053 A 
HETATM   17  C7  UNL     1      25.546   4.491  50.069  1.00  0.00     0.068 A 
HETATM   18  C14 UNL     1      25.337   5.793  50.081  1.00  0.00     0.030 A 
HETATM   19  C15 UNL     1      26.181   6.807  49.397  1.00  0.00     0.160 A 
BRANCH  17  20
HETATM   20  O1  UNL     1      24.745   3.560  50.716  1.00  0.00    -0.350 OA
BRANCH  20  21
HETATM   21  C8  UNL     1      25.339   2.355  51.213  1.00  0.00     0.206 C 
BRANCH  21  22
HETATM   22  C9  UNL     1      25.544   2.519  52.687  1.00  0.00     0.301 C 
BRANCH  22  23
HETATM   23  N3  UNL     1      25.615   1.239  53.358  1.00  0.00     0.123 N 
HETATM   24  C10 UNL     1      25.665   0.155  52.433  1.00  0.00     0.275 C 
HETATM   25  C11 UNL     1      27.035  -0.473  52.490  1.00  0.00     0.034 C 
HETATM   26  C12 UNL     1      27.653   0.109  53.731  1.00  0.00     0.070 C 
HETATM   27  C13 UNL     1      26.767   1.212  54.207  1.00  0.00     0.451 C 
BRANCH  27  28
HETATM   28  N4  UNL     1      27.481   2.480  54.133  1.00  0.00     0.112 N 
HETATM   29  H18 UNL     1      27.523   2.923  55.070  1.00  0.00     0.315 HD
HETATM   30  H19 UNL     1      26.934   3.103  53.499  1.00  0.00     0.315 HD
ENDBRANCH  27  28
ENDBRANCH  22  23
ENDBRANCH  21  22
ENDBRANCH  20  21
ENDBRANCH  17  20
ENDBRANCH   5  14
BRANCH   8  31
HETATM   31  S1  UNL     1      32.882   6.990  48.118  1.00  0.00     0.084 S 
HETATM   32  O2  UNL     1      33.704   7.760  47.097  1.00  0.00    -0.250 OA
BRANCH  31  33
HETATM   33  C19 UNL     1      33.688   5.502  48.582  1.00  0.00     0.337 C 
HETATM   34  O3  UNL     1      34.621   5.073  47.887  1.00  0.00    -0.293 OA
ENDBRANCH  31  33
ENDBRANCH   8  31
TORSDOF 8
ENDMDL
MODEL 9
REMARK VINA RESULT:      -7.3      2.752      3.429
REMARK  8 active torsions:
REMARK  status: ('A' for Active; 'I' for Inactive)
REMARK    1  A    between atoms: C4_5  and  N2_6 
REMARK    2  A    between atoms: C7_9  and  O1_10 
REMARK    3  A    between atoms: O1_10  and  C8_11 
REMARK    4  A    between atoms: C8_11  and  C9_12 
REMARK    5  A    between atoms: C9_12  and  N3_13 
REMARK    6  A    between atoms: C13_17  and  N4_18 
REMARK    7  A    between atoms: C18_23  and  S1_24 
REMARK    8  A    between atoms: S1_24  and  C19_26 
ROOT
HETATM    1  C1  UNL     1      20.977   3.205  49.220  1.00  0.00     0.020 C 
HETATM    2  C2  UNL     1      22.325   2.895  49.728  1.00  0.00     0.007 C 
HETATM    3  C3  UNL     1      23.245   3.764  49.230  1.00  0.00     0.146 C 
HETATM    4  N1  UNL     1      24.411   4.498  48.882  1.00  0.00    -0.267 NA
HETATM    5  C4  UNL     1      25.508   4.490  49.657  1.00  0.00     0.113 C 
HETATM    6  C16 UNL     1      25.307   3.529  50.851  1.00  0.00     0.058 A 
HETATM    7  C17 UNL     1      26.387   2.671  50.625  1.00  0.00     0.030 C 
HETATM    8  C18 UNL     1      26.030   2.278  52.156  1.00  0.00     0.122 C 
HETATM    9  C20 UNL     1      24.641   2.561  51.790  1.00  0.00     0.062 A 
HETATM   10  C21 UNL     1      24.008   3.633  51.653  1.00  0.00     0.042 A 
HETATM   11  N5  UNL     1      23.747   1.608  51.174  1.00  0.00    -0.409 N 
HETATM   12  C22 UNL     1      22.336   1.749  50.763  1.00  0.00     0.127 C 
HETATM   13  H27 UNL     1      24.102   0.624  50.953  1.00  0.00     0.154 HD
ENDROOT
BRANCH   5  14
HETATM   14  N2  UNL     1      26.566   5.284  49.162  1.00  0.00    -0.341 N 
HETATM   15  C5  UNL     1      27.756   4.744  48.601  1.00  0.00     0.095 A 
HETATM   16  C6  UNL     1      28.665   5.626  48.219  1.00  0.00     0.053 A 
HETATM   17  C7  UNL     1      28.488   7.080  48.349  1.00  0.00     0.068 A 
HETATM   18  C14 UNL     1      27.361   7.525  48.868  1.00  0.00     0.030 A 
HETATM   19  C15 UNL     1      26.236   6.677  49.340  1.00  0.00     0.160 A 
BRANCH  17  20
HETATM   20  O1  UNL     1      29.527   7.891  47.913  1.00  0.00    -0.350 OA
BRANCH  20  21
HETATM   21  C8  UNL     1      30.399   7.413  46.882  1.00  0.00     0.206 C 
BRANCH  21  22
HETATM   22  C9  UNL     1      31.782   7.899  47.189  1.00  0.00     0.301 C 
BRANCH  22  23
HETATM   23  N3  UNL     1      32.344   7.215  48.333  1.00  0.00     0.123 N 
HETATM   24  C10 UNL     1      32.423   5.806  48.125  1.00  0.00     0.275 C 
HETATM   25  C11 UNL     1      33.872   5.411  47.997  1.00  0.00     0.034 C 
HETATM   26  C12 UNL     1      34.625   6.624  48.468  1.00  0.00     0.070 C 
HETATM   27  C13 UNL     1      33.646   7.742  48.608  1.00  0.00     0.451 C 
BRANCH  27  28
HETATM   28  N4  UNL     1      33.974   8.802  47.663  1.00  0.00     0.112 N 
HETATM   29  H18 UNL     1      34.728   8.489  47.023  1.00  0.00     0.315 HD
HETATM   30  H19 UNL     1      34.330   9.610  48.219  1.00  0.00     0.315 HD
ENDBRANCH  27  28
ENDBRANCH  22  23
ENDBRANCH  21  22
ENDBRANCH  20  21
ENDBRANCH  17  20
ENDBRANCH   5  14
BRANCH   8  31
HETATM   31  S1  UNL     1      26.403   0.588  52.410  1.00  0.00     0.084 S 
HETATM   32  O2  UNL     1      25.197  -0.090  53.041  1.00  0.00    -0.250 OA
BRANCH  31  33
HETATM   33  C19 UNL     1      27.819   0.432  53.434  1.00  0.00     0.337 C 
HETATM   34  O3  UNL     1      27.969  -0.595  54.114  1.00  0.00    -0.293 OA
ENDBRANCH  31  33
ENDBRANCH   8  31
TORSDOF 8
ENDMDL
