MODEL 1
REMARK VINA RESULT:      -8.7      0.000      0.000
REMARK  6 active torsions:
REMARK  status: ('A' for Active; 'I' for Inactive)
REMARK    1  A    between atoms: O1_2  and  C2_3 
REMARK    2  A    between atoms: C7_8  and  O2_9 
REMARK    3  A    between atoms: O2_9  and  C8_10 
REMARK    4  A    between atoms: C8_10  and  C9_11 
REMARK    5  A    between atoms: C9_11  and  C10_12 
REMARK    6  A    between atoms: C10_12  and  N1_13 
ROOT
HETATM    1  C2  UNL     1      24.181   3.845  49.666  1.00  0.00     0.102 A 
HETATM    2  C3  UNL     1      23.725   2.862  50.523  1.00  0.00     0.054 A 
HETATM    3  C4  UNL     1      24.638   2.263  51.317  1.00  0.00     0.006 A 
HETATM    4  C5  UNL     1      26.032   2.468  51.431  1.00  0.00     0.072 A 
HETATM    5  C6  UNL     1      26.349   3.492  50.505  1.00  0.00     0.072 A 
HETATM    6  C7  UNL     1      25.544   4.225  49.606  1.00  0.00     0.104 A 
HETATM    7  N3  UNL     1      27.207   2.274  51.823  1.00  0.00    -0.242 NA
HETATM    8  C16 UNL     1      27.749   1.330  52.683  1.00  0.00     0.229 C 
HETATM    9  N4  UNL     1      27.749   0.313  53.395  1.00  0.00    -0.263 NA
HETATM   10  C17 UNL     1      27.072  -0.768  53.905  1.00  0.00     0.272 C 
HETATM   11  N5  UNL     1      25.734  -0.700  54.439  1.00  0.00    -0.371 N 
HETATM   12  C18 UNL     1      24.512  -0.376  53.824  1.00  0.00     0.036 A 
HETATM   13  C19 UNL     1      24.861   0.574  53.024  1.00  0.00     0.042 A 
HETATM   14  C20 UNL     1      24.088   1.339  52.092  1.00  0.00    -0.021 A 
HETATM   15  C21 UNL     1      22.877   0.617  52.455  1.00  0.00     0.021 A 
HETATM   16  C22 UNL     1      23.132  -0.317  53.408  1.00  0.00    -0.035 A 
HETATM   17  C23 UNL     1      22.266  -1.264  54.096  1.00  0.00     0.050 C 
HETATM   18  H26 UNL     1      25.205  -0.839  55.338  1.00  0.00     0.161 HD
ENDROOT
BRANCH   6  19
HETATM   19  O2  UNL     1      25.678   5.202  48.675  1.00  0.00    -0.348 OA
BRANCH  19  20
HETATM   20  C8  UNL     1      26.434   6.334  48.735  1.00  0.00     0.177 C 
BRANCH  20  21
HETATM   21  C9  UNL     1      27.868   6.253  48.285  1.00  0.00     0.046 C 
BRANCH  21  22
HETATM   22  C10 UNL     1      28.281   7.661  47.912  1.00  0.00     0.119 C 
BRANCH  22  23
HETATM   23  N1  UNL     1      28.880   8.423  48.930  1.00  0.00    -0.409 N 
HETATM   24  C11 UNL     1      30.288   8.461  49.025  1.00  0.00     0.147 C 
HETATM   25  C12 UNL     1      30.720   9.832  49.498  1.00  0.00     0.291 C 
HETATM   26  N2  UNL     1      30.036  10.886  48.778  1.00  0.00     0.087 N 
HETATM   27  C13 UNL     1      30.593  12.178  49.012  1.00  0.00     0.310 C 
HETATM   28  C14 UNL     1      28.613  10.849  48.960  1.00  0.00     0.291 C 
HETATM   29  C15 UNL     1      28.166   9.488  49.513  1.00  0.00     0.147 C 
ENDBRANCH  22  23
ENDBRANCH  21  22
ENDBRANCH  20  21
ENDBRANCH  19  20
ENDBRANCH   6  19
BRANCH   1  30
HETATM   30  O1  UNL     1      23.209   4.441  48.860  1.00  0.00    -0.353 OA
HETATM   31  C1  UNL     1      22.459   3.650  47.992  1.00  0.00     0.210 C 
ENDBRANCH   1  30
TORSDOF 6
ENDMDL
MODEL 2
REMARK VINA RESULT:      -8.6      1.788      2.270
REMARK  6 active torsions:
REMARK  status: ('A' for Active; 'I' for Inactive)
REMARK    1  A    between atoms: O1_2  and  C2_3 
REMARK    2  A    between atoms: C7_8  and  O2_9 
REMARK    3  A    between atoms: O2_9  and  C8_10 
REMARK    4  A    between atoms: C8_10  and  C9_11 
REMARK    5  A    between atoms: C9_11  and  C10_12 
REMARK    6  A    between atoms: C10_12  and  N1_13 
ROOT
HETATM    1  C2  UNL     1      24.477   4.242  49.440  1.00  0.00     0.102 A 
HETATM    2  C3  UNL     1      23.841   3.292  50.216  1.00  0.00     0.054 A 
HETATM    3  C4  UNL     1      24.615   2.529  51.016  1.00  0.00     0.006 A 
HETATM    4  C5  UNL     1      26.015   2.527  51.208  1.00  0.00     0.072 A 
HETATM    5  C6  UNL     1      26.524   3.540  50.359  1.00  0.00     0.072 A 
HETATM    6  C7  UNL     1      25.881   4.425  49.468  1.00  0.00     0.104 A 
HETATM    7  N3  UNL     1      27.129   2.146  51.643  1.00  0.00    -0.242 NA
HETATM    8  C16 UNL     1      27.484   1.092  52.472  1.00  0.00     0.229 C 
HETATM    9  N4  UNL     1      27.301   0.050  53.122  1.00  0.00    -0.263 NA
HETATM   10  C17 UNL     1      26.452  -0.948  53.535  1.00  0.00     0.272 C 
HETATM   11  N5  UNL     1      25.110  -0.716  54.008  1.00  0.00    -0.371 N 
HETATM   12  C18 UNL     1      23.981  -0.189  53.355  1.00  0.00     0.036 A 
HETATM   13  C19 UNL     1      24.504   0.740  52.630  1.00  0.00     0.042 A 
HETATM   14  C20 UNL     1      23.899   1.654  51.708  1.00  0.00    -0.021 A 
HETATM   15  C21 UNL     1      22.581   1.096  51.971  1.00  0.00     0.021 A 
HETATM   16  C22 UNL     1      22.649   0.088  52.879  1.00  0.00    -0.035 A 
HETATM   17  C23 UNL     1      21.622  -0.760  53.468  1.00  0.00     0.050 C 
HETATM   18  H26 UNL     1      24.518  -0.824  54.871  1.00  0.00     0.161 HD
ENDROOT
BRANCH   6  19
HETATM   19  O2  UNL     1      26.202   5.420  48.603  1.00  0.00    -0.348 OA
BRANCH  19  20
HETATM   20  C8  UNL     1      27.302   6.225  48.604  1.00  0.00     0.177 C 
BRANCH  20  21
HETATM   21  C9  UNL     1      28.630   5.610  48.249  1.00  0.00     0.046 C 
BRANCH  21  22
HETATM   22  C10 UNL     1      29.614   6.755  48.133  1.00  0.00     0.119 C 
BRANCH  22  23
HETATM   23  N1  UNL     1      30.808   6.623  48.863  1.00  0.00    -0.409 N 
HETATM   24  C11 UNL     1      31.630   5.497  48.643  1.00  0.00     0.147 C 
HETATM   25  C12 UNL     1      33.081   5.902  48.788  1.00  0.00     0.291 C 
HETATM   26  N2  UNL     1      33.367   7.130  48.076  1.00  0.00     0.087 N 
HETATM   27  C13 UNL     1      34.763   7.408  47.977  1.00  0.00     0.310 C 
HETATM   28  C14 UNL     1      32.608   8.245  48.567  1.00  0.00     0.291 C 
HETATM   29  C15 UNL     1      31.417   7.769  49.412  1.00  0.00     0.147 C 
ENDBRANCH  22  23
ENDBRANCH  21  22
ENDBRANCH  20  21
ENDBRANCH  19  20
ENDBRANCH   6  19
BRANCH   1  30
HETATM   30  O1  UNL     1      23.645   5.012  48.625  1.00  0.00    -0.353 OA
HETATM   31  C1  UNL     1      22.670   4.383  47.852  1.00  0.00     0.210 C 
ENDBRANCH   1  30
TORSDOF 6
ENDMDL
MODEL 3
REMARK VINA RESULT:      -8.6      2.494      3.749
REMARK  6 active torsions:
REMARK  status: ('A' for Active; 'I' for Inactive)
REMARK    1  A    between atoms: O1_2  and  C2_3 
REMARK    2  A    between atoms: C7_8  and  O2_9 
REMARK    3  A    between atoms: O2_9  and  C8_10 
REMARK    4  A    between atoms: C8_10  and  C9_11 
REMARK    5  A    between atoms: C9_11  and  C10_12 
REMARK    6  A    between atoms: C10_12  and  N1_13 
ROOT
HETATM    1  C2  UNL     1      26.383   2.586  51.295  1.00  0.00     0.102 A 
HETATM    2  C3  UNL     1      25.469   1.812  51.983  1.00  0.00     0.054 A 
HETATM    3  C4  UNL     1      24.214   1.754  51.490  1.00  0.00     0.006 A 
HETATM    4  C5  UNL     1      23.644   2.369  50.352  1.00  0.00     0.072 A 
HETATM    5  C6  UNL     1      24.687   3.119  49.755  1.00  0.00     0.072 A 
HETATM    6  C7  UNL     1      26.039   3.298  50.119  1.00  0.00     0.104 A 
HETATM    7  N3  UNL     1      22.752   2.711  49.539  1.00  0.00    -0.242 NA
HETATM    8  C16 UNL     1      21.388   2.462  49.507  1.00  0.00     0.229 C 
HETATM    9  N4  UNL     1      20.299   2.057  49.946  1.00  0.00    -0.263 NA
HETATM   10  C17 UNL     1      19.583   1.468  50.959  1.00  0.00     0.272 C 
HETATM   11  N5  UNL     1      20.021   0.299  51.679  1.00  0.00    -0.371 N 
HETATM   12  C18 UNL     1      21.137   0.093  52.510  1.00  0.00     0.036 A 
HETATM   13  C19 UNL     1      22.050   0.769  51.900  1.00  0.00     0.042 A 
HETATM   14  C20 UNL     1      23.427   0.986  52.231  1.00  0.00    -0.021 A 
HETATM   15  C21 UNL     1      23.301   0.168  53.428  1.00  0.00     0.021 A 
HETATM   16  C22 UNL     1      22.038  -0.314  53.560  1.00  0.00    -0.035 A 
HETATM   17  C23 UNL     1      21.427  -1.175  54.563  1.00  0.00     0.050 C 
HETATM   18  H26 UNL     1      19.747  -0.701  51.858  1.00  0.00     0.161 HD
ENDROOT
BRANCH   6  19
HETATM   19  O2  UNL     1      27.139   3.962  49.681  1.00  0.00    -0.348 OA
BRANCH  19  20
HETATM   20  C8  UNL     1      27.213   4.976  48.774  1.00  0.00     0.177 C 
BRANCH  20  21
HETATM   21  C9  UNL     1      28.577   5.428  48.327  1.00  0.00     0.046 C 
BRANCH  21  22
HETATM   22  C10 UNL     1      28.455   6.902  48.000  1.00  0.00     0.119 C 
BRANCH  22  23
HETATM   23  N1  UNL     1      29.232   7.777  48.778  1.00  0.00    -0.409 N 
HETATM   24  C11 UNL     1      30.635   7.625  48.793  1.00  0.00     0.147 C 
HETATM   25  C12 UNL     1      31.284   8.987  48.906  1.00  0.00     0.291 C 
HETATM   26  N2  UNL     1      30.690   9.940  47.991  1.00  0.00     0.087 N 
HETATM   27  C13 UNL     1      31.433  11.153  47.884  1.00  0.00     0.310 C 
HETATM   28  C14 UNL     1      29.295  10.158  48.246  1.00  0.00     0.291 C 
HETATM   29  C15 UNL     1      28.717   9.041  49.127  1.00  0.00     0.147 C 
ENDBRANCH  22  23
ENDBRANCH  21  22
ENDBRANCH  20  21
ENDBRANCH  19  20
ENDBRANCH   6  19
BRANCH   1  30
HETATM   30  O1  UNL     1      27.670   2.623  51.834  1.00  0.00    -0.353 OA
HETATM   31  C1  UNL     1      27.901   2.076  53.095  1.00  0.00     0.210 C 
ENDBRANCH   1  30
TORSDOF 6
ENDMDL
MODEL 4
REMARK VINA RESULT:      -8.3      3.664      9.430
REMARK  6 active torsions:
REMARK  status: ('A' for Active; 'I' for Inactive)
REMARK    1  A    between atoms: O1_2  and  C2_3 
REMARK    2  A    between atoms: C7_8  and  O2_9 
REMARK    3  A    between atoms: O2_9  and  C8_10 
REMARK    4  A    between atoms: C8_10  and  C9_11 
REMARK    5  A    between atoms: C9_11  and  C10_12 
REMARK    6  A    between atoms: C10_12  and  N1_13 
ROOT
HETATM    1  C2  UNL     1      25.730   0.622  52.100  1.00  0.00     0.102 A 
HETATM    2  C3  UNL     1      26.175   1.663  51.310  1.00  0.00     0.054 A 
HETATM    3  C4  UNL     1      25.408   2.773  51.260  1.00  0.00     0.006 A 
HETATM    4  C5  UNL     1      24.181   3.071  51.896  1.00  0.00     0.072 A 
HETATM    5  C6  UNL     1      23.855   1.925  52.663  1.00  0.00     0.072 A 
HETATM    6  C7  UNL     1      24.522   0.693  52.837  1.00  0.00     0.104 A 
HETATM    7  N3  UNL     1      23.147   3.720  52.180  1.00  0.00    -0.242 NA
HETATM    8  C16 UNL     1      22.668   4.940  51.724  1.00  0.00     0.229 C 
HETATM    9  N4  UNL     1      22.641   5.946  50.997  1.00  0.00    -0.263 NA
HETATM   10  C17 UNL     1      23.175   6.660  49.953  1.00  0.00     0.272 C 
HETATM   11  N5  UNL     1      24.589   6.875  49.766  1.00  0.00    -0.371 N 
HETATM   12  C18 UNL     1      25.634   5.966  49.523  1.00  0.00     0.036 A 
HETATM   13  C19 UNL     1      25.296   4.969  50.268  1.00  0.00     0.042 A 
HETATM   14  C20 UNL     1      25.932   3.701  50.471  1.00  0.00    -0.021 A 
HETATM   15  C21 UNL     1      27.005   4.055  49.554  1.00  0.00     0.021 A 
HETATM   16  C22 UNL     1      26.823   5.302  49.047  1.00  0.00    -0.035 A 
HETATM   17  C23 UNL     1      27.613   6.099  48.119  1.00  0.00     0.050 C 
HETATM   18  H26 UNL     1      25.301   7.649  49.734  1.00  0.00     0.161 HD
ENDROOT
BRANCH   6  19
HETATM   19  O2  UNL     1      24.356  -0.475  53.506  1.00  0.00    -0.348 OA
BRANCH  19  20
HETATM   20  C8  UNL     1      23.671  -0.703  54.662  1.00  0.00     0.177 C 
BRANCH  20  21
HETATM   21  C9  UNL     1      22.341  -1.401  54.571  1.00  0.00     0.046 C 
BRANCH  21  22
HETATM   22  C10 UNL     1      21.310  -0.326  54.299  1.00  0.00     0.119 C 
BRANCH  22  23
HETATM   23  N1  UNL     1      20.547  -0.479  53.129  1.00  0.00    -0.409 N 
HETATM   24  C11 UNL     1      19.159  -0.713  53.236  1.00  0.00     0.147 C 
HETATM   25  C12 UNL     1      18.448  -0.034  52.086  1.00  0.00     0.291 C 
HETATM   26  N2  UNL     1      18.919   1.321  51.892  1.00  0.00     0.087 N 
HETATM   27  C13 UNL     1      18.106   2.074  50.993  1.00  0.00     0.310 C 
HETATM   28  C14 UNL     1      20.316   1.382  51.567  1.00  0.00     0.291 C 
HETATM   29  C15 UNL     1      21.018   0.061  51.916  1.00  0.00     0.147 C 
ENDBRANCH  22  23
ENDBRANCH  21  22
ENDBRANCH  20  21
ENDBRANCH  19  20
ENDBRANCH   6  19
BRANCH   1  30
HETATM   30  O1  UNL     1      26.548  -0.509  52.127  1.00  0.00    -0.353 OA
HETATM   31  C1  UNL     1      27.674  -0.521  52.948  1.00  0.00     0.210 C 
ENDBRANCH   1  30
TORSDOF 6
ENDMDL
MODEL 5
REMARK VINA RESULT:      -8.0      5.548     10.415
REMARK  6 active torsions:
REMARK  status: ('A' for Active; 'I' for Inactive)
REMARK    1  A    between atoms: O1_2  and  C2_3 
REMARK    2  A    between atoms: C7_8  and  O2_9 
REMARK    3  A    between atoms: O2_9  and  C8_10 
REMARK    4  A    between atoms: C8_10  and  C9_11 
REMARK    5  A    between atoms: C9_11  and  C10_12 
REMARK    6  A    between atoms: C10_12  and  N1_13 
ROOT
HETATM    1  C2  UNL     1      21.416  -0.174  52.744  1.00  0.00     0.102 A 
HETATM    2  C3  UNL     1      22.757   0.084  52.955  1.00  0.00     0.054 A 
HETATM    3  C4  UNL     1      23.342   1.001  52.155  1.00  0.00     0.006 A 
HETATM    4  C5  UNL     1      22.809   1.773  51.098  1.00  0.00     0.072 A 
HETATM    5  C6  UNL     1      21.444   1.405  51.002  1.00  0.00     0.072 A 
HETATM    6  C7  UNL     1      20.668   0.484  51.738  1.00  0.00     0.104 A 
HETATM    7  N3  UNL     1      22.799   2.574  50.133  1.00  0.00    -0.242 NA
HETATM    8  C16 UNL     1      23.817   3.288  49.516  1.00  0.00     0.229 C 
HETATM    9  N4  UNL     1      24.991   3.614  49.283  1.00  0.00    -0.263 NA
HETATM   10  C17 UNL     1      26.332   3.451  49.534  1.00  0.00     0.272 C 
HETATM   11  N5  UNL     1      26.893   3.333  50.857  1.00  0.00    -0.371 N 
HETATM   12  C18 UNL     1      26.709   2.356  51.852  1.00  0.00     0.036 A 
HETATM   13  C19 UNL     1      25.453   2.090  51.734  1.00  0.00     0.042 A 
HETATM   14  C20 UNL     1      24.625   1.163  52.447  1.00  0.00    -0.021 A 
HETATM   15  C21 UNL     1      25.752   0.738  53.265  1.00  0.00     0.021 A 
HETATM   16  C22 UNL     1      26.884   1.406  52.923  1.00  0.00    -0.035 A 
HETATM   17  C23 UNL     1      28.241   1.348  53.447  1.00  0.00     0.050 C 
HETATM   18  H26 UNL     1      27.551   3.827  51.513  1.00  0.00     0.161 HD
ENDROOT
BRANCH   6  19
HETATM   19  O2  UNL     1      19.394   0.019  51.775  1.00  0.00    -0.348 OA
BRANCH  19  20
HETATM   20  C8  UNL     1      18.331   0.387  51.005  1.00  0.00     0.177 C 
BRANCH  20  21
HETATM   21  C9  UNL     1      17.070  -0.429  51.100  1.00  0.00     0.046 C 
BRANCH  21  22
HETATM   22  C10 UNL     1      16.353   0.033  52.351  1.00  0.00     0.119 C 
BRANCH  22  23
HETATM   23  N1  UNL     1      15.118   0.675  52.157  1.00  0.00    -0.409 N 
HETATM   24  C11 UNL     1      14.131   0.588  53.162  1.00  0.00     0.147 C 
HETATM   25  C12 UNL     1      13.352   1.884  53.211  1.00  0.00     0.291 C 
HETATM   26  N2  UNL     1      14.229   3.036  53.187  1.00  0.00     0.087 N 
HETATM   27  C13 UNL     1      13.558   4.259  53.485  1.00  0.00     0.310 C 
HETATM   28  C14 UNL     1      15.017   3.108  51.989  1.00  0.00     0.291 C 
HETATM   29  C15 UNL     1      15.029   1.757  51.259  1.00  0.00     0.147 C 
ENDBRANCH  22  23
ENDBRANCH  21  22
ENDBRANCH  20  21
ENDBRANCH  19  20
ENDBRANCH   6  19
BRANCH   1  30
HETATM   30  O1  UNL     1      20.845  -1.127  53.589  1.00  0.00    -0.353 OA
HETATM   31  C1  UNL     1      21.609  -1.679  54.615  1.00  0.00     0.210 C 
ENDBRANCH   1  30
TORSDOF 6
ENDMDL
MODEL 6
REMARK VINA RESULT:      -8.0      1.828      2.219
REMARK  6 active torsions:
REMARK  status: ('A' for Active; 'I' for Inactive)
REMARK    1  A    between atoms: O1_2  and  C2_3 
REMARK    2  A    between atoms: C7_8  and  O2_9 
REMARK    3  A    between atoms: O2_9  and  C8_10 
REMARK    4  A    between atoms: C8_10  and  C9_11 
REMARK    5  A    between atoms: C9_11  and  C10_12 
REMARK    6  A    between atoms: C10_12  and  N1_13 
ROOT
HETATM    1  C2  UNL     1      22.293   4.621  51.226  1.00  0.00     0.102 A 
HETATM    2  C3  UNL     1      22.174   3.422  51.902  1.00  0.00     0.054 A 
HETATM    3  C4  UNL     1      23.300   2.697  52.075  1.00  0.00     0.006 A 
HETATM    4  C5  UNL     1      24.630   2.955  51.672  1.00  0.00     0.072 A 
HETATM    5  C6  UNL     1      24.596   4.202  51.002  1.00  0.00     0.072 A 
HETATM    6  C7  UNL     1      23.533   5.090  50.729  1.00  0.00     0.104 A 
HETATM    7  N3  UNL     1      25.853   2.741  51.494  1.00  0.00    -0.242 NA
HETATM    8  C16 UNL     1      26.650   1.643  51.783  1.00  0.00     0.229 C 
HETATM    9  N4  UNL     1      26.887   0.478  52.140  1.00  0.00    -0.263 NA
HETATM   10  C17 UNL     1      26.422  -0.740  52.573  1.00  0.00     0.272 C 
HETATM   11  N5  UNL     1      25.417  -0.900  53.595  1.00  0.00    -0.371 N 
HETATM   12  C18 UNL     1      24.067  -0.506  53.629  1.00  0.00     0.036 A 
HETATM   13  C19 UNL     1      24.111   0.639  53.038  1.00  0.00     0.042 A 
HETATM   14  C20 UNL     1      23.065   1.569  52.731  1.00  0.00    -0.021 A 
HETATM   15  C21 UNL     1      22.070   0.701  53.344  1.00  0.00     0.021 A 
HETATM   16  C22 UNL     1      22.642  -0.430  53.832  1.00  0.00    -0.035 A 
HETATM   17  C23 UNL     1      22.082  -1.577  54.532  1.00  0.00     0.050 C 
HETATM   18  H26 UNL     1      25.289  -1.302  54.558  1.00  0.00     0.161 HD
ENDROOT
BRANCH   6  19
HETATM   19  O2  UNL     1      23.327   6.283  50.116  1.00  0.00    -0.348 OA
BRANCH  19  20
HETATM   20  C8  UNL     1      23.618   7.534  50.572  1.00  0.00     0.177 C 
BRANCH  20  21
HETATM   21  C9  UNL     1      24.371   8.464  49.660  1.00  0.00     0.046 C 
BRANCH  21  22
HETATM   22  C10 UNL     1      25.408   7.621  48.948  1.00  0.00     0.119 C 
BRANCH  22  23
HETATM   23  N1  UNL     1      26.743   7.819  49.338  1.00  0.00    -0.409 N 
HETATM   24  C11 UNL     1      27.777   7.212  48.593  1.00  0.00     0.147 C 
HETATM   25  C12 UNL     1      28.982   8.126  48.574  1.00  0.00     0.291 C 
HETATM   26  N2  UNL     1      28.612   9.494  48.276  1.00  0.00     0.087 N 
HETATM   27  C13 UNL     1      29.734  10.331  48.001  1.00  0.00     0.310 C 
HETATM   28  C14 UNL     1      27.723  10.053  49.254  1.00  0.00     0.291 C 
HETATM   29  C15 UNL     1      27.083   8.950  50.108  1.00  0.00     0.147 C 
ENDBRANCH  22  23
ENDBRANCH  21  22
ENDBRANCH  20  21
ENDBRANCH  19  20
ENDBRANCH   6  19
BRANCH   1  30
HETATM   30  O1  UNL     1      21.109   5.343  51.065  1.00  0.00    -0.353 OA
HETATM   31  C1  UNL     1      19.930   4.666  50.756  1.00  0.00     0.210 C 
ENDBRANCH   1  30
TORSDOF 6
ENDMDL
MODEL 7
REMARK VINA RESULT:      -7.9      3.620      5.449
REMARK  6 active torsions:
REMARK  status: ('A' for Active; 'I' for Inactive)
REMARK    1  A    between atoms: O1_2  and  C2_3 
REMARK    2  A    between atoms: C7_8  and  O2_9 
REMARK    3  A    between atoms: O2_9  and  C8_10 
REMARK    4  A    between atoms: C8_10  and  C9_11 
REMARK    5  A    between atoms: C9_11  and  C10_12 
REMARK    6  A    between atoms: C10_12  and  N1_13 
ROOT
HETATM    1  C2  UNL     1      24.579   3.235  49.943  1.00  0.00     0.102 A 
HETATM    2  C3  UNL     1      25.447   2.678  50.861  1.00  0.00     0.054 A 
HETATM    3  C4  UNL     1      24.949   1.736  51.690  1.00  0.00     0.006 A 
HETATM    4  C5  UNL     1      23.646   1.197  51.791  1.00  0.00     0.072 A 
HETATM    5  C6  UNL     1      22.878   1.855  50.799  1.00  0.00     0.072 A 
HETATM    6  C7  UNL     1      23.219   2.848  49.856  1.00  0.00     0.104 A 
HETATM    7  N3  UNL     1      22.705   0.510  52.255  1.00  0.00    -0.242 NA
HETATM    8  C16 UNL     1      22.636  -0.344  53.346  1.00  0.00     0.229 C 
HETATM    9  N4  UNL     1      23.041  -0.891  54.384  1.00  0.00    -0.263 NA
HETATM   10  C17 UNL     1      24.026  -1.041  55.330  1.00  0.00     0.272 C 
HETATM   11  N5  UNL     1      25.428  -1.169  55.016  1.00  0.00    -0.371 N 
HETATM   12  C18 UNL     1      26.320  -0.272  54.402  1.00  0.00     0.036 A 
HETATM   13  C19 UNL     1      25.575   0.265  53.497  1.00  0.00     0.042 A 
HETATM   14  C20 UNL     1      25.870   1.277  52.527  1.00  0.00    -0.021 A 
HETATM   15  C21 UNL     1      27.243   1.374  52.999  1.00  0.00     0.021 A 
HETATM   16  C22 UNL     1      27.469   0.514  54.026  1.00  0.00    -0.035 A 
HETATM   17  C23 UNL     1      28.662   0.232  54.812  1.00  0.00     0.050 C 
HETATM   18  H26 UNL     1      26.225  -1.851  55.099  1.00  0.00     0.161 HD
ENDROOT
BRANCH   6  19
HETATM   19  O2  UNL     1      22.629   3.569  48.870  1.00  0.00    -0.348 OA
BRANCH  19  20
HETATM   20  C8  UNL     1      21.514   3.267  48.147  1.00  0.00     0.177 C 
BRANCH  20  21
HETATM   21  C9  UNL     1      20.289   4.119  48.345  1.00  0.00     0.046 C 
BRANCH  21  22
HETATM   22  C10 UNL     1      20.607   5.474  47.748  1.00  0.00     0.119 C 
BRANCH  22  23
HETATM   23  N1  UNL     1      20.957   6.486  48.658  1.00  0.00    -0.409 N 
HETATM   24  C11 UNL     1      20.697   6.298  50.033  1.00  0.00     0.147 C 
HETATM   25  C12 UNL     1      21.793   6.952  50.843  1.00  0.00     0.291 C 
HETATM   26  N2  UNL     1      23.107   6.628  50.327  1.00  0.00     0.087 N 
HETATM   27  C13 UNL     1      24.165   7.013  51.202  1.00  0.00     0.310 C 
HETATM   28  C14 UNL     1      23.301   7.085  48.980  1.00  0.00     0.291 C 
HETATM   29  C15 UNL     1      21.958   7.416  48.314  1.00  0.00     0.147 C 
ENDBRANCH  22  23
ENDBRANCH  21  22
ENDBRANCH  20  21
ENDBRANCH  19  20
ENDBRANCH   6  19
BRANCH   1  30
HETATM   30  O1  UNL     1      25.129   4.205  49.104  1.00  0.00    -0.353 OA
HETATM   31  C1  UNL     1      26.427   4.657  49.336  1.00  0.00     0.210 C 
ENDBRANCH   1  30
TORSDOF 6
ENDMDL
MODEL 8
REMARK VINA RESULT:      -7.9      6.148     10.371
REMARK  6 active torsions:
REMARK  status: ('A' for Active; 'I' for Inactive)
REMARK    1  A    between atoms: O1_2  and  C2_3 
REMARK    2  A    between atoms: C7_8  and  O2_9 
REMARK    3  A    between atoms: O2_9  and  C8_10 
REMARK    4  A    between atoms: C8_10  and  C9_11 
REMARK    5  A    between atoms: C9_11  and  C10_12 
REMARK    6  A    between atoms: C10_12  and  N1_13 
ROOT
HETATM    1  C2  UNL     1      20.502   1.693  52.685  1.00  0.00     0.102 A 
HETATM    2  C3  UNL     1      21.816   1.269  52.728  1.00  0.00     0.054 A 
HETATM    3  C4  UNL     1      22.747   2.090  52.198  1.00  0.00     0.006 A 
HETATM    4  C5  UNL     1      22.613   3.354  51.581  1.00  0.00     0.072 A 
HETATM    5  C6  UNL     1      21.229   3.654  51.611  1.00  0.00     0.072 A 
HETATM    6  C7  UNL     1      20.125   2.933  52.114  1.00  0.00     0.104 A 
HETATM    7  N3  UNL     1      22.960   4.390  50.965  1.00  0.00    -0.242 NA
HETATM    8  C16 UNL     1      24.186   4.795  50.457  1.00  0.00     0.229 C 
HETATM    9  N4  UNL     1      25.381   4.667  50.143  1.00  0.00    -0.263 NA
HETATM   10  C17 UNL     1      26.505   3.880  50.080  1.00  0.00     0.272 C 
HETATM   11  N5  UNL     1      26.960   3.041  51.160  1.00  0.00    -0.371 N 
HETATM   12  C18 UNL     1      26.361   1.928  51.778  1.00  0.00     0.036 A 
HETATM   13  C19 UNL     1      25.120   2.276  51.803  1.00  0.00     0.042 A 
HETATM   14  C20 UNL     1      23.967   1.580  52.293  1.00  0.00    -0.021 A 
HETATM   15  C21 UNL     1      24.785   0.447  52.701  1.00  0.00     0.021 A 
HETATM   16  C22 UNL     1      26.095   0.660  52.411  1.00  0.00    -0.035 A 
HETATM   17  C23 UNL     1      27.283  -0.152  52.632  1.00  0.00     0.050 C 
HETATM   18  H26 UNL     1      27.775   2.923  51.815  1.00  0.00     0.161 HD
ENDROOT
BRANCH   6  19
HETATM   19  O2  UNL     1      18.778   3.063  52.218  1.00  0.00    -0.348 OA
BRANCH  19  20
HETATM   20  C8  UNL     1      17.844   3.047  51.226  1.00  0.00     0.177 C 
BRANCH  20  21
HETATM   21  C9  UNL     1      16.923   4.231  51.101  1.00  0.00     0.046 C 
BRANCH  21  22
HETATM   22  C10 UNL     1      16.003   4.188  52.303  1.00  0.00     0.119 C 
BRANCH  22  23
HETATM   23  N1  UNL     1      14.819   3.445  52.152  1.00  0.00    -0.409 N 
HETATM   24  C11 UNL     1      14.702   2.196  52.798  1.00  0.00     0.147 C 
HETATM   25  C12 UNL     1      13.268   1.991  53.233  1.00  0.00     0.291 C 
HETATM   26  N2  UNL     1      12.732   3.170  53.882  1.00  0.00     0.087 N 
HETATM   27  C13 UNL     1      11.482   2.936  54.527  1.00  0.00     0.310 C 
HETATM   28  C14 UNL     1      12.710   4.316  53.018  1.00  0.00     0.291 C 
HETATM   29  C15 UNL     1      13.624   4.104  51.803  1.00  0.00     0.147 C 
ENDBRANCH  22  23
ENDBRANCH  21  22
ENDBRANCH  20  21
ENDBRANCH  19  20
ENDBRANCH   6  19
BRANCH   1  30
HETATM   30  O1  UNL     1      19.567   0.818  53.241  1.00  0.00    -0.353 OA
HETATM   31  C1  UNL     1      19.172  -0.310  52.525  1.00  0.00     0.210 C 
ENDBRANCH   1  30
TORSDOF 6
ENDMDL
MODEL 9
REMARK VINA RESULT:      -7.9      4.605      8.166
REMARK  6 active torsions:
REMARK  status: ('A' for Active; 'I' for Inactive)
REMARK    1  A    between atoms: O1_2  and  C2_3 
REMARK    2  A    between atoms: C7_8  and  O2_9 
REMARK    3  A    between atoms: O2_9  and  C8_10 
REMARK    4  A    between atoms: C8_10  and  C9_11 
REMARK    5  A    between atoms: C9_11  and  C10_12 
REMARK    6  A    between atoms: C10_12  and  N1_13 
ROOT
HETATM    1  C2  UNL     1      21.684  -0.321  52.965  1.00  0.00     0.102 A 
HETATM    2  C3  UNL     1      23.016   0.003  53.138  1.00  0.00     0.054 A 
HETATM    3  C4  UNL     1      23.542   0.923  52.303  1.00  0.00     0.006 A 
HETATM    4  C5  UNL     1      22.951   1.642  51.239  1.00  0.00     0.072 A 
HETATM    5  C6  UNL     1      21.603   1.212  51.183  1.00  0.00     0.072 A 
HETATM    6  C7  UNL     1      20.885   0.276  51.959  1.00  0.00     0.104 A 
HETATM    7  N3  UNL     1      22.884   2.417  50.255  1.00  0.00    -0.242 NA
HETATM    8  C16 UNL     1      23.855   3.159  49.597  1.00  0.00     0.229 C 
HETATM    9  N4  UNL     1      25.008   3.532  49.329  1.00  0.00    -0.263 NA
HETATM   10  C17 UNL     1      26.360   3.436  49.554  1.00  0.00     0.272 C 
HETATM   11  N5  UNL     1      26.954   3.378  50.867  1.00  0.00    -0.371 N 
HETATM   12  C18 UNL     1      26.836   2.420  51.890  1.00  0.00     0.036 A 
HETATM   13  C19 UNL     1      25.591   2.095  51.806  1.00  0.00     0.042 A 
HETATM   14  C20 UNL     1      24.822   1.151  52.561  1.00  0.00    -0.021 A 
HETATM   15  C21 UNL     1      25.984   0.798  53.364  1.00  0.00     0.021 A 
HETATM   16  C22 UNL     1      27.077   1.507  52.980  1.00  0.00    -0.035 A 
HETATM   17  C23 UNL     1      28.447   1.524  53.474  1.00  0.00     0.050 C 
HETATM   18  H26 UNL     1      27.603   3.918  51.494  1.00  0.00     0.161 HD
ENDROOT
BRANCH   6  19
HETATM   19  O2  UNL     1      19.635  -0.245  52.037  1.00  0.00    -0.348 OA
BRANCH  19  20
HETATM   20  C8  UNL     1      18.445   0.354  51.748  1.00  0.00     0.177 C 
BRANCH  20  21
HETATM   21  C9  UNL     1      18.009   0.403  50.308  1.00  0.00     0.046 C 
BRANCH  21  22
HETATM   22  C10 UNL     1      17.712   1.856  49.999  1.00  0.00     0.119 C 
BRANCH  22  23
HETATM   23  N1  UNL     1      18.827   2.688  49.798  1.00  0.00    -0.409 N 
HETATM   24  C11 UNL     1      19.499   2.651  48.558  1.00  0.00     0.147 C 
HETATM   25  C12 UNL     1      20.005   4.037  48.223  1.00  0.00     0.291 C 
HETATM   26  N2  UNL     1      18.988   5.045  48.441  1.00  0.00     0.087 N 
HETATM   27  C13 UNL     1      19.336   6.319  47.902  1.00  0.00     0.310 C 
HETATM   28  C14 UNL     1      18.561   5.114  49.809  1.00  0.00     0.291 C 
HETATM   29  C15 UNL     1      18.977   3.851  50.578  1.00  0.00     0.147 C 
ENDBRANCH  22  23
ENDBRANCH  21  22
ENDBRANCH  20  21
ENDBRANCH  19  20
ENDBRANCH   6  19
BRANCH   1  30
HETATM   30  O1  UNL     1      21.175  -1.276  53.846  1.00  0.00    -0.353 OA
HETATM   31  C1  UNL     1      21.968  -1.728  54.900  1.00  0.00     0.210 C 
ENDBRANCH   1  30
TORSDOF 6
ENDMDL
