MODEL 1
REMARK VINA RESULT:     -10.1      0.000      0.000
REMARK  5 active torsions:
REMARK  status: ('A' for Active; 'I' for Inactive)
REMARK    1  A    between atoms: C7_11  and  N3_12 
REMARK    2  A    between atoms: N3_12  and  C8_13 
REMARK    3  A    between atoms: N4_23  and  C17_24 
REMARK    4  A    between atoms: C17_24  and  C18_25 
REMARK    5  A    between atoms: C18_25  and  C19_26 
ROOT
HETATM    1  O1  UNL     1      22.788  -1.901  55.387  1.00  0.00    -0.271 OA
HETATM    2  C1  UNL     1      22.304  -1.189  54.447  1.00  0.00     0.248 C 
HETATM    3  C2  UNL     1      20.823  -1.239  54.194  1.00  0.00     0.279 C 
HETATM    4  O2  UNL     1      20.412   0.131  54.177  1.00  0.00    -0.340 OA
HETATM    5  C3  UNL     1      21.138   1.001  53.377  1.00  0.00     0.098 A 
HETATM    6  C4  UNL     1      20.544   2.116  52.830  1.00  0.00     0.071 A 
HETATM    7  C5  UNL     1      21.300   2.952  52.041  1.00  0.00     0.075 A 
HETATM    8  N1  UNL     1      20.633   4.020  51.549  1.00  0.00    -0.241 NA
HETATM    9  C6  UNL     1      21.259   4.912  50.762  1.00  0.00     0.236 A 
HETATM   10  N2  UNL     1      22.549   4.674  50.513  1.00  0.00    -0.224 NA
HETATM   11  C7  UNL     1      23.300   3.674  50.933  1.00  0.00     0.142 A 
HETATM   12  C14 UNL     1      22.647   2.762  51.739  1.00  0.00     0.041 A 
HETATM   13  C15 UNL     1      23.193   1.648  52.300  1.00  0.00     0.050 A 
HETATM   14  C16 UNL     1      22.470   0.787  53.097  1.00  0.00     0.071 A 
HETATM   15  N4  UNL     1      23.142  -0.347  53.630  1.00  0.00    -0.314 N 
ENDROOT
BRANCH  15  16
HETATM   16  C17 UNL     1      24.499  -0.722  53.447  1.00  0.00     0.134 C 
BRANCH  16  17
HETATM   17  C18 UNL     1      25.471  -0.150  54.441  1.00  0.00     0.056 C 
BRANCH  17  18
HETATM   18  C19 UNL     1      26.905  -0.426  53.980  1.00  0.00     0.230 C 
HETATM   19  C20 UNL     1      27.171   0.268  52.647  1.00  0.00     0.096 C 
HETATM   20  P1  UNL     1      27.428   2.070  53.089  1.00  0.00     0.016 P 
HETATM   21  O3  UNL     1      28.691   2.055  54.283  1.00  0.00    -0.338 OA
HETATM   22  H18 UNL     1      26.215   2.671  53.575  1.00  0.00     0.087 HD
HETATM   23  C21 UNL     1      28.955   0.713  54.552  1.00  0.00     0.442 C 
HETATM   24  N5  UNL     1      27.827  -0.041  54.992  1.00  0.00     0.111 N 
HETATM   25  H21 UNL     1      28.152  -0.799  55.608  1.00  0.00     0.319 HD
ENDBRANCH  17  18
ENDBRANCH  16  17
ENDBRANCH  15  16
BRANCH  11  26
HETATM   26  N3  UNL     1      24.654   3.459  50.646  1.00  0.00    -0.340 N 
HETATM   27  H5  UNL     1      25.159   2.596  50.930  1.00  0.00     0.167 HD
BRANCH  26  28
HETATM   28  C8  UNL     1      25.547   4.317  49.958  1.00  0.00     0.035 A 
HETATM   29  C9  UNL     1      26.705   3.876  49.355  1.00  0.00     0.029 A 
HETATM   30  C10 UNL     1      27.592   4.680  48.687  1.00  0.00     0.004 A 
HETATM   31  C11 UNL     1      27.361   6.019  48.580  1.00  0.00     0.024 A 
HETATM   32  C12 UNL     1      26.221   6.526  49.159  1.00  0.00     0.036 A 
HETATM   33 CL1  UNL     1      25.862   8.235  49.060  1.00  0.00    -0.084 Cl
HETATM   34  C13 UNL     1      25.382   5.676  49.808  1.00  0.00     0.053 A 
ENDBRANCH  26  28
ENDBRANCH  11  26
TORSDOF 5
ENDMDL
MODEL 2
REMARK VINA RESULT:      -9.8      2.958      5.843
REMARK  5 active torsions:
REMARK  status: ('A' for Active; 'I' for Inactive)
REMARK    1  A    between atoms: C7_11  and  N3_12 
REMARK    2  A    between atoms: N3_12  and  C8_13 
REMARK    3  A    between atoms: N4_23  and  C17_24 
REMARK    4  A    between atoms: C17_24  and  C18_25 
REMARK    5  A    between atoms: C18_25  and  C19_26 
ROOT
HETATM    1  O1  UNL     1      19.251   1.651  49.226  1.00  0.00    -0.271 OA
HETATM    2  C1  UNL     1      19.686   1.537  50.419  1.00  0.00     0.248 C 
HETATM    3  C2  UNL     1      18.697   1.559  51.552  1.00  0.00     0.279 C 
HETATM    4  O2  UNL     1      19.007   0.397  52.325  1.00  0.00    -0.340 OA
HETATM    5  C3  UNL     1      20.334   0.205  52.678  1.00  0.00     0.098 A 
HETATM    6  C4  UNL     1      20.666  -0.473  53.831  1.00  0.00     0.071 A 
HETATM    7  C5  UNL     1      21.995  -0.639  54.145  1.00  0.00     0.075 A 
HETATM    8  N1  UNL     1      22.222  -1.316  55.293  1.00  0.00    -0.241 NA
HETATM    9  C6  UNL     1      23.480  -1.545  55.711  1.00  0.00     0.236 A 
HETATM   10  N2  UNL     1      24.454  -1.070  54.933  1.00  0.00    -0.224 NA
HETATM   11  C7  UNL     1      24.355  -0.401  53.801  1.00  0.00     0.142 A 
HETATM   12  C14 UNL     1      23.060  -0.169  53.380  1.00  0.00     0.041 A 
HETATM   13  C15 UNL     1      22.687   0.494  52.251  1.00  0.00     0.050 A 
HETATM   14  C16 UNL     1      21.367   0.681  51.901  1.00  0.00     0.071 A 
HETATM   15  N4  UNL     1      21.093   1.389  50.699  1.00  0.00    -0.314 N 
ENDROOT
BRANCH  15  16
HETATM   16  C17 UNL     1      22.024   1.947  49.784  1.00  0.00     0.134 C 
BRANCH  16  17
HETATM   17  C18 UNL     1      22.044   3.448  49.712  1.00  0.00     0.056 C 
BRANCH  17  18
HETATM   18  C19 UNL     1      23.488   3.951  49.800  1.00  0.00     0.230 C 
HETATM   19  C20 UNL     1      23.585   5.097  50.803  1.00  0.00     0.096 C 
HETATM   20  P1  UNL     1      23.540   4.267  52.483  1.00  0.00     0.016 P 
HETATM   21  O3  UNL     1      24.826   3.099  52.431  1.00  0.00    -0.338 OA
HETATM   22  H18 UNL     1      22.258   3.667  52.739  1.00  0.00     0.087 HD
HETATM   23  C21 UNL     1      25.328   3.130  51.130  1.00  0.00     0.442 C 
HETATM   24  N5  UNL     1      24.363   2.874  50.112  1.00  0.00     0.111 N 
HETATM   25  H21 UNL     1      24.835   2.438  49.307  1.00  0.00     0.319 HD
ENDBRANCH  17  18
ENDBRANCH  16  17
ENDBRANCH  15  16
BRANCH  11  26
HETATM   26  N3  UNL     1      25.407   0.083  53.012  1.00  0.00    -0.340 N 
HETATM   27  H5  UNL     1      25.253   0.605  52.128  1.00  0.00     0.167 HD
BRANCH  26  28
HETATM   28  C8  UNL     1      26.799  -0.037  53.247  1.00  0.00     0.035 A 
HETATM   29  C9  UNL     1      27.512  -1.187  52.989  1.00  0.00     0.029 A 
HETATM   30  C10 UNL     1      28.857  -1.337  53.209  1.00  0.00     0.004 A 
HETATM   31  C11 UNL     1      29.591  -0.306  53.717  1.00  0.00     0.024 A 
HETATM   32  C12 UNL     1      28.940   0.872  53.997  1.00  0.00     0.036 A 
HETATM   33 CL1  UNL     1      29.820   2.236  54.650  1.00  0.00    -0.084 Cl
HETATM   34  C13 UNL     1      27.605   0.958  53.756  1.00  0.00     0.053 A 
ENDBRANCH  26  28
ENDBRANCH  11  26
TORSDOF 5
ENDMDL
MODEL 3
REMARK VINA RESULT:      -9.7      2.744      5.945
REMARK  5 active torsions:
REMARK  status: ('A' for Active; 'I' for Inactive)
REMARK    1  A    between atoms: C7_11  and  N3_12 
REMARK    2  A    between atoms: N3_12  and  C8_13 
REMARK    3  A    between atoms: N4_23  and  C17_24 
REMARK    4  A    between atoms: C17_24  and  C18_25 
REMARK    5  A    between atoms: C18_25  and  C19_26 
ROOT
HETATM    1  O1  UNL     1      28.981   1.707  53.079  1.00  0.00    -0.271 OA
HETATM    2  C1  UNL     1      28.092   0.816  53.286  1.00  0.00     0.248 C 
HETATM    3  C2  UNL     1      28.387  -0.279  54.273  1.00  0.00     0.279 C 
HETATM    4  O2  UNL     1      27.261  -0.286  55.154  1.00  0.00    -0.340 OA
HETATM    5  C3  UNL     1      26.001  -0.311  54.573  1.00  0.00     0.098 A 
HETATM    6  C4  UNL     1      24.935  -0.888  55.228  1.00  0.00     0.071 A 
HETATM    7  C5  UNL     1      23.703  -0.892  54.615  1.00  0.00     0.075 A 
HETATM    8  N1  UNL     1      22.719  -1.479  55.333  1.00  0.00    -0.241 NA
HETATM    9  C6  UNL     1      21.468  -1.549  54.844  1.00  0.00     0.236 A 
HETATM   10  N2  UNL     1      21.278  -1.013  53.637  1.00  0.00    -0.224 NA
HETATM   11  C7  UNL     1      22.153  -0.420  52.849  1.00  0.00     0.142 A 
HETATM   12  C14 UNL     1      23.436  -0.353  53.359  1.00  0.00     0.041 A 
HETATM   13  C15 UNL     1      24.516   0.205  52.748  1.00  0.00     0.050 A 
HETATM   14  C16 UNL     1      25.766   0.231  53.329  1.00  0.00     0.071 A 
HETATM   15  N4  UNL     1      26.824   0.840  52.600  1.00  0.00    -0.314 N 
ENDROOT
BRANCH  15  16
HETATM   16  C17 UNL     1      26.764   1.443  51.317  1.00  0.00     0.134 C 
BRANCH  16  17
HETATM   17  C18 UNL     1      26.362   2.892  51.298  1.00  0.00     0.056 C 
BRANCH  17  18
HETATM   18  C19 UNL     1      26.276   3.386  49.851  1.00  0.00     0.230 C 
HETATM   19  C20 UNL     1      24.827   3.703  49.489  1.00  0.00     0.096 C 
HETATM   20  P1  UNL     1      24.482   5.355  50.304  1.00  0.00     0.016 P 
HETATM   21  O3  UNL     1      25.734   6.407  49.713  1.00  0.00    -0.338 OA
HETATM   22  H18 UNL     1      24.483   5.245  51.738  1.00  0.00     0.087 HD
HETATM   23  C21 UNL     1      26.589   5.607  48.957  1.00  0.00     0.442 C 
HETATM   24  N5  UNL     1      27.144   4.496  49.659  1.00  0.00     0.111 N 
HETATM   25  H21 UNL     1      28.066   4.274  49.258  1.00  0.00     0.319 HD
ENDBRANCH  17  18
ENDBRANCH  16  17
ENDBRANCH  15  16
BRANCH  11  26
HETATM   26  N3  UNL     1      21.911   0.131  51.583  1.00  0.00    -0.340 N 
HETATM   27  H5  UNL     1      22.021  -0.411  50.704  1.00  0.00     0.167 HD
BRANCH  26  28
HETATM   28  C8  UNL     1      21.498   1.449  51.270  1.00  0.00     0.035 A 
HETATM   29  C9  UNL     1      20.995   2.325  52.207  1.00  0.00     0.029 A 
HETATM   30  C10 UNL     1      20.581   3.604  51.937  1.00  0.00     0.004 A 
HETATM   31  C11 UNL     1      20.652   4.096  50.667  1.00  0.00     0.024 A 
HETATM   32  C12 UNL     1      21.146   3.274  49.683  1.00  0.00     0.036 A 
HETATM   33 CL1  UNL     1      21.266   3.841  48.032  1.00  0.00    -0.084 Cl
HETATM   34  C13 UNL     1      21.540   2.016  50.015  1.00  0.00     0.053 A 
ENDBRANCH  26  28
ENDBRANCH  11  26
TORSDOF 5
ENDMDL
MODEL 4
REMARK VINA RESULT:      -9.6      2.220      5.063
REMARK  5 active torsions:
REMARK  status: ('A' for Active; 'I' for Inactive)
REMARK    1  A    between atoms: C7_11  and  N3_12 
REMARK    2  A    between atoms: N3_12  and  C8_13 
REMARK    3  A    between atoms: N4_23  and  C17_24 
REMARK    4  A    between atoms: C17_24  and  C18_25 
REMARK    5  A    between atoms: C18_25  and  C19_26 
ROOT
HETATM    1  O1  UNL     1      21.530  -2.263  53.996  1.00  0.00    -0.271 OA
HETATM    2  C1  UNL     1      22.417  -1.391  54.277  1.00  0.00     0.248 C 
HETATM    3  C2  UNL     1      22.913  -1.299  55.693  1.00  0.00     0.279 C 
HETATM    4  O2  UNL     1      24.338  -1.349  55.581  1.00  0.00    -0.340 OA
HETATM    5  C3  UNL     1      24.933  -0.489  54.669  1.00  0.00     0.098 A 
HETATM    6  C4  UNL     1      26.215  -0.027  54.870  1.00  0.00     0.071 A 
HETATM    7  C5  UNL     1      26.767   0.825  53.942  1.00  0.00     0.075 A 
HETATM    8  N1  UNL     1      28.028   1.225  54.222  1.00  0.00    -0.241 NA
HETATM    9  C6  UNL     1      28.679   2.060  53.393  1.00  0.00     0.236 A 
HETATM   10  N2  UNL     1      28.009   2.450  52.307  1.00  0.00    -0.224 NA
HETATM   11  C7  UNL     1      26.786   2.130  51.931  1.00  0.00     0.142 A 
HETATM   12  C14 UNL     1      26.125   1.273  52.790  1.00  0.00     0.041 A 
HETATM   13  C15 UNL     1      24.861   0.792  52.631  1.00  0.00     0.050 A 
HETATM   14  C16 UNL     1      24.273  -0.064  53.538  1.00  0.00     0.071 A 
HETATM   15  N4  UNL     1      22.947  -0.502  53.272  1.00  0.00    -0.314 N 
ENDROOT
BRANCH  15  16
HETATM   16  C17 UNL     1      22.123  -0.168  52.166  1.00  0.00     0.134 C 
BRANCH  16  17
HETATM   17  C18 UNL     1      21.050   0.849  52.440  1.00  0.00     0.056 C 
BRANCH  17  18
HETATM   18  C19 UNL     1      21.566   2.250  52.100  1.00  0.00     0.230 C 
HETATM   19  C20 UNL     1      22.048   2.295  50.653  1.00  0.00     0.096 C 
HETATM   20  P1  UNL     1      20.481   2.387  49.629  1.00  0.00     0.016 P 
HETATM   21  O3  UNL     1      19.622   3.760  50.261  1.00  0.00    -0.338 OA
HETATM   22  H18 UNL     1      19.721   1.169  49.721  1.00  0.00     0.087 HD
HETATM   23  C21 UNL     1      20.354   4.203  51.362  1.00  0.00     0.442 C 
HETATM   24  N5  UNL     1      20.564   3.221  52.374  1.00  0.00     0.111 N 
HETATM   25  H21 UNL     1      20.641   3.693  53.286  1.00  0.00     0.319 HD
ENDBRANCH  17  18
ENDBRANCH  16  17
ENDBRANCH  15  16
BRANCH  11  26
HETATM   26  N3  UNL     1      26.117   2.565  50.779  1.00  0.00    -0.340 N 
HETATM   27  H5  UNL     1      25.536   1.932  50.194  1.00  0.00     0.167 HD
BRANCH  26  28
HETATM   28  C8  UNL     1      26.102   3.865  50.218  1.00  0.00     0.035 A 
HETATM   29  C9  UNL     1      26.954   4.264  49.211  1.00  0.00     0.029 A 
HETATM   30  C10 UNL     1      26.968   5.515  48.650  1.00  0.00     0.004 A 
HETATM   31  C11 UNL     1      26.097   6.472  49.081  1.00  0.00     0.024 A 
HETATM   32  C12 UNL     1      25.218   6.140  50.084  1.00  0.00     0.036 A 
HETATM   33 CL1  UNL     1      24.073   7.319  50.685  1.00  0.00    -0.084 Cl
HETATM   34  C13 UNL     1      25.254   4.882  50.599  1.00  0.00     0.053 A 
ENDBRANCH  26  28
ENDBRANCH  11  26
TORSDOF 5
ENDMDL
MODEL 5
REMARK VINA RESULT:      -9.5      2.649      5.431
REMARK  5 active torsions:
REMARK  status: ('A' for Active; 'I' for Inactive)
REMARK    1  A    between atoms: C7_11  and  N3_12 
REMARK    2  A    between atoms: N3_12  and  C8_13 
REMARK    3  A    between atoms: N4_23  and  C17_24 
REMARK    4  A    between atoms: C17_24  and  C18_25 
REMARK    5  A    between atoms: C18_25  and  C19_26 
ROOT
HETATM    1  O1  UNL     1      21.385  -2.195  53.829  1.00  0.00    -0.271 OA
HETATM    2  C1  UNL     1      22.277  -1.335  54.131  1.00  0.00     0.248 C 
HETATM    3  C2  UNL     1      22.748  -1.257  55.556  1.00  0.00     0.279 C 
HETATM    4  O2  UNL     1      24.175  -1.323  55.470  1.00  0.00    -0.340 OA
HETATM    5  C3  UNL     1      24.796  -0.464  54.574  1.00  0.00     0.098 A 
HETATM    6  C4  UNL     1      26.079  -0.018  54.801  1.00  0.00     0.071 A 
HETATM    7  C5  UNL     1      26.657   0.833  53.888  1.00  0.00     0.075 A 
HETATM    8  N1  UNL     1      27.917   1.217  54.194  1.00  0.00    -0.241 NA
HETATM    9  C6  UNL     1      28.592   2.049  53.381  1.00  0.00     0.236 A 
HETATM   10  N2  UNL     1      27.947   2.454  52.286  1.00  0.00    -0.224 NA
HETATM   11  C7  UNL     1      26.727   2.150  51.886  1.00  0.00     0.142 A 
HETATM   12  C14 UNL     1      26.041   1.295  52.727  1.00  0.00     0.041 A 
HETATM   13  C15 UNL     1      24.775   0.830  52.543  1.00  0.00     0.050 A 
HETATM   14  C16 UNL     1      24.161  -0.025  53.433  1.00  0.00     0.071 A 
HETATM   15  N4  UNL     1      22.835  -0.447  53.142  1.00  0.00    -0.314 N 
ENDROOT
BRANCH  15  16
HETATM   16  C17 UNL     1      22.035  -0.097  52.023  1.00  0.00     0.134 C 
BRANCH  16  17
HETATM   17  C18 UNL     1      21.425   1.277  52.066  1.00  0.00     0.056 C 
BRANCH  17  18
HETATM   18  C19 UNL     1      19.981   1.186  52.568  1.00  0.00     0.230 C 
HETATM   19  C20 UNL     1      19.132   2.281  51.928  1.00  0.00     0.096 C 
HETATM   20  P1  UNL     1      18.796   1.670  50.188  1.00  0.00     0.016 P 
HETATM   21  O3  UNL     1      18.094   0.094  50.403  1.00  0.00    -0.338 OA
HETATM   22  H18 UNL     1      20.000   1.636  49.401  1.00  0.00     0.087 HD
HETATM   23  C21 UNL     1      18.153  -0.175  51.770  1.00  0.00     0.442 C 
HETATM   24  N5  UNL     1      19.462  -0.117  52.333  1.00  0.00     0.111 N 
HETATM   25  H21 UNL     1      19.510  -0.765  53.132  1.00  0.00     0.319 HD
ENDBRANCH  17  18
ENDBRANCH  16  17
ENDBRANCH  15  16
BRANCH  11  26
HETATM   26  N3  UNL     1      26.084   2.599  50.725  1.00  0.00    -0.340 N 
HETATM   27  H5  UNL     1      25.431   2.004  50.178  1.00  0.00     0.167 HD
BRANCH  26  28
HETATM   28  C8  UNL     1      26.189   3.869  50.105  1.00  0.00     0.035 A 
HETATM   29  C9  UNL     1      27.158   4.178  49.177  1.00  0.00     0.029 A 
HETATM   30  C10 UNL     1      27.290   5.397  48.563  1.00  0.00     0.004 A 
HETATM   31  C11 UNL     1      26.426   6.411  48.855  1.00  0.00     0.024 A 
HETATM   32  C12 UNL     1      25.433   6.169  49.774  1.00  0.00     0.036 A 
HETATM   33 CL1  UNL     1      24.290   7.425  50.195  1.00  0.00    -0.084 Cl
HETATM   34  C13 UNL     1      25.356   4.939  50.347  1.00  0.00     0.053 A 
ENDBRANCH  26  28
ENDBRANCH  11  26
TORSDOF 5
ENDMDL
MODEL 6
REMARK VINA RESULT:      -9.0      3.866      6.328
REMARK  5 active torsions:
REMARK  status: ('A' for Active; 'I' for Inactive)
REMARK    1  A    between atoms: C7_11  and  N3_12 
REMARK    2  A    between atoms: N3_12  and  C8_13 
REMARK    3  A    between atoms: N4_23  and  C17_24 
REMARK    4  A    between atoms: C17_24  and  C18_25 
REMARK    5  A    between atoms: C18_25  and  C19_26 
ROOT
HETATM    1  O1  UNL     1      18.874   1.887  49.265  1.00  0.00    -0.271 OA
HETATM    2  C1  UNL     1      19.366   1.758  50.434  1.00  0.00     0.248 C 
HETATM    3  C2  UNL     1      18.436   1.790  51.615  1.00  0.00     0.279 C 
HETATM    4  O2  UNL     1      18.763   0.617  52.366  1.00  0.00    -0.340 OA
HETATM    5  C3  UNL     1      20.103   0.400  52.651  1.00  0.00     0.098 A 
HETATM    6  C4  UNL     1      20.480  -0.291  53.782  1.00  0.00     0.071 A 
HETATM    7  C5  UNL     1      21.820  -0.482  54.027  1.00  0.00     0.075 A 
HETATM    8  N1  UNL     1      22.093  -1.170  55.158  1.00  0.00    -0.241 NA
HETATM    9  C6  UNL     1      23.366  -1.423  55.512  1.00  0.00     0.236 A 
HETATM   10  N2  UNL     1      24.308  -0.961  54.688  1.00  0.00    -0.224 NA
HETATM   11  C7  UNL     1      24.164  -0.282  53.566  1.00  0.00     0.142 A 
HETATM   12  C14 UNL     1      22.853  -0.026  53.212  1.00  0.00     0.041 A 
HETATM   13  C15 UNL     1      22.436   0.651  52.107  1.00  0.00     0.050 A 
HETATM   14  C16 UNL     1      21.104   0.863  51.825  1.00  0.00     0.071 A 
HETATM   15  N4  UNL     1      20.782   1.584  50.642  1.00  0.00    -0.314 N 
ENDROOT
BRANCH  15  16
HETATM   16  C17 UNL     1      21.676   2.130  49.684  1.00  0.00     0.134 C 
BRANCH  16  17
HETATM   17  C18 UNL     1      22.600   3.201  50.195  1.00  0.00     0.056 C 
BRANCH  17  18
HETATM   18  C19 UNL     1      21.812   4.203  51.044  1.00  0.00     0.230 C 
HETATM   19  C20 UNL     1      22.712   4.799  52.123  1.00  0.00     0.096 C 
HETATM   20  P1  UNL     1      23.767   6.059  51.223  1.00  0.00     0.016 P 
HETATM   21  O3  UNL     1      22.625   7.100  50.426  1.00  0.00    -0.338 OA
HETATM   22  H18 UNL     1      24.673   5.426  50.303  1.00  0.00     0.087 HD
HETATM   23  C21 UNL     1      21.367   6.543  50.652  1.00  0.00     0.442 C 
HETATM   24  N5  UNL     1      21.224   5.194  50.211  1.00  0.00     0.111 N 
HETATM   25  H21 UNL     1      20.241   5.031  49.953  1.00  0.00     0.319 HD
ENDBRANCH  17  18
ENDBRANCH  16  17
ENDBRANCH  15  16
BRANCH  11  26
HETATM   26  N3  UNL     1      25.184   0.188  52.728  1.00  0.00    -0.340 N 
HETATM   27  H5  UNL     1      25.054   0.324  51.706  1.00  0.00     0.167 HD
BRANCH  26  28
HETATM   28  C8  UNL     1      26.508   0.547  53.082  1.00  0.00     0.035 A 
HETATM   29  C9  UNL     1      26.901   1.847  53.314  1.00  0.00     0.029 A 
HETATM   30  C10 UNL     1      28.174   2.228  53.653  1.00  0.00     0.004 A 
HETATM   31  C11 UNL     1      29.159   1.295  53.785  1.00  0.00     0.024 A 
HETATM   32  C12 UNL     1      28.834  -0.023  53.568  1.00  0.00     0.036 A 
HETATM   33 CL1  UNL     1      30.050  -1.271  53.720  1.00  0.00    -0.084 Cl
HETATM   34  C13 UNL     1      27.554  -0.336  53.234  1.00  0.00     0.053 A 
ENDBRANCH  26  28
ENDBRANCH  11  26
TORSDOF 5
ENDMDL
MODEL 7
REMARK VINA RESULT:      -8.8      3.388      6.235
REMARK  5 active torsions:
REMARK  status: ('A' for Active; 'I' for Inactive)
REMARK    1  A    between atoms: C7_11  and  N3_12 
REMARK    2  A    between atoms: N3_12  and  C8_13 
REMARK    3  A    between atoms: N4_23  and  C17_24 
REMARK    4  A    between atoms: C17_24  and  C18_25 
REMARK    5  A    between atoms: C18_25  and  C19_26 
ROOT
HETATM    1  O1  UNL     1      20.024   2.845  47.301  1.00  0.00    -0.271 OA
HETATM    2  C1  UNL     1      20.071   2.588  48.549  1.00  0.00     0.248 C 
HETATM    3  C2  UNL     1      18.780   2.468  49.308  1.00  0.00     0.279 C 
HETATM    4  O2  UNL     1      18.881   1.221  50.001  1.00  0.00    -0.340 OA
HETATM    5  C3  UNL     1      20.040   0.991  50.728  1.00  0.00     0.098 A 
HETATM    6  C4  UNL     1      20.024   0.179  51.840  1.00  0.00     0.071 A 
HETATM    7  C5  UNL     1      21.195  -0.021  52.534  1.00  0.00     0.075 A 
HETATM    8  N1  UNL     1      21.082  -0.832  53.609  1.00  0.00    -0.241 NA
HETATM    9  C6  UNL     1      22.156  -1.107  54.371  1.00  0.00     0.236 A 
HETATM   10  N2  UNL     1      23.304  -0.538  53.998  1.00  0.00    -0.224 NA
HETATM   11  C7  UNL     1      23.534   0.265  52.977  1.00  0.00     0.142 A 
HETATM   12  C14 UNL     1      22.425   0.542  52.200  1.00  0.00     0.041 A 
HETATM   13  C15 UNL     1      22.395   1.337  51.096  1.00  0.00     0.050 A 
HETATM   14  C16 UNL     1      21.242   1.562  50.373  1.00  0.00     0.071 A 
HETATM   15  N4  UNL     1      21.326   2.411  49.237  1.00  0.00    -0.314 N 
ENDROOT
BRANCH  15  16
HETATM   16  C17 UNL     1      22.472   3.079  48.730  1.00  0.00     0.134 C 
BRANCH  16  17
HETATM   17  C18 UNL     1      22.533   4.557  48.996  1.00  0.00     0.056 C 
BRANCH  17  18
HETATM   18  C19 UNL     1      23.165   4.810  50.368  1.00  0.00     0.230 C 
HETATM   19  C20 UNL     1      24.596   4.279  50.393  1.00  0.00     0.096 C 
HETATM   20  P1  UNL     1      25.596   5.555  49.454  1.00  0.00     0.016 P 
HETATM   21  O3  UNL     1      25.256   7.059  50.256  1.00  0.00    -0.338 OA
HETATM   22  H18 UNL     1      25.242   5.580  48.060  1.00  0.00     0.087 HD
HETATM   23  C21 UNL     1      24.281   6.777  51.213  1.00  0.00     0.442 C 
HETATM   24  N5  UNL     1      23.088   6.192  50.695  1.00  0.00     0.111 N 
HETATM   25  H21 UNL     1      22.296   6.462  51.296  1.00  0.00     0.319 HD
ENDBRANCH  17  18
ENDBRANCH  16  17
ENDBRANCH  15  16
BRANCH  11  26
HETATM   26  N3  UNL     1      24.758   0.844  52.619  1.00  0.00    -0.340 N 
HETATM   27  H5  UNL     1      24.825   1.724  52.069  1.00  0.00     0.167 HD
BRANCH  26  28
HETATM   28  C8  UNL     1      26.063   0.378  52.914  1.00  0.00     0.035 A 
HETATM   29  C9  UNL     1      26.487  -0.904  52.639  1.00  0.00     0.029 A 
HETATM   30  C10 UNL     1      27.739  -1.388  52.917  1.00  0.00     0.004 A 
HETATM   31  C11 UNL     1      28.672  -0.586  53.504  1.00  0.00     0.024 A 
HETATM   32  C12 UNL     1      28.315   0.707  53.804  1.00  0.00     0.036 A 
HETATM   33 CL1  UNL     1      29.462   1.791  54.559  1.00  0.00    -0.084 Cl
HETATM   34  C13 UNL     1      27.057   1.127  53.505  1.00  0.00     0.053 A 
ENDBRANCH  26  28
ENDBRANCH  11  26
TORSDOF 5
ENDMDL
MODEL 8
REMARK VINA RESULT:      -8.8      2.671      5.301
REMARK  5 active torsions:
REMARK  status: ('A' for Active; 'I' for Inactive)
REMARK    1  A    between atoms: C7_11  and  N3_12 
REMARK    2  A    between atoms: N3_12  and  C8_13 
REMARK    3  A    between atoms: N4_23  and  C17_24 
REMARK    4  A    between atoms: C17_24  and  C18_25 
REMARK    5  A    between atoms: C18_25  and  C19_26 
ROOT
HETATM    1  O1  UNL     1      19.787  -0.960  53.284  1.00  0.00    -0.271 OA
HETATM    2  C1  UNL     1      20.904  -0.441  53.613  1.00  0.00     0.248 C 
HETATM    3  C2  UNL     1      21.511  -0.819  54.936  1.00  0.00     0.279 C 
HETATM    4  O2  UNL     1      22.851  -1.210  54.620  1.00  0.00    -0.340 OA
HETATM    5  C3  UNL     1      23.595  -0.343  53.833  1.00  0.00     0.098 A 
HETATM    6  C4  UNL     1      24.967  -0.291  53.945  1.00  0.00     0.071 A 
HETATM    7  C5  UNL     1      25.666   0.583  53.146  1.00  0.00     0.075 A 
HETATM    8  N1  UNL     1      27.006   0.563  53.326  1.00  0.00    -0.241 NA
HETATM    9  C6  UNL     1      27.803   1.372  52.606  1.00  0.00     0.236 A 
HETATM   10  N2  UNL     1      27.191   2.169  51.727  1.00  0.00    -0.224 NA
HETATM   11  C7  UNL     1      25.903   2.276  51.465  1.00  0.00     0.142 A 
HETATM   12  C14 UNL     1      25.093   1.442  52.211  1.00  0.00     0.041 A 
HETATM   13  C15 UNL     1      23.736   1.358  52.133  1.00  0.00     0.050 A 
HETATM   14  C16 UNL     1      22.999   0.495  52.916  1.00  0.00     0.071 A 
HETATM   15  N4  UNL     1      21.587   0.491  52.751  1.00  0.00    -0.314 N 
ENDROOT
BRANCH  15  16
HETATM   16  C17 UNL     1      20.811   1.280  51.863  1.00  0.00     0.134 C 
BRANCH  16  17
HETATM   17  C18 UNL     1      20.940   0.934  50.405  1.00  0.00     0.056 C 
BRANCH  17  18
HETATM   18  C19 UNL     1      20.005   1.822  49.579  1.00  0.00     0.230 C 
HETATM   19  C20 UNL     1      20.026   3.251  50.116  1.00  0.00     0.096 C 
HETATM   20  P1  UNL     1      21.632   3.977  49.483  1.00  0.00     0.016 P 
HETATM   21  O3  UNL     1      21.575   3.739  47.762  1.00  0.00    -0.338 OA
HETATM   22  H18 UNL     1      22.772   3.343  50.090  1.00  0.00     0.087 HD
HETATM   23  C21 UNL     1      20.422   2.996  47.511  1.00  0.00     0.442 C 
HETATM   24  N5  UNL     1      20.352   1.750  48.202  1.00  0.00     0.111 N 
HETATM   25  H21 UNL     1      19.801   1.087  47.639  1.00  0.00     0.319 HD
ENDBRANCH  17  18
ENDBRANCH  16  17
ENDBRANCH  15  16
BRANCH  11  26
HETATM   26  N3  UNL     1      25.300   3.130  50.532  1.00  0.00    -0.340 N 
HETATM   27  H5  UNL     1      24.339   2.976  50.168  1.00  0.00     0.167 HD
BRANCH  26  28
HETATM   28  C8  UNL     1      25.843   4.295  49.937  1.00  0.00     0.035 A 
HETATM   29  C9  UNL     1      25.202   5.515  49.942  1.00  0.00     0.029 A 
HETATM   30  C10 UNL     1      25.697   6.659  49.372  1.00  0.00     0.004 A 
HETATM   31  C11 UNL     1      26.907   6.646  48.743  1.00  0.00     0.024 A 
HETATM   32  C12 UNL     1      27.602   5.460  48.703  1.00  0.00     0.036 A 
HETATM   33 CL1  UNL     1      29.160   5.373  47.913  1.00  0.00    -0.084 Cl
HETATM   34  C13 UNL     1      27.056   4.360  49.287  1.00  0.00     0.053 A 
ENDBRANCH  26  28
ENDBRANCH  11  26
TORSDOF 5
ENDMDL
MODEL 9
REMARK VINA RESULT:      -8.7      4.936      8.073
REMARK  5 active torsions:
REMARK  status: ('A' for Active; 'I' for Inactive)
REMARK    1  A    between atoms: C7_11  and  N3_12 
REMARK    2  A    between atoms: N3_12  and  C8_13 
REMARK    3  A    between atoms: N4_23  and  C17_24 
REMARK    4  A    between atoms: C17_24  and  C18_25 
REMARK    5  A    between atoms: C18_25  and  C19_26 
ROOT
HETATM    1  O1  UNL     1      27.066   8.877  46.541  1.00  0.00    -0.271 OA
HETATM    2  C1  UNL     1      26.273   8.317  47.368  1.00  0.00     0.248 C 
HETATM    3  C2  UNL     1      24.845   8.781  47.423  1.00  0.00     0.279 C 
HETATM    4  O2  UNL     1      24.070   7.585  47.309  1.00  0.00    -0.340 OA
HETATM    5  C3  UNL     1      24.402   6.532  48.149  1.00  0.00     0.098 A 
HETATM    6  C4  UNL     1      23.448   5.622  48.549  1.00  0.00     0.071 A 
HETATM    7  C5  UNL     1      23.819   4.593  49.383  1.00  0.00     0.075 A 
HETATM    8  N1  UNL     1      22.817   3.752  49.721  1.00  0.00    -0.241 NA
HETATM    9  C6  UNL     1      23.050   2.705  50.533  1.00  0.00     0.236 A 
HETATM   10  N2  UNL     1      24.306   2.563  50.964  1.00  0.00    -0.224 NA
HETATM   11  C7  UNL     1      25.358   3.315  50.704  1.00  0.00     0.142 A 
HETATM   12  C14 UNL     1      25.108   4.388  49.871  1.00  0.00     0.041 A 
HETATM   13  C15 UNL     1      26.018   5.309  49.451  1.00  0.00     0.050 A 
HETATM   14  C16 UNL     1      25.686   6.354  48.615  1.00  0.00     0.071 A 
HETATM   15  N4  UNL     1      26.717   7.258  48.240  1.00  0.00    -0.314 N 
ENDROOT
BRANCH  15  16
HETATM   16  C17 UNL     1      28.083   7.229  48.622  1.00  0.00     0.134 C 
BRANCH  16  17
HETATM   17  C18 UNL     1      28.984   6.394  47.754  1.00  0.00     0.056 C 
BRANCH  17  18
HETATM   18  C19 UNL     1      30.169   5.884  48.577  1.00  0.00     0.230 C 
HETATM   19  C20 UNL     1      31.195   5.217  47.666  1.00  0.00     0.096 C 
HETATM   20  P1  UNL     1      32.097   6.636  46.842  1.00  0.00     0.016 P 
HETATM   21  O3  UNL     1      32.672   7.616  48.158  1.00  0.00    -0.338 OA
HETATM   22  H18 UNL     1      31.234   7.362  45.948  1.00  0.00     0.087 HD
HETATM   23  C21 UNL     1      32.148   7.051  49.320  1.00  0.00     0.442 C 
HETATM   24  N5  UNL     1      30.726   6.945  49.344  1.00  0.00     0.111 N 
HETATM   25  H21 UNL     1      30.403   7.005  50.320  1.00  0.00     0.319 HD
ENDBRANCH  17  18
ENDBRANCH  16  17
ENDBRANCH  15  16
BRANCH  11  26
HETATM   26  N3  UNL     1      26.663   3.132  51.180  1.00  0.00    -0.340 N 
HETATM   27  H5  UNL     1      27.444   3.773  50.940  1.00  0.00     0.167 HD
BRANCH  26  28
HETATM   28  C8  UNL     1      27.146   2.104  52.026  1.00  0.00     0.035 A 
HETATM   29  C9  UNL     1      28.002   2.334  53.081  1.00  0.00     0.029 A 
HETATM   30  C10 UNL     1      28.492   1.362  53.915  1.00  0.00     0.004 A 
HETATM   31  C11 UNL     1      28.139   0.058  53.734  1.00  0.00     0.024 A 
HETATM   32  C12 UNL     1      27.285  -0.242  52.698  1.00  0.00     0.036 A 
HETATM   33 CL1  UNL     1      26.791  -1.895  52.408  1.00  0.00    -0.084 Cl
HETATM   34  C13 UNL     1      26.835   0.767  51.907  1.00  0.00     0.053 A 
ENDBRANCH  26  28
ENDBRANCH  11  26
TORSDOF 5
ENDMDL
