MODEL 1
REMARK VINA RESULT:      -8.2      0.000      0.000
REMARK  4 active torsions:
REMARK  status: ('A' for Active; 'I' for Inactive)
REMARK    1  A    between atoms: C2_2  and  C3_3 
REMARK    2  A    between atoms: C8_8  and  O1_9 
REMARK    3  A    between atoms: C8_8  and  C9_10 
REMARK    4  A    between atoms: C15_18  and  O3_19 
ROOT
HETATM    1  C3  UNL     1      23.062   1.089  52.016  1.00  0.00     0.012 C 
HETATM    2  C4  UNL     1      23.949   1.555  53.050  1.00  0.00    -0.010 C 
HETATM    3  C5  UNL     1      24.120   0.552  53.866  1.00  0.00    -0.034 C 
HETATM    4  C6  UNL     1      24.657  -0.481  53.236  1.00  0.00    -0.011 C 
HETATM    5  C7  UNL     1      25.484   0.332  52.333  1.00  0.00     0.075 C 
HETATM    6  C8  UNL     1      26.637   1.003  52.984  1.00  0.00     0.111 C 
HETATM    7  C13 UNL     1      27.103   2.107  52.057  1.00  0.00     0.019 C 
HETATM    8  C14 UNL     1      26.485   2.841  51.108  1.00  0.00     0.035 C 
HETATM    9  C15 UNL     1      25.233   3.135  50.366  1.00  0.00     0.061 C 
HETATM   10  C16 UNL     1      23.963   2.659  50.375  1.00  0.00     0.010 C 
HETATM   11  C17 UNL     1      22.800   1.849  50.756  1.00  0.00     0.038 C 
ENDROOT
BRANCH   6  12
HETATM   12  O1  UNL     1      26.382   1.707  54.168  1.00  0.00    -0.380 OA
HETATM   13  H11 UNL     1      27.118   1.515  54.778  1.00  0.00     0.211 HD
ENDBRANCH   6  12
BRANCH   6  14
HETATM   14  C9  UNL     1      27.805   0.196  53.311  1.00  0.00     0.045 A 
HETATM   15  C10 UNL     1      28.006  -1.056  52.930  1.00  0.00     0.009 A 
HETATM   16  C11 UNL     1      29.317  -1.548  53.457  1.00  0.00     0.151 A 
HETATM   17  N1  UNL     1      29.792  -0.401  54.207  1.00  0.00    -0.354 N 
HETATM   18  C12 UNL     1      28.882   0.679  54.116  1.00  0.00     0.251 A 
HETATM   19  H15 UNL     1      30.689  -0.518  54.687  1.00  0.00     0.163 HD
HETATM   20  O2  UNL     1      29.172   1.732  54.698  1.00  0.00    -0.268 OA
ENDBRANCH   6  14
BRANCH   9  21
HETATM   21  O3  UNL     1      25.466   4.181  49.423  1.00  0.00    -0.361 OA
HETATM   22  H18 UNL     1      25.402   5.101  49.856  1.00  0.00     0.217 HD
ENDBRANCH   9  21
BRANCH   1  23
HETATM   23  C2  UNL     1      22.085  -0.029  52.321  1.00  0.00     0.004 C 
HETATM   24  C1  UNL     1      20.638   0.232  52.003  1.00  0.00     0.006 C 
ENDBRANCH   1  23
TORSDOF 4
ENDMDL
MODEL 2
REMARK VINA RESULT:      -7.9      2.199      3.849
REMARK  4 active torsions:
REMARK  status: ('A' for Active; 'I' for Inactive)
REMARK    1  A    between atoms: C2_2  and  C3_3 
REMARK    2  A    between atoms: C8_8  and  O1_9 
REMARK    3  A    between atoms: C8_8  and  C9_10 
REMARK    4  A    between atoms: C15_18  and  O3_19 
ROOT
HETATM    1  C3  UNL     1      22.019   2.230  52.331  1.00  0.00     0.012 C 
HETATM    2  C4  UNL     1      23.038   1.380  51.770  1.00  0.00    -0.010 C 
HETATM    3  C5  UNL     1      24.007   2.167  51.394  1.00  0.00    -0.034 C 
HETATM    4  C6  UNL     1      24.491   2.842  52.425  1.00  0.00    -0.011 C 
HETATM    5  C7  UNL     1      24.295   1.757  53.396  1.00  0.00     0.075 C 
HETATM    6  C8  UNL     1      25.224   0.610  53.240  1.00  0.00     0.111 C 
HETATM    7  C13 UNL     1      24.628  -0.564  53.991  1.00  0.00     0.019 C 
HETATM    8  C14 UNL     1      23.366  -0.901  54.328  1.00  0.00     0.035 C 
HETATM    9  C15 UNL     1      21.922  -0.559  54.290  1.00  0.00     0.061 C 
HETATM   10  C16 UNL     1      21.177   0.457  53.785  1.00  0.00     0.010 C 
HETATM   11  C17 UNL     1      20.845   1.709  53.096  1.00  0.00     0.038 C 
ENDROOT
BRANCH   6  12
HETATM   12  O1  UNL     1      25.377   0.081  51.952  1.00  0.00    -0.380 OA
HETATM   13  H11 UNL     1      24.600   0.360  51.435  1.00  0.00     0.211 HD
ENDBRANCH   6  12
BRANCH   6  14
HETATM   14  C9  UNL     1      26.595   0.768  53.709  1.00  0.00     0.045 A 
HETATM   15  C10 UNL     1      27.096   0.230  54.810  1.00  0.00     0.009 A 
HETATM   16  C11 UNL     1      28.536   0.614  54.957  1.00  0.00     0.151 A 
HETATM   17  N1  UNL     1      28.743   1.463  53.799  1.00  0.00    -0.354 N 
HETATM   18  C12 UNL     1      27.566   1.556  53.018  1.00  0.00     0.251 A 
HETATM   19  H15 UNL     1      29.678   1.869  53.701  1.00  0.00     0.163 HD
HETATM   20  O2  UNL     1      27.607   2.238  51.987  1.00  0.00    -0.268 OA
ENDBRANCH   6  14
BRANCH   9  21
HETATM   21  O3  UNL     1      21.168  -1.570  54.957  1.00  0.00    -0.361 OA
HETATM   22  H18 UNL     1      20.202  -1.596  54.633  1.00  0.00     0.217 HD
ENDBRANCH   9  21
BRANCH   1  23
HETATM   23  C2  UNL     1      21.911   3.668  51.865  1.00  0.00     0.004 C 
HETATM   24  C1  UNL     1      20.550   4.136  51.425  1.00  0.00     0.006 C 
ENDBRANCH   1  23
TORSDOF 4
ENDMDL
MODEL 3
REMARK VINA RESULT:      -7.7      4.195      7.435
REMARK  4 active torsions:
REMARK  status: ('A' for Active; 'I' for Inactive)
REMARK    1  A    between atoms: C2_2  and  C3_3 
REMARK    2  A    between atoms: C8_8  and  O1_9 
REMARK    3  A    between atoms: C8_8  and  C9_10 
REMARK    4  A    between atoms: C15_18  and  O3_19 
ROOT
HETATM    1  C3  UNL     1      24.223   1.119  52.581  1.00  0.00     0.012 C 
HETATM    2  C4  UNL     1      23.102   1.867  53.088  1.00  0.00    -0.010 C 
HETATM    3  C5  UNL     1      22.655   2.580  52.090  1.00  0.00    -0.034 C 
HETATM    4  C6  UNL     1      22.271   1.801  51.092  1.00  0.00    -0.011 C 
HETATM    5  C7  UNL     1      21.777   0.717  51.952  1.00  0.00     0.075 C 
HETATM    6  C8  UNL     1      20.521   1.026  52.680  1.00  0.00     0.111 C 
HETATM    7  C13 UNL     1      20.394   0.028  53.813  1.00  0.00     0.019 C 
HETATM    8  C14 UNL     1      21.294  -0.690  54.518  1.00  0.00     0.035 C 
HETATM    9  C15 UNL     1      22.718  -1.039  54.749  1.00  0.00     0.061 C 
HETATM   10  C16 UNL     1      23.907  -0.678  54.205  1.00  0.00     0.010 C 
HETATM   11  C17 UNL     1      24.872   0.001  53.333  1.00  0.00     0.038 C 
ENDROOT
BRANCH   6  12
HETATM   12  O1  UNL     1      20.461   2.248  53.363  1.00  0.00    -0.380 OA
HETATM   13  H11 UNL     1      20.404   2.949  52.689  1.00  0.00     0.211 HD
ENDBRANCH   6  12
BRANCH   6  14
HETATM   14  C9  UNL     1      19.269   0.990  51.935  1.00  0.00     0.045 A 
HETATM   15  C10 UNL     1      18.697  -0.099  51.447  1.00  0.00     0.009 A 
HETATM   16  C11 UNL     1      17.424   0.262  50.747  1.00  0.00     0.151 A 
HETATM   17  N1  UNL     1      17.396   1.705  50.892  1.00  0.00    -0.354 N 
HETATM   18  C12 UNL     1      18.514   2.164  51.629  1.00  0.00     0.251 A 
HETATM   19  H15 UNL     1      16.602   2.185  50.459  1.00  0.00     0.163 HD
HETATM   20  O2  UNL     1      18.607   3.379  51.843  1.00  0.00    -0.268 OA
ENDBRANCH   6  14
BRANCH   9  21
HETATM   21  O3  UNL     1      22.817  -1.987  55.811  1.00  0.00    -0.361 OA
HETATM   22  H18 UNL     1      22.724  -1.543  56.723  1.00  0.00     0.217 HD
ENDBRANCH   9  21
BRANCH   1  23
HETATM   23  C2  UNL     1      25.016   1.666  51.410  1.00  0.00     0.004 C 
HETATM   24  C1  UNL     1      26.513   1.559  51.498  1.00  0.00     0.006 C 
ENDBRANCH   1  23
TORSDOF 4
ENDMDL
MODEL 4
REMARK VINA RESULT:      -7.7      3.528      4.946
REMARK  4 active torsions:
REMARK  status: ('A' for Active; 'I' for Inactive)
REMARK    1  A    between atoms: C2_2  and  C3_3 
REMARK    2  A    between atoms: C8_8  and  O1_9 
REMARK    3  A    between atoms: C8_8  and  C9_10 
REMARK    4  A    between atoms: C15_18  and  O3_19 
ROOT
HETATM    1  C3  UNL     1      22.745   0.808  52.362  1.00  0.00     0.012 C 
HETATM    2  C4  UNL     1      22.828   2.246  52.383  1.00  0.00    -0.010 C 
HETATM    3  C5  UNL     1      23.978   2.540  52.924  1.00  0.00    -0.034 C 
HETATM    4  C6  UNL     1      24.975   2.035  52.214  1.00  0.00    -0.011 C 
HETATM    5  C7  UNL     1      24.314   2.217  50.914  1.00  0.00     0.075 C 
HETATM    6  C8  UNL     1      24.217   3.627  50.459  1.00  0.00     0.111 C 
HETATM    7  C13 UNL     1      23.163   3.682  49.372  1.00  0.00     0.019 C 
HETATM    8  C14 UNL     1      22.084   2.922  49.090  1.00  0.00     0.035 C 
HETATM    9  C15 UNL     1      21.242   1.755  49.452  1.00  0.00     0.061 C 
HETATM   10  C16 UNL     1      21.259   0.808  50.423  1.00  0.00     0.010 C 
HETATM   11  C17 UNL     1      21.696   0.058  51.606  1.00  0.00     0.038 C 
ENDROOT
BRANCH   6  12
HETATM   12  O1  UNL     1      23.732   4.564  51.381  1.00  0.00    -0.380 OA
HETATM   13  H11 UNL     1      23.293   4.064  52.092  1.00  0.00     0.211 HD
ENDBRANCH   6  12
BRANCH   6  14
HETATM   14  C9  UNL     1      25.416   4.260  49.927  1.00  0.00     0.045 A 
HETATM   15  C10 UNL     1      26.444   3.626  49.385  1.00  0.00     0.009 A 
HETATM   16  C11 UNL     1      27.484   4.612  48.953  1.00  0.00     0.151 A 
HETATM   17  N1  UNL     1      26.895   5.873  49.362  1.00  0.00    -0.354 N 
HETATM   18  C12 UNL     1      25.623   5.674  49.949  1.00  0.00     0.251 A 
HETATM   19  H15 UNL     1      27.456   6.710  49.181  1.00  0.00     0.163 HD
HETATM   20  O2  UNL     1      24.998   6.672  50.330  1.00  0.00    -0.268 OA
ENDBRANCH   6  14
BRANCH   9  21
HETATM   21  O3  UNL     1      20.161   1.635  48.528  1.00  0.00    -0.361 OA
HETATM   22  H18 UNL     1      20.475   1.741  47.564  1.00  0.00     0.217 HD
ENDBRANCH   9  21
BRANCH   1  23
HETATM   23  C2  UNL     1      23.512   0.003  53.392  1.00  0.00     0.004 C 
HETATM   24  C1  UNL     1      22.695  -0.808  54.360  1.00  0.00     0.006 C 
ENDBRANCH   1  23
TORSDOF 4
ENDMDL
MODEL 5
REMARK VINA RESULT:      -7.6      2.170      3.191
REMARK  4 active torsions:
REMARK  status: ('A' for Active; 'I' for Inactive)
REMARK    1  A    between atoms: C2_2  and  C3_3 
REMARK    2  A    between atoms: C8_8  and  O1_9 
REMARK    3  A    between atoms: C8_8  and  C9_10 
REMARK    4  A    between atoms: C15_18  and  O3_19 
ROOT
HETATM    1  C3  UNL     1      20.274  -0.093  52.739  1.00  0.00     0.012 C 
HETATM    2  C4  UNL     1      21.256   0.716  53.415  1.00  0.00    -0.010 C 
HETATM    3  C5  UNL     1      21.764  -0.032  54.355  1.00  0.00    -0.034 C 
HETATM    4  C6  UNL     1      22.335  -1.109  53.842  1.00  0.00    -0.011 C 
HETATM    5  C7  UNL     1      22.805  -0.440  52.621  1.00  0.00     0.075 C 
HETATM    6  C8  UNL     1      23.929   0.507  52.827  1.00  0.00     0.111 C 
HETATM    7  C13 UNL     1      23.995   1.407  51.609  1.00  0.00     0.019 C 
HETATM    8  C14 UNL     1      23.077   1.806  50.704  1.00  0.00     0.035 C 
HETATM    9  C15 UNL     1      21.669   1.754  50.236  1.00  0.00     0.061 C 
HETATM   10  C16 UNL     1      20.532   1.137  50.645  1.00  0.00     0.010 C 
HETATM   11  C17 UNL     1      19.632   0.303  51.449  1.00  0.00     0.038 C 
ENDROOT
BRANCH   6  12
HETATM   12  O1  UNL     1      23.799   1.438  53.866  1.00  0.00    -0.380 OA
HETATM   13  H11 UNL     1      23.169   2.117  53.564  1.00  0.00     0.211 HD
ENDBRANCH   6  12
BRANCH   6  14
HETATM   14  C9  UNL     1      25.263  -0.043  53.026  1.00  0.00     0.045 A 
HETATM   15  C10 UNL     1      26.214  -0.103  52.108  1.00  0.00     0.009 A 
HETATM   16  C11 UNL     1      27.444  -0.732  52.685  1.00  0.00     0.151 A 
HETATM   17  N1  UNL     1      27.023  -1.036  54.039  1.00  0.00    -0.354 N 
HETATM   18  C12 UNL     1      25.693  -0.608  54.266  1.00  0.00     0.251 A 
HETATM   19  H15 UNL     1      27.715  -1.502  54.631  1.00  0.00     0.163 HD
HETATM   20  O2  UNL     1      25.209  -0.791  55.391  1.00  0.00    -0.268 OA
ENDBRANCH   6  14
BRANCH   9  21
HETATM   21  O3  UNL     1      21.517   2.563  49.070  1.00  0.00    -0.361 OA
HETATM   22  H18 UNL     1      21.016   3.426  49.273  1.00  0.00     0.217 HD
ENDBRANCH   9  21
BRANCH   1  23
HETATM   23  C2  UNL     1      19.592  -1.219  53.491  1.00  0.00     0.004 C 
HETATM   24  C1  UNL     1      18.122  -1.408  53.238  1.00  0.00     0.006 C 
ENDBRANCH   1  23
TORSDOF 4
ENDMDL
MODEL 6
REMARK VINA RESULT:      -7.4      3.023      6.164
REMARK  4 active torsions:
REMARK  status: ('A' for Active; 'I' for Inactive)
REMARK    1  A    between atoms: C2_2  and  C3_3 
REMARK    2  A    between atoms: C8_8  and  O1_9 
REMARK    3  A    between atoms: C8_8  and  C9_10 
REMARK    4  A    between atoms: C15_18  and  O3_19 
ROOT
HETATM    1  C3  UNL     1      26.109   0.638  53.982  1.00  0.00     0.012 C 
HETATM    2  C4  UNL     1      25.150   1.699  53.804  1.00  0.00    -0.010 C 
HETATM    3  C5  UNL     1      25.601   2.442  52.832  1.00  0.00    -0.034 C 
HETATM    4  C6  UNL     1      25.716   1.738  51.717  1.00  0.00    -0.011 C 
HETATM    5  C7  UNL     1      24.544   0.891  51.975  1.00  0.00     0.075 C 
HETATM    6  C8  UNL     1      23.237   1.582  51.840  1.00  0.00     0.111 C 
HETATM    7  C13 UNL     1      22.198   0.732  52.544  1.00  0.00     0.019 C 
HETATM    8  C14 UNL     1      22.264  -0.161  53.553  1.00  0.00     0.035 C 
HETATM    9  C15 UNL     1      23.106  -0.874  54.545  1.00  0.00     0.061 C 
HETATM   10  C16 UNL     1      24.424  -0.893  54.867  1.00  0.00     0.010 C 
HETATM   11  C17 UNL     1      25.853  -0.565  54.832  1.00  0.00     0.038 C 
ENDROOT
BRANCH   6  12
HETATM   12  O1  UNL     1      23.094   2.813  52.492  1.00  0.00    -0.380 OA
HETATM   13  H11 UNL     1      22.264   3.210  52.172  1.00  0.00     0.211 HD
ENDBRANCH   6  12
BRANCH   6  14
HETATM   14  C9  UNL     1      22.736   1.847  50.497  1.00  0.00     0.045 A 
HETATM   15  C10 UNL     1      21.917   1.063  49.814  1.00  0.00     0.009 A 
HETATM   16  C11 UNL     1      21.625   1.668  48.477  1.00  0.00     0.151 A 
HETATM   17  N1  UNL     1      22.425   2.879  48.510  1.00  0.00    -0.354 N 
HETATM   18  C12 UNL     1      23.101   3.007  49.747  1.00  0.00     0.251 A 
HETATM   19  H15 UNL     1      22.397   3.459  47.668  1.00  0.00     0.163 HD
HETATM   20  O2  UNL     1      23.810   4.007  49.919  1.00  0.00    -0.268 OA
ENDBRANCH   6  14
BRANCH   9  21
HETATM   21  O3  UNL     1      22.293  -1.744  55.333  1.00  0.00    -0.361 OA
HETATM   22  H18 UNL     1      22.809  -2.131  56.121  1.00  0.00     0.217 HD
ENDBRANCH   9  21
BRANCH   1  23
HETATM   23  C2  UNL     1      27.555   0.869  53.592  1.00  0.00     0.004 C 
HETATM   24  C1  UNL     1      28.602   0.275  54.494  1.00  0.00     0.006 C 
ENDBRANCH   1  23
TORSDOF 4
ENDMDL
MODEL 7
REMARK VINA RESULT:      -7.4      3.061      5.359
REMARK  4 active torsions:
REMARK  status: ('A' for Active; 'I' for Inactive)
REMARK    1  A    between atoms: C2_2  and  C3_3 
REMARK    2  A    between atoms: C8_8  and  O1_9 
REMARK    3  A    between atoms: C8_8  and  C9_10 
REMARK    4  A    between atoms: C15_18  and  O3_19 
ROOT
HETATM    1  C3  UNL     1      21.010  -0.461  53.326  1.00  0.00     0.012 C 
HETATM    2  C4  UNL     1      21.805  -0.158  52.164  1.00  0.00    -0.010 C 
HETATM    3  C5  UNL     1      21.154   0.759  51.503  1.00  0.00    -0.034 C 
HETATM    4  C6  UNL     1      20.992   1.845  52.242  1.00  0.00    -0.011 C 
HETATM    5  C7  UNL     1      22.280   1.724  52.938  1.00  0.00     0.075 C 
HETATM    6  C8  UNL     1      23.468   2.025  52.101  1.00  0.00     0.111 C 
HETATM    7  C13 UNL     1      24.679   1.445  52.804  1.00  0.00     0.019 C 
HETATM    8  C14 UNL     1      24.844   0.427  53.674  1.00  0.00     0.035 C 
HETATM    9  C15 UNL     1      24.219  -0.668  54.458  1.00  0.00     0.061 C 
HETATM   10  C16 UNL     1      22.961  -1.148  54.625  1.00  0.00     0.010 C 
HETATM   11  C17 UNL     1      21.509  -1.285  54.469  1.00  0.00     0.038 C 
ENDROOT
BRANCH   6  12
HETATM   12  O1  UNL     1      23.540   1.406  50.846  1.00  0.00    -0.380 OA
HETATM   13  H11 UNL     1      22.902   1.862  50.267  1.00  0.00     0.211 HD
ENDBRANCH   6  12
BRANCH   6  14
HETATM   14  C9  UNL     1      23.768   3.421  51.811  1.00  0.00     0.045 A 
HETATM   15  C10 UNL     1      23.227   4.465  52.418  1.00  0.00     0.009 A 
HETATM   16  C11 UNL     1      23.784   5.733  51.851  1.00  0.00     0.151 A 
HETATM   17  N1  UNL     1      24.685   5.238  50.827  1.00  0.00    -0.354 N 
HETATM   18  C12 UNL     1      24.694   3.822  50.800  1.00  0.00     0.251 A 
HETATM   19  H15 UNL     1      25.176   5.949  50.278  1.00  0.00     0.163 HD
HETATM   20  O2  UNL     1      25.435   3.264  49.981  1.00  0.00    -0.268 OA
ENDBRANCH   6  14
BRANCH   9  21
HETATM   21  O3  UNL     1      25.220  -1.358  55.206  1.00  0.00    -0.361 OA
HETATM   22  H18 UNL     1      25.318  -0.977  56.146  1.00  0.00     0.217 HD
ENDBRANCH   9  21
BRANCH   1  23
HETATM   23  C2  UNL     1      19.510  -0.249  53.278  1.00  0.00     0.004 C 
HETATM   24  C1  UNL     1      18.650  -1.479  53.371  1.00  0.00     0.006 C 
ENDBRANCH   1  23
TORSDOF 4
ENDMDL
MODEL 8
REMARK VINA RESULT:      -7.3      3.368      6.486
REMARK  4 active torsions:
REMARK  status: ('A' for Active; 'I' for Inactive)
REMARK    1  A    between atoms: C2_2  and  C3_3 
REMARK    2  A    between atoms: C8_8  and  O1_9 
REMARK    3  A    between atoms: C8_8  and  C9_10 
REMARK    4  A    between atoms: C15_18  and  O3_19 
ROOT
HETATM    1  C3  UNL     1      25.467   2.674  50.854  1.00  0.00     0.012 C 
HETATM    2  C4  UNL     1      24.485   3.040  51.842  1.00  0.00    -0.010 C 
HETATM    3  C5  UNL     1      23.544   3.681  51.204  1.00  0.00    -0.034 C 
HETATM    4  C6  UNL     1      22.995   2.910  50.278  1.00  0.00    -0.011 C 
HETATM    5  C7  UNL     1      23.124   1.666  51.048  1.00  0.00     0.075 C 
HETATM    6  C8  UNL     1      22.204   1.557  52.209  1.00  0.00     0.111 C 
HETATM    7  C13 UNL     1      22.747   0.473  53.119  1.00  0.00     0.019 C 
HETATM    8  C14 UNL     1      23.983  -0.025  53.329  1.00  0.00     0.035 C 
HETATM    9  C15 UNL     1      25.427   0.015  52.988  1.00  0.00     0.061 C 
HETATM   10  C16 UNL     1      26.206   0.733  52.140  1.00  0.00     0.010 C 
HETATM   11  C17 UNL     1      26.586   1.721  51.124  1.00  0.00     0.038 C 
ENDROOT
BRANCH   6  12
HETATM   12  O1  UNL     1      22.135   2.655  53.076  1.00  0.00    -0.380 OA
HETATM   13  H11 UNL     1      23.041   2.999  53.173  1.00  0.00     0.211 HD
ENDBRANCH   6  12
BRANCH   6  14
HETATM   14  C9  UNL     1      20.806   1.238  51.948  1.00  0.00     0.045 A 
HETATM   15  C10 UNL     1      20.341   0.049  51.601  1.00  0.00     0.009 A 
HETATM   16  C11 UNL     1      18.857   0.111  51.423  1.00  0.00     0.151 A 
HETATM   17  N1  UNL     1      18.577   1.509  51.692  1.00  0.00    -0.354 N 
HETATM   18  C12 UNL     1      19.761   2.209  52.028  1.00  0.00     0.251 A 
HETATM   19  H15 UNL     1      17.599   1.796  51.607  1.00  0.00     0.163 HD
HETATM   20  O2  UNL     1      19.666   3.413  52.299  1.00  0.00    -0.268 OA
ENDBRANCH   6  14
BRANCH   9  21
HETATM   21  O3  UNL     1      26.133  -0.953  53.763  1.00  0.00    -0.361 OA
HETATM   22  H18 UNL     1      25.986  -0.816  54.762  1.00  0.00     0.217 HD
ENDBRANCH   9  21
BRANCH   1  23
HETATM   23  C2  UNL     1      25.609   3.512  49.599  1.00  0.00     0.004 C 
HETATM   24  C1  UNL     1      26.985   4.033  49.286  1.00  0.00     0.006 C 
ENDBRANCH   1  23
TORSDOF 4
ENDMDL
MODEL 9
REMARK VINA RESULT:      -7.1      3.113      5.210
REMARK  4 active torsions:
REMARK  status: ('A' for Active; 'I' for Inactive)
REMARK    1  A    between atoms: C2_2  and  C3_3 
REMARK    2  A    between atoms: C8_8  and  O1_9 
REMARK    3  A    between atoms: C8_8  and  C9_10 
REMARK    4  A    between atoms: C15_18  and  O3_19 
ROOT
HETATM    1  C3  UNL     1      23.577   3.186  49.408  1.00  0.00     0.012 C 
HETATM    2  C4  UNL     1      23.001   3.409  50.710  1.00  0.00    -0.010 C 
HETATM    3  C5  UNL     1      21.784   2.943  50.657  1.00  0.00    -0.034 C 
HETATM    4  C6  UNL     1      21.787   1.650  50.375  1.00  0.00    -0.011 C 
HETATM    5  C7  UNL     1      23.025   1.358  51.109  1.00  0.00     0.075 C 
HETATM    6  C8  UNL     1      22.896   1.409  52.587  1.00  0.00     0.111 C 
HETATM    7  C13 UNL     1      24.294   1.524  53.163  1.00  0.00     0.019 C 
HETATM    8  C14 UNL     1      25.455   2.012  52.679  1.00  0.00     0.035 C 
HETATM    9  C15 UNL     1      26.175   2.653  51.551  1.00  0.00     0.061 C 
HETATM   10  C16 UNL     1      25.847   3.076  50.304  1.00  0.00     0.010 C 
HETATM   11  C17 UNL     1      25.033   3.355  49.116  1.00  0.00     0.038 C 
ENDROOT
BRANCH   6  12
HETATM   12  O1  UNL     1      22.265   2.533  53.136  1.00  0.00    -0.380 OA
HETATM   13  H11 UNL     1      21.375   2.581  52.742  1.00  0.00     0.211 HD
ENDBRANCH   6  12
BRANCH   6  14
HETATM   14  C9  UNL     1      22.246   0.291  53.259  1.00  0.00     0.045 A 
HETATM   15  C10 UNL     1      22.862  -0.772  53.752  1.00  0.00     0.009 A 
HETATM   16  C11 UNL     1      21.864  -1.702  54.367  1.00  0.00     0.151 A 
HETATM   17  N1  UNL     1      20.612  -1.015  54.114  1.00  0.00    -0.354 N 
HETATM   18  C12 UNL     1      20.832   0.214  53.447  1.00  0.00     0.251 A 
HETATM   19  H15 UNL     1      19.765  -1.490  54.439  1.00  0.00     0.163 HD
HETATM   20  O2  UNL     1      19.847   0.915  53.183  1.00  0.00    -0.268 OA
ENDBRANCH   6  14
BRANCH   9  21
HETATM   21  O3  UNL     1      27.542   2.857  51.904  1.00  0.00    -0.361 OA
HETATM   22  H18 UNL     1      27.958   3.623  51.376  1.00  0.00     0.217 HD
ENDBRANCH   9  21
BRANCH   1  23
HETATM   23  C2  UNL     1      22.670   3.110  48.196  1.00  0.00     0.004 C 
HETATM   24  C1  UNL     1      22.390   4.402  47.479  1.00  0.00     0.006 C 
ENDBRANCH   1  23
TORSDOF 4
ENDMDL
