MODEL 1
REMARK VINA RESULT:      -8.4      0.000      0.000
REMARK  0 active torsions:
REMARK  status: ('A' for Active; 'I' for Inactive)
ROOT
HETATM    1  C1  UNL     1      26.006   1.729  52.849  1.00  0.00     0.042 A 
HETATM    2  C2  UNL     1      25.382   2.343  51.876  1.00  0.00    -0.018 A 
HETATM    3  C3  UNL     1      24.569   1.221  52.596  1.00  0.00     0.017 A 
HETATM    4  C4  UNL     1      23.397   0.495  52.710  1.00  0.00    -0.005 C 
HETATM    5  C5  UNL     1      22.079   0.526  51.973  1.00  0.00    -0.026 C 
HETATM    6  C6  UNL     1      21.056   0.659  51.296  1.00  0.00     0.024 C 
HETATM    7  C7  UNL     1      21.036   1.758  50.185  1.00  0.00     0.140 C 
HETATM    8  C8  UNL     1      19.827   1.421  49.361  1.00  0.00     0.228 C 
HETATM    9  O1  UNL     1      19.749   2.441  48.415  1.00  0.00    -0.355 OA
HETATM   10  C9  UNL     1      20.208   3.671  48.815  1.00  0.00     0.279 C 
HETATM   11  C10 UNL     1      19.612   3.679  50.277  1.00  0.00     0.181 C 
HETATM   12  N1  UNL     1      20.612   2.875  50.950  1.00  0.00    -0.367 N 
HETATM   13  C11 UNL     1      21.425   3.673  51.697  1.00  0.00     0.134 C 
HETATM   14  C12 UNL     1      21.398   5.171  51.536  1.00  0.00     0.003 C 
HETATM   15  C13 UNL     1      21.751   5.742  50.415  1.00  0.00    -0.002 C 
HETATM   16  C14 UNL     1      22.122   6.449  49.217  1.00  0.00    -0.001 C 
HETATM   17  C15 UNL     1      22.531   5.650  48.160  1.00  0.00     0.015 C 
HETATM   18  C16 UNL     1      22.528   4.252  48.409  1.00  0.00     0.101 C 
HETATM   19  C17 UNL     1      23.796   3.769  49.071  1.00  0.00     0.012 C 
HETATM   20  C18 UNL     1      25.093   3.460  49.299  1.00  0.00    -0.021 C 
HETATM   21  C19 UNL     1      25.587   2.827  50.627  1.00  0.00     0.033 A 
HETATM   22  C20 UNL     1      24.358   3.005  50.887  1.00  0.00     0.013 A 
HETATM   23  P1  UNL     1      23.111   3.226  52.207  1.00  0.00    -0.082 P 
HETATM   24  C21 UNL     1      23.769   4.739  53.172  1.00  0.00     0.047 C 
HETATM   25  C22 UNL     1      22.231   3.198  47.377  1.00  0.00     0.066 C 
HETATM   26  C23 UNL     1      22.451   1.873  48.091  1.00  0.00     0.120 C 
HETATM   27  N2  UNL     1      22.142   1.716  49.438  1.00  0.00    -0.392 N 
HETATM   28  O2  UNL     1      21.411   4.019  49.102  1.00  0.00    -0.341 OA
HETATM   29  H27 UNL     1      22.771   0.905  49.772  1.00  0.00     0.156 HD
ENDROOT
TORSDOF 0
ENDMDL
MODEL 2
REMARK VINA RESULT:      -8.1      7.549      9.739
REMARK  0 active torsions:
REMARK  status: ('A' for Active; 'I' for Inactive)
ROOT
HETATM    1  C1  UNL     1      25.414   6.232  49.725  1.00  0.00     0.042 A 
HETATM    2  C2  UNL     1      26.203   7.253  49.509  1.00  0.00    -0.018 A 
HETATM    3  C3  UNL     1      26.786   5.859  49.117  1.00  0.00     0.017 A 
HETATM    4  C4  UNL     1      27.832   5.114  48.604  1.00  0.00    -0.005 C 
HETATM    5  C5  UNL     1      29.199   5.471  48.070  1.00  0.00    -0.026 C 
HETATM    6  C6  UNL     1      30.280   5.899  47.657  1.00  0.00     0.024 C 
HETATM    7  C7  UNL     1      30.535   7.440  47.693  1.00  0.00     0.140 C 
HETATM    8  C8  UNL     1      32.012   7.572  47.462  1.00  0.00     0.228 C 
HETATM    9  O1  UNL     1      32.241   8.946  47.409  1.00  0.00    -0.355 OA
HETATM   10  C9  UNL     1      31.215   9.708  46.910  1.00  0.00     0.279 C 
HETATM   11  C10 UNL     1      30.782   8.768  45.717  1.00  0.00     0.181 C 
HETATM   12  N1  UNL     1      29.971   7.813  46.446  1.00  0.00    -0.367 N 
HETATM   13  C11 UNL     1      28.650   8.056  46.219  1.00  0.00     0.134 C 
HETATM   14  C12 UNL     1      28.202   9.330  45.550  1.00  0.00     0.003 C 
HETATM   15  C13 UNL     1      28.392  10.496  46.108  1.00  0.00    -0.002 C 
HETATM   16  C14 UNL     1      28.564  11.818  46.653  1.00  0.00    -0.001 C 
HETATM   17  C15 UNL     1      29.190  11.872  47.889  1.00  0.00     0.015 C 
HETATM   18  C16 UNL     1      29.570  10.621  48.442  1.00  0.00     0.101 C 
HETATM   19  C17 UNL     1      28.453   9.948  49.203  1.00  0.00     0.012 C 
HETATM   20  C18 UNL     1      27.504   9.682  50.129  1.00  0.00    -0.021 C 
HETATM   21  C19 UNL     1      26.607   8.416  50.076  1.00  0.00     0.033 A 
HETATM   22  C20 UNL     1      27.270   8.288  49.002  1.00  0.00     0.013 A 
HETATM   23  P1  UNL     1      27.308   7.543  47.332  1.00  0.00    -0.082 P 
HETATM   24  C21 UNL     1      25.703   8.202  46.530  1.00  0.00     0.047 C 
HETATM   25  C22 UNL     1      30.784  10.396  49.303  1.00  0.00     0.066 C 
HETATM   26  C23 UNL     1      30.704   8.938  49.726  1.00  0.00     0.120 C 
HETATM   27  N2  UNL     1      30.194   7.963  48.875  1.00  0.00    -0.392 N 
HETATM   28  O2  UNL     1      30.052   9.914  47.417  1.00  0.00    -0.341 OA
HETATM   29  H27 UNL     1      29.851   7.178  49.530  1.00  0.00     0.156 HD
ENDROOT
TORSDOF 0
ENDMDL
MODEL 3
REMARK VINA RESULT:      -8.0      2.348      4.607
REMARK  0 active torsions:
REMARK  status: ('A' for Active; 'I' for Inactive)
ROOT
HETATM    1  C1  UNL     1      24.797   1.278  52.459  1.00  0.00     0.042 A 
HETATM    2  C2  UNL     1      24.175   2.395  52.179  1.00  0.00    -0.018 A 
HETATM    3  C3  UNL     1      25.516   2.162  51.413  1.00  0.00     0.017 A 
HETATM    4  C4  UNL     1      26.450   2.610  50.497  1.00  0.00    -0.005 C 
HETATM    5  C5  UNL     1      26.554   3.848  49.638  1.00  0.00    -0.026 C 
HETATM    6  C6  UNL     1      26.513   4.897  48.991  1.00  0.00     0.024 C 
HETATM    7  C7  UNL     1      25.290   5.849  49.191  1.00  0.00     0.140 C 
HETATM    8  C8  UNL     1      25.719   7.136  48.547  1.00  0.00     0.228 C 
HETATM    9  O1  UNL     1      24.605   7.968  48.645  1.00  0.00    -0.355 OA
HETATM   10  C9  UNL     1      23.383   7.346  48.606  1.00  0.00     0.279 C 
HETATM   11  C10 UNL     1      23.690   6.296  47.468  1.00  0.00     0.181 C 
HETATM   12  N1  UNL     1      24.387   5.293  48.248  1.00  0.00    -0.367 N 
HETATM   13  C11 UNL     1      23.570   4.227  48.472  1.00  0.00     0.134 C 
HETATM   14  C12 UNL     1      22.094   4.308  48.179  1.00  0.00     0.003 C 
HETATM   15  C13 UNL     1      21.315   5.131  48.830  1.00  0.00    -0.002 C 
HETATM   16  C14 UNL     1      20.390   6.009  49.499  1.00  0.00    -0.001 C 
HETATM   17  C15 UNL     1      20.944   6.816  50.480  1.00  0.00     0.015 C 
HETATM   18  C16 UNL     1      22.339   6.664  50.688  1.00  0.00     0.101 C 
HETATM   19  C17 UNL     1      22.675   5.537  51.635  1.00  0.00     0.012 C 
HETATM   20  C18 UNL     1      22.774   4.779  52.751  1.00  0.00    -0.021 C 
HETATM   21  C19 UNL     1      23.489   3.402  52.772  1.00  0.00     0.033 A 
HETATM   22  C20 UNL     1      23.574   3.699  51.542  1.00  0.00     0.013 A 
HETATM   23  P1  UNL     1      23.773   3.051  49.843  1.00  0.00    -0.082 P 
HETATM   24  C21 UNL     1      22.318   1.822  49.679  1.00  0.00     0.047 C 
HETATM   25  C22 UNL     1      23.273   7.772  51.095  1.00  0.00     0.066 C 
HETATM   26  C23 UNL     1      24.624   7.101  51.287  1.00  0.00     0.120 C 
HETATM   27  N2  UNL     1      25.024   6.036  50.487  1.00  0.00    -0.392 N 
HETATM   28  O2  UNL     1      22.867   6.544  49.467  1.00  0.00    -0.341 OA
HETATM   29  H27 UNL     1      25.747   5.500  51.083  1.00  0.00     0.156 HD
ENDROOT
TORSDOF 0
ENDMDL
MODEL 4
REMARK VINA RESULT:      -7.9      8.148      9.871
REMARK  0 active torsions:
REMARK  status: ('A' for Active; 'I' for Inactive)
ROOT
HETATM    1  C1  UNL     1      31.816   4.750  47.524  1.00  0.00     0.042 A 
HETATM    2  C2  UNL     1      31.596   5.979  47.131  1.00  0.00    -0.018 A 
HETATM    3  C3  UNL     1      30.381   5.256  47.793  1.00  0.00     0.017 A 
HETATM    4  C4  UNL     1      29.060   5.292  48.201  1.00  0.00    -0.005 C 
HETATM    5  C5  UNL     1      27.985   6.353  48.153  1.00  0.00    -0.026 C 
HETATM    6  C6  UNL     1      27.206   7.303  48.055  1.00  0.00     0.024 C 
HETATM    7  C7  UNL     1      27.725   8.631  47.414  1.00  0.00     0.140 C 
HETATM    8  C8  UNL     1      26.476   9.418  47.142  1.00  0.00     0.228 C 
HETATM    9  O1  UNL     1      26.930  10.640  46.646  1.00  0.00    -0.355 OA
HETATM   10  C9  UNL     1      28.139  11.074  47.127  1.00  0.00     0.279 C 
HETATM   11  C10 UNL     1      27.946  10.673  48.643  1.00  0.00     0.181 C 
HETATM   12  N1  UNL     1      28.270   9.263  48.562  1.00  0.00    -0.367 N 
HETATM   13  C11 UNL     1      29.515   9.042  49.068  1.00  0.00     0.134 C 
HETATM   14  C12 UNL     1      30.448  10.189  49.354  1.00  0.00     0.003 C 
HETATM   15  C13 UNL     1      30.898  10.957  48.397  1.00  0.00    -0.002 C 
HETATM   16  C14 UNL     1      31.436  11.850  47.403  1.00  0.00    -0.001 C 
HETATM   17  C15 UNL     1      31.040  11.592  46.099  1.00  0.00     0.015 C 
HETATM   18  C16 UNL     1      30.166  10.487  45.928  1.00  0.00     0.101 C 
HETATM   19  C17 UNL     1      30.894   9.170  45.811  1.00  0.00     0.012 C 
HETATM   20  C18 UNL     1      31.688   8.173  45.356  1.00  0.00    -0.021 C 
HETATM   21  C19 UNL     1      31.858   6.825  46.105  1.00  0.00     0.033 A 
HETATM   22  C20 UNL     1      31.110   7.456  46.912  1.00  0.00     0.013 A 
HETATM   23  P1  UNL     1      30.552   7.609  48.647  1.00  0.00    -0.082 P 
HETATM   24  C21 UNL     1      32.187   7.866  49.604  1.00  0.00     0.047 C 
HETATM   25  C22 UNL     1      29.086  10.400  44.883  1.00  0.00     0.066 C 
HETATM   26  C23 UNL     1      28.500   9.005  45.034  1.00  0.00     0.120 C 
HETATM   27  N2  UNL     1      28.392   8.396  46.280  1.00  0.00    -0.392 N 
HETATM   28  O2  UNL     1      29.303  10.559  46.945  1.00  0.00    -0.341 OA
HETATM   29  H27 UNL     1      28.381   7.338  46.069  1.00  0.00     0.156 HD
ENDROOT
TORSDOF 0
ENDMDL
MODEL 5
REMARK VINA RESULT:      -7.9      2.903      4.826
REMARK  0 active torsions:
REMARK  status: ('A' for Active; 'I' for Inactive)
ROOT
HETATM    1  C1  UNL     1      27.599   7.930  47.001  1.00  0.00     0.042 A 
HETATM    2  C2  UNL     1      26.339   7.701  47.273  1.00  0.00    -0.018 A 
HETATM    3  C3  UNL     1      27.351   6.656  47.840  1.00  0.00     0.017 A 
HETATM    4  C4  UNL     1      27.577   5.495  48.558  1.00  0.00    -0.005 C 
HETATM    5  C5  UNL     1      26.672   4.524  49.277  1.00  0.00    -0.026 C 
HETATM    6  C6  UNL     1      25.825   3.815  49.826  1.00  0.00     0.024 C 
HETATM    7  C7  UNL     1      24.324   4.240  49.733  1.00  0.00     0.140 C 
HETATM    8  C8  UNL     1      23.571   3.022  50.185  1.00  0.00     0.228 C 
HETATM    9  O1  UNL     1      22.233   3.414  50.186  1.00  0.00    -0.355 OA
HETATM   10  C9  UNL     1      21.992   4.735  50.469  1.00  0.00     0.279 C 
HETATM   11  C10 UNL     1      23.040   4.921  51.635  1.00  0.00     0.181 C 
HETATM   12  N1  UNL     1      24.244   5.111  50.850  1.00  0.00    -0.367 N 
HETATM   13  C11 UNL     1      24.596   6.427  50.851  1.00  0.00     0.134 C 
HETATM   14  C12 UNL     1      23.647   7.481  51.359  1.00  0.00     0.003 C 
HETATM   15  C13 UNL     1      22.507   7.715  50.764  1.00  0.00    -0.002 C 
HETATM   16  C14 UNL     1      21.234   8.033  50.171  1.00  0.00    -0.001 C 
HETATM   17  C15 UNL     1      20.903   7.291  49.048  1.00  0.00     0.015 C 
HETATM   18  C16 UNL     1      21.861   6.327  48.642  1.00  0.00     0.101 C 
HETATM   19  C17 UNL     1      22.941   6.904  47.759  1.00  0.00     0.012 C 
HETATM   20  C18 UNL     1      23.581   7.477  46.713  1.00  0.00    -0.021 C 
HETATM   21  C19 UNL     1      25.110   7.742  46.705  1.00  0.00     0.033 A 
HETATM   22  C20 UNL     1      24.951   7.280  47.876  1.00  0.00     0.013 A 
HETATM   23  P1  UNL     1      25.625   7.212  49.575  1.00  0.00    -0.082 P 
HETATM   24  C21 UNL     1      25.732   9.055  50.071  1.00  0.00     0.047 C 
HETATM   25  C22 UNL     1      21.532   5.007  47.999  1.00  0.00     0.066 C 
HETATM   26  C23 UNL     1      22.877   4.384  47.661  1.00  0.00     0.120 C 
HETATM   27  N2  UNL     1      23.986   4.565  48.482  1.00  0.00    -0.392 N 
HETATM   28  O2  UNL     1      22.302   5.770  49.773  1.00  0.00    -0.341 OA
HETATM   29  H27 UNL     1      24.835   4.424  47.832  1.00  0.00     0.156 HD
ENDROOT
TORSDOF 0
ENDMDL
MODEL 6
REMARK VINA RESULT:      -7.8      2.934      5.868
REMARK  0 active torsions:
REMARK  status: ('A' for Active; 'I' for Inactive)
ROOT
HETATM    1  C1  UNL     1      21.117   3.976  45.181  1.00  0.00     0.042 A 
HETATM    2  C2  UNL     1      21.644   3.929  46.379  1.00  0.00    -0.018 A 
HETATM    3  C3  UNL     1      21.966   5.214  45.552  1.00  0.00     0.017 A 
HETATM    4  C4  UNL     1      22.600   6.440  45.468  1.00  0.00    -0.005 C 
HETATM    5  C5  UNL     1      23.464   7.231  46.420  1.00  0.00    -0.026 C 
HETATM    6  C6  UNL     1      24.150   7.772  47.291  1.00  0.00     0.024 C 
HETATM    7  C7  UNL     1      24.344   7.031  48.654  1.00  0.00     0.140 C 
HETATM    8  C8  UNL     1      25.469   7.773  49.316  1.00  0.00     0.228 C 
HETATM    9  O1  UNL     1      25.598   7.175  50.569  1.00  0.00    -0.355 OA
HETATM   10  C9  UNL     1      24.444   6.681  51.121  1.00  0.00     0.279 C 
HETATM   11  C10 UNL     1      23.469   7.857  50.723  1.00  0.00     0.181 C 
HETATM   12  N1  UNL     1      23.194   7.488  49.349  1.00  0.00    -0.367 N 
HETATM   13  C11 UNL     1      21.948   6.946  49.254  1.00  0.00     0.134 C 
HETATM   14  C12 UNL     1      21.179   6.552  50.488  1.00  0.00     0.003 C 
HETATM   15  C13 UNL     1      21.605   5.607  51.283  1.00  0.00    -0.002 C 
HETATM   16  C14 UNL     1      22.005   4.580  52.210  1.00  0.00    -0.001 C 
HETATM   17  C15 UNL     1      23.190   3.930  51.900  1.00  0.00     0.015 C 
HETATM   18  C16 UNL     1      23.839   4.366  50.715  1.00  0.00     0.101 C 
HETATM   19  C17 UNL     1      23.314   3.689  49.472  1.00  0.00     0.012 C 
HETATM   20  C18 UNL     1      23.009   2.747  48.550  1.00  0.00    -0.021 C 
HETATM   21  C19 UNL     1      22.256   3.073  47.233  1.00  0.00     0.033 A 
HETATM   22  C20 UNL     1      22.251   4.207  47.800  1.00  0.00     0.013 A 
HETATM   23  P1  UNL     1      21.416   5.830  47.921  1.00  0.00    -0.082 P 
HETATM   24  C21 UNL     1      19.613   5.357  48.344  1.00  0.00     0.047 C 
HETATM   25  C22 UNL     1      25.330   4.393  50.514  1.00  0.00     0.066 C 
HETATM   26  C23 UNL     1      25.526   4.833  49.071  1.00  0.00     0.120 C 
HETATM   27  N2  UNL     1      24.668   5.749  48.470  1.00  0.00    -0.392 N 
HETATM   28  O2  UNL     1      23.722   5.696  50.718  1.00  0.00    -0.341 OA
HETATM   29  H27 UNL     1      24.747   5.546  47.413  1.00  0.00     0.156 HD
ENDROOT
TORSDOF 0
ENDMDL
MODEL 7
REMARK VINA RESULT:      -7.4      1.927      5.168
REMARK  0 active torsions:
REMARK  status: ('A' for Active; 'I' for Inactive)
ROOT
HETATM    1  C1  UNL     1      21.700   5.219  45.225  1.00  0.00     0.042 A 
HETATM    2  C2  UNL     1      21.783   4.364  46.212  1.00  0.00    -0.018 A 
HETATM    3  C3  UNL     1      22.071   5.852  46.585  1.00  0.00     0.017 A 
HETATM    4  C4  UNL     1      22.403   6.789  47.547  1.00  0.00    -0.005 C 
HETATM    5  C5  UNL     1      22.690   6.703  49.027  1.00  0.00    -0.026 C 
HETATM    6  C6  UNL     1      22.897   6.494  50.225  1.00  0.00     0.024 C 
HETATM    7  C7  UNL     1      22.775   5.030  50.758  1.00  0.00     0.140 C 
HETATM    8  C8  UNL     1      23.410   5.082  52.117  1.00  0.00     0.228 C 
HETATM    9  O1  UNL     1      23.235   3.801  52.638  1.00  0.00    -0.355 OA
HETATM   10  C9  UNL     1      22.103   3.137  52.237  1.00  0.00     0.279 C 
HETATM   11  C10 UNL     1      21.086   4.342  52.307  1.00  0.00     0.181 C 
HETATM   12  N1  UNL     1      21.386   4.986  51.044  1.00  0.00    -0.367 N 
HETATM   13  C11 UNL     1      20.403   4.718  50.140  1.00  0.00     0.134 C 
HETATM   14  C12 UNL     1      19.368   3.658  50.414  1.00  0.00     0.003 C 
HETATM   15  C13 UNL     1      19.698   2.399  50.532  1.00  0.00    -0.002 C 
HETATM   16  C14 UNL     1      19.977   0.994  50.678  1.00  0.00    -0.001 C 
HETATM   17  C15 UNL     1      21.310   0.638  50.544  1.00  0.00     0.015 C 
HETATM   18  C16 UNL     1      22.209   1.704  50.281  1.00  0.00     0.101 C 
HETATM   19  C17 UNL     1      22.306   2.046  48.814  1.00  0.00     0.012 C 
HETATM   20  C18 UNL     1      22.554   1.965  47.486  1.00  0.00    -0.021 C 
HETATM   21  C19 UNL     1      22.242   3.122  46.500  1.00  0.00     0.033 A 
HETATM   22  C20 UNL     1      21.789   3.600  47.584  1.00  0.00     0.013 A 
HETATM   23  P1  UNL     1      20.622   4.790  48.337  1.00  0.00    -0.082 P 
HETATM   24  C21 UNL     1      18.938   4.268  47.599  1.00  0.00     0.047 C 
HETATM   25  C22 UNL     1      23.633   1.766  50.764  1.00  0.00     0.066 C 
HETATM   26  C23 UNL     1      24.206   3.033  50.149  1.00  0.00     0.120 C 
HETATM   27  N2  UNL     1      23.422   4.168  49.968  1.00  0.00    -0.392 N 
HETATM   28  O2  UNL     1      21.803   2.708  51.063  1.00  0.00    -0.341 OA
HETATM   29  H27 UNL     1      23.900   4.707  49.164  1.00  0.00     0.156 HD
ENDROOT
TORSDOF 0
ENDMDL
MODEL 8
REMARK VINA RESULT:      -7.0      1.792      4.884
REMARK  0 active torsions:
REMARK  status: ('A' for Active; 'I' for Inactive)
ROOT
HETATM    1  C1  UNL     1      20.228   8.069  49.272  1.00  0.00     0.042 A 
HETATM    2  C2  UNL     1      20.813   7.039  49.828  1.00  0.00    -0.018 A 
HETATM    3  C3  UNL     1      19.522   6.719  49.010  1.00  0.00     0.017 A 
HETATM    4  C4  UNL     1      18.614   5.783  48.548  1.00  0.00    -0.005 C 
HETATM    5  C5  UNL     1      18.498   4.285  48.698  1.00  0.00    -0.026 C 
HETATM    6  C6  UNL     1      18.523   3.068  48.895  1.00  0.00     0.024 C 
HETATM    7  C7  UNL     1      19.692   2.475  49.746  1.00  0.00     0.140 C 
HETATM    8  C8  UNL     1      19.237   1.081  50.070  1.00  0.00     0.228 C 
HETATM    9  O1  UNL     1      20.307   0.512  50.759  1.00  0.00    -0.355 OA
HETATM   10  C9  UNL     1      21.556   0.954  50.405  1.00  0.00     0.279 C 
HETATM   11  C10 UNL     1      21.352   1.008  48.840  1.00  0.00     0.181 C 
HETATM   12  N1  UNL     1      20.662   2.278  48.730  1.00  0.00    -0.367 N 
HETATM   13  C11 UNL     1      21.515   3.230  48.259  1.00  0.00     0.134 C 
HETATM   14  C12 UNL     1      22.998   2.974  48.188  1.00  0.00     0.003 C 
HETATM   15  C13 UNL     1      23.707   2.775  49.267  1.00  0.00    -0.002 C 
HETATM   16  C14 UNL     1      24.559   2.544  50.405  1.00  0.00    -0.001 C 
HETATM   17  C15 UNL     1      23.923   2.574  51.637  1.00  0.00     0.015 C 
HETATM   18  C16 UNL     1      22.527   2.828  51.603  1.00  0.00     0.101 C 
HETATM   19  C17 UNL     1      22.196   4.301  51.562  1.00  0.00     0.012 C 
HETATM   20  C18 UNL     1      22.077   5.604  51.905  1.00  0.00    -0.021 C 
HETATM   21  C19 UNL     1      21.424   6.662  50.978  1.00  0.00     0.033 A 
HETATM   22  C20 UNL     1      21.385   5.634  50.236  1.00  0.00     0.013 A 
HETATM   23  P1  UNL     1      21.298   5.016  48.517  1.00  0.00    -0.082 P 
HETATM   24  C21 UNL     1      22.812   5.837  47.687  1.00  0.00     0.047 C 
HETATM   25  C22 UNL     1      21.526   2.256  52.571  1.00  0.00     0.066 C 
HETATM   26  C23 UNL     1      20.199   2.893  52.190  1.00  0.00     0.120 C 
HETATM   27  N2  UNL     1      19.886   3.179  50.865  1.00  0.00    -0.392 N 
HETATM   28  O2  UNL     1      22.065   2.123  50.567  1.00  0.00    -0.341 OA
HETATM   29  H27 UNL     1      19.159   3.974  50.919  1.00  0.00     0.156 HD
ENDROOT
TORSDOF 0
ENDMDL
MODEL 9
REMARK VINA RESULT:      -6.9      1.838      4.837
REMARK  0 active torsions:
REMARK  status: ('A' for Active; 'I' for Inactive)
ROOT
HETATM    1  C1  UNL     1      17.570   3.020  48.530  1.00  0.00     0.042 A 
HETATM    2  C2  UNL     1      18.648   3.574  49.023  1.00  0.00    -0.018 A 
HETATM    3  C3  UNL     1      18.420   2.080  49.416  1.00  0.00     0.017 A 
HETATM    4  C4  UNL     1      18.848   0.956  50.098  1.00  0.00    -0.005 C 
HETATM    5  C5  UNL     1      20.047   0.662  50.969  1.00  0.00    -0.026 C 
HETATM    6  C6  UNL     1      21.068   0.555  51.652  1.00  0.00     0.024 C 
HETATM    7  C7  UNL     1      22.011   1.794  51.782  1.00  0.00     0.140 C 
HETATM    8  C8  UNL     1      22.926   1.438  52.918  1.00  0.00     0.228 C 
HETATM    9  O1  UNL     1      23.827   2.500  52.992  1.00  0.00    -0.355 OA
HETATM   10  C9  UNL     1      24.121   3.124  51.806  1.00  0.00     0.279 C 
HETATM   11  C10 UNL     1      24.231   1.844  50.888  1.00  0.00     0.181 C 
HETATM   12  N1  UNL     1      22.823   1.608  50.634  1.00  0.00    -0.367 N 
HETATM   13  C11 UNL     1      22.506   2.007  49.371  1.00  0.00     0.134 C 
HETATM   14  C12 UNL     1      23.467   2.834  48.556  1.00  0.00     0.003 C 
HETATM   15  C13 UNL     1      23.810   4.040  48.925  1.00  0.00    -0.002 C 
HETATM   16  C14 UNL     1      24.240   5.372  49.261  1.00  0.00    -0.001 C 
HETATM   17  C15 UNL     1      23.701   5.892  50.427  1.00  0.00     0.015 C 
HETATM   18  C16 UNL     1      22.802   5.042  51.123  1.00  0.00     0.101 C 
HETATM   19  C17 UNL     1      21.386   5.129  50.604  1.00  0.00     0.012 C 
HETATM   20  C18 UNL     1      20.158   5.599  50.286  1.00  0.00    -0.021 C 
HETATM   21  C19 UNL     1      19.083   4.731  49.580  1.00  0.00     0.033 A 
HETATM   22  C20 UNL     1      20.064   3.927  49.604  1.00  0.00     0.013 A 
HETATM   23  P1  UNL     1      20.830   2.458  48.830  1.00  0.00    -0.082 P 
HETATM   24  C21 UNL     1      21.010   2.979  47.000  1.00  0.00     0.047 C 
HETATM   25  C22 UNL     1      22.640   5.003  52.618  1.00  0.00     0.066 C 
HETATM   26  C23 UNL     1      21.504   4.023  52.868  1.00  0.00     0.120 C 
HETATM   27  N2  UNL     1      21.322   2.904  52.062  1.00  0.00    -0.392 N 
HETATM   28  O2  UNL     1      23.346   3.824  51.058  1.00  0.00    -0.341 OA
HETATM   29  H27 UNL     1      20.275   2.662  52.159  1.00  0.00     0.156 HD
ENDROOT
TORSDOF 0
ENDMDL
