MODEL 1
REMARK VINA RESULT:      -6.8      0.000      0.000
REMARK  7 active torsions:
REMARK  status: ('A' for Active; 'I' for Inactive)
REMARK    1  A    between atoms: C7_7  and  N1_8 
REMARK    2  A    between atoms: N1_8  and  C8_9 
REMARK    3  A    between atoms: C9_11  and  N3_12 
REMARK    4  A    between atoms: N3_12  and  C10_13 
REMARK    5  A    between atoms: C11_14  and  C12_15 
REMARK    6  A    between atoms: C12_15  and  O1_16 
REMARK    7  A    between atoms: O1_16  and  C13_17 
ROOT
HETATM    1  C1  UNL     1      22.413  -1.208  55.217  1.00  0.00     0.018 C 
HETATM    2  C2  UNL     1      21.788  -0.552  54.412  1.00  0.00    -0.078 C 
HETATM    3  C3  UNL     1      21.031   0.207  53.446  1.00  0.00     0.019 A 
HETATM    4  C4  UNL     1      19.813  -0.348  53.073  1.00  0.00     0.021 A 
HETATM    5  C5  UNL     1      19.029   0.319  52.137  1.00  0.00     0.004 A 
HETATM    6  C6  UNL     1      19.464   1.495  51.607  1.00  0.00     0.029 A 
HETATM    7  C7  UNL     1      20.672   2.074  51.956  1.00  0.00     0.035 A 
HETATM    8  C18 UNL     1      21.446   1.399  52.892  1.00  0.00     0.050 A 
ENDROOT
BRANCH   7   9
HETATM    9  N1  UNL     1      21.154   3.301  51.394  1.00  0.00    -0.338 N 
HETATM   10  H5  UNL     1      20.746   4.171  51.849  1.00  0.00     0.167 HD
BRANCH   9  11
HETATM   11  C8  UNL     1      22.074   3.468  50.348  1.00  0.00     0.178 A 
HETATM   12  N2  UNL     1      22.711   3.566  49.109  1.00  0.00    -0.204 NA
HETATM   13  C9  UNL     1      23.428   3.818  50.275  1.00  0.00     0.198 A 
BRANCH  13  14
HETATM   14  N3  UNL     1      24.668   4.165  50.545  1.00  0.00    -0.238 NA
BRANCH  14  15
HETATM   15  C10 UNL     1      25.657   3.745  49.598  1.00  0.00     0.117 C 
HETATM   16  C11 UNL     1      26.519   2.902  50.204  1.00  0.00     0.018 C 
BRANCH  16  17
HETATM   17  C12 UNL     1      26.516   2.439  51.612  1.00  0.00     0.197 C 
BRANCH  17  18
HETATM   18  O1  UNL     1      25.880   1.223  51.773  1.00  0.00    -0.382 OA
BRANCH  18  19
HETATM   19  C13 UNL     1      26.754   0.255  52.206  1.00  0.00     0.125 C 
HETATM   20  C14 UNL     1      25.965  -0.753  53.060  1.00  0.00     0.058 C 
HETATM   21  C15 UNL     1      25.906  -0.188  54.456  1.00  0.00     0.170 C 
HETATM   22  O2  UNL     1      27.156  -0.271  55.053  1.00  0.00    -0.391 OA
HETATM   23  C16 UNL     1      28.197  -0.132  54.149  1.00  0.00     0.170 C 
HETATM   24  C17 UNL     1      27.866   0.857  53.048  1.00  0.00     0.058 C 
ENDBRANCH  18  19
ENDBRANCH  17  18
ENDBRANCH  16  17
ENDBRANCH  14  15
ENDBRANCH  13  14
ENDBRANCH   9  11
ENDBRANCH   7   9
TORSDOF 7
ENDMDL
MODEL 2
REMARK VINA RESULT:      -6.8      2.707      5.167
REMARK  7 active torsions:
REMARK  status: ('A' for Active; 'I' for Inactive)
REMARK    1  A    between atoms: C7_7  and  N1_8 
REMARK    2  A    between atoms: N1_8  and  C8_9 
REMARK    3  A    between atoms: C9_11  and  N3_12 
REMARK    4  A    between atoms: N3_12  and  C10_13 
REMARK    5  A    between atoms: C11_14  and  C12_15 
REMARK    6  A    between atoms: C12_15  and  O1_16 
REMARK    7  A    between atoms: O1_16  and  C13_17 
ROOT
HETATM    1  C1  UNL     1      20.437   3.241  51.721  1.00  0.00     0.018 C 
HETATM    2  C2  UNL     1      20.897   2.259  52.261  1.00  0.00    -0.078 C 
HETATM    3  C3  UNL     1      21.425   1.090  52.922  1.00  0.00     0.019 A 
HETATM    4  C4  UNL     1      20.502   0.342  53.641  1.00  0.00     0.021 A 
HETATM    5  C5  UNL     1      20.936  -0.795  54.316  1.00  0.00     0.004 A 
HETATM    6  C6  UNL     1      22.248  -1.153  54.260  1.00  0.00     0.029 A 
HETATM    7  C7  UNL     1      23.194  -0.430  53.552  1.00  0.00     0.035 A 
HETATM    8  C18 UNL     1      22.748   0.703  52.883  1.00  0.00     0.050 A 
ENDROOT
BRANCH   7   9
HETATM    9  N1  UNL     1      24.582  -0.782  53.497  1.00  0.00    -0.338 N 
HETATM   10  H5  UNL     1      24.827  -1.438  52.698  1.00  0.00     0.167 HD
BRANCH   9  11
HETATM   11  C8  UNL     1      25.612  -0.367  54.355  1.00  0.00     0.178 A 
HETATM   12  N2  UNL     1      26.577  -0.260  55.359  1.00  0.00    -0.204 NA
HETATM   13  C9  UNL     1      26.451   0.754  54.415  1.00  0.00     0.198 A 
BRANCH  13  14
HETATM   14  N3  UNL     1      27.066   1.896  54.190  1.00  0.00    -0.238 NA
BRANCH  14  15
HETATM   15  C10 UNL     1      27.912   1.934  53.035  1.00  0.00     0.117 C 
HETATM   16  C11 UNL     1      27.173   2.281  51.959  1.00  0.00     0.018 C 
BRANCH  16  17
HETATM   17  C12 UNL     1      25.724   2.584  51.897  1.00  0.00     0.197 C 
BRANCH  17  18
HETATM   18  O1  UNL     1      25.251   2.670  50.602  1.00  0.00    -0.382 OA
BRANCH  18  19
HETATM   19  C13 UNL     1      24.162   3.504  50.522  1.00  0.00     0.125 C 
HETATM   20  C14 UNL     1      24.404   4.496  49.370  1.00  0.00     0.058 C 
HETATM   21  C15 UNL     1      25.223   5.627  49.936  1.00  0.00     0.170 C 
HETATM   22  O2  UNL     1      24.440   6.402  50.780  1.00  0.00    -0.391 OA
HETATM   23  C16 UNL     1      23.475   5.667  51.449  1.00  0.00     0.170 C 
HETATM   24  C17 UNL     1      23.969   4.280  51.813  1.00  0.00     0.058 C 
ENDBRANCH  18  19
ENDBRANCH  17  18
ENDBRANCH  16  17
ENDBRANCH  14  15
ENDBRANCH  13  14
ENDBRANCH   9  11
ENDBRANCH   7   9
TORSDOF 7
ENDMDL
MODEL 3
REMARK VINA RESULT:      -6.8      2.365      5.816
REMARK  7 active torsions:
REMARK  status: ('A' for Active; 'I' for Inactive)
REMARK    1  A    between atoms: C7_7  and  N1_8 
REMARK    2  A    between atoms: N1_8  and  C8_9 
REMARK    3  A    between atoms: C9_11  and  N3_12 
REMARK    4  A    between atoms: N3_12  and  C10_13 
REMARK    5  A    between atoms: C11_14  and  C12_15 
REMARK    6  A    between atoms: C12_15  and  O1_16 
REMARK    7  A    between atoms: O1_16  and  C13_17 
ROOT
HETATM    1  C1  UNL     1      29.768  -0.931  53.595  1.00  0.00     0.018 C 
HETATM    2  C2  UNL     1      28.646  -0.511  53.415  1.00  0.00    -0.078 C 
HETATM    3  C3  UNL     1      27.301  -0.034  53.198  1.00  0.00     0.019 A 
HETATM    4  C4  UNL     1      26.292  -0.944  53.484  1.00  0.00     0.021 A 
HETATM    5  C5  UNL     1      24.968  -0.563  53.290  1.00  0.00     0.004 A 
HETATM    6  C6  UNL     1      24.685   0.685  52.826  1.00  0.00     0.029 A 
HETATM    7  C7  UNL     1      25.667   1.615  52.530  1.00  0.00     0.035 A 
HETATM    8  C18 UNL     1      26.986   1.223  52.728  1.00  0.00     0.050 A 
ENDROOT
BRANCH   7   9
HETATM    9  N1  UNL     1      25.389   2.927  52.023  1.00  0.00    -0.338 N 
HETATM   10  H5  UNL     1      25.627   3.708  52.703  1.00  0.00     0.167 HD
BRANCH   9  11
HETATM   11  C8  UNL     1      24.858   3.273  50.771  1.00  0.00     0.178 A 
HETATM   12  N2  UNL     1      24.660   3.585  49.425  1.00  0.00    -0.204 NA
HETATM   13  C9  UNL     1      23.569   3.534  50.288  1.00  0.00     0.198 A 
BRANCH  13  14
HETATM   14  N3  UNL     1      22.272   3.711  50.156  1.00  0.00    -0.238 NA
BRANCH  14  15
HETATM   15  C10 UNL     1      21.710   4.799  50.900  1.00  0.00     0.117 C 
HETATM   16  C11 UNL     1      20.642   4.354  51.595  1.00  0.00     0.018 C 
BRANCH  16  17
HETATM   17  C12 UNL     1      20.077   2.984  51.635  1.00  0.00     0.197 C 
BRANCH  17  18
HETATM   18  O1  UNL     1      20.181   2.400  52.883  1.00  0.00    -0.382 OA
BRANCH  18  19
HETATM   19  C13 UNL     1      20.801   1.176  52.812  1.00  0.00     0.125 C 
HETATM   20  C14 UNL     1      19.977   0.276  51.874  1.00  0.00     0.058 C 
HETATM   21  C15 UNL     1      18.881  -0.333  52.709  1.00  0.00     0.170 C 
HETATM   22  O2  UNL     1      19.413  -1.282  53.571  1.00  0.00    -0.391 OA
HETATM   23  C16 UNL     1      20.695  -0.970  53.992  1.00  0.00     0.170 C 
HETATM   24  C17 UNL     1      20.884   0.523  54.181  1.00  0.00     0.058 C 
ENDBRANCH  18  19
ENDBRANCH  17  18
ENDBRANCH  16  17
ENDBRANCH  14  15
ENDBRANCH  13  14
ENDBRANCH   9  11
ENDBRANCH   7   9
TORSDOF 7
ENDMDL
MODEL 4
REMARK VINA RESULT:      -6.7      2.701      6.515
REMARK  7 active torsions:
REMARK  status: ('A' for Active; 'I' for Inactive)
REMARK    1  A    between atoms: C7_7  and  N1_8 
REMARK    2  A    between atoms: N1_8  and  C8_9 
REMARK    3  A    between atoms: C9_11  and  N3_12 
REMARK    4  A    between atoms: N3_12  and  C10_13 
REMARK    5  A    between atoms: C11_14  and  C12_15 
REMARK    6  A    between atoms: C12_15  and  O1_16 
REMARK    7  A    between atoms: O1_16  and  C13_17 
ROOT
HETATM    1  C1  UNL     1      29.889   6.399  47.465  1.00  0.00     0.018 C 
HETATM    2  C2  UNL     1      28.733   6.473  47.820  1.00  0.00    -0.078 C 
HETATM    3  C3  UNL     1      27.354   6.584  48.232  1.00  0.00     0.019 A 
HETATM    4  C4  UNL     1      26.598   7.521  47.540  1.00  0.00     0.021 A 
HETATM    5  C5  UNL     1      25.262   7.695  47.886  1.00  0.00     0.004 A 
HETATM    6  C6  UNL     1      24.722   6.950  48.889  1.00  0.00     0.029 A 
HETATM    7  C7  UNL     1      25.448   6.008  49.599  1.00  0.00     0.035 A 
HETATM    8  C18 UNL     1      26.781   5.843  49.244  1.00  0.00     0.050 A 
ENDROOT
BRANCH   7   9
HETATM    9  N1  UNL     1      24.901   5.229  50.670  1.00  0.00    -0.338 N 
HETATM   10  H5  UNL     1      24.848   5.749  51.595  1.00  0.00     0.167 HD
BRANCH   9  11
HETATM   11  C8  UNL     1      24.446   3.902  50.627  1.00  0.00     0.178 A 
HETATM   12  N2  UNL     1      24.068   2.613  50.247  1.00  0.00    -0.204 NA
HETATM   13  C9  UNL     1      24.000   2.984  51.587  1.00  0.00     0.198 A 
BRANCH  13  14
HETATM   14  N3  UNL     1      23.646   2.379  52.701  1.00  0.00    -0.238 NA
BRANCH  14  15
HETATM   15  C10 UNL     1      23.117   1.056  52.554  1.00  0.00     0.117 C 
HETATM   16  C11 UNL     1      23.973   0.174  53.112  1.00  0.00     0.018 C 
BRANCH  16  17
HETATM   17  C12 UNL     1      25.267   0.446  53.781  1.00  0.00     0.197 C 
BRANCH  17  18
HETATM   18  O1  UNL     1      26.291  -0.352  53.308  1.00  0.00    -0.382 OA
BRANCH  18  19
HETATM   19  C13 UNL     1      27.349   0.404  52.864  1.00  0.00     0.125 C 
HETATM   20  C14 UNL     1      28.642  -0.197  53.443  1.00  0.00     0.058 C 
HETATM   21  C15 UNL     1      28.811   0.383  54.823  1.00  0.00     0.170 C 
HETATM   22  O2  UNL     1      29.170   1.721  54.733  1.00  0.00    -0.391 OA
HETATM   23  C16 UNL     1      28.618   2.355  53.632  1.00  0.00     0.170 C 
HETATM   24  C17 UNL     1      27.224   1.847  53.323  1.00  0.00     0.058 C 
ENDBRANCH  18  19
ENDBRANCH  17  18
ENDBRANCH  16  17
ENDBRANCH  14  15
ENDBRANCH  13  14
ENDBRANCH   9  11
ENDBRANCH   7   9
TORSDOF 7
ENDMDL
MODEL 5
REMARK VINA RESULT:      -6.7      1.636      2.153
REMARK  7 active torsions:
REMARK  status: ('A' for Active; 'I' for Inactive)
REMARK    1  A    between atoms: C7_7  and  N1_8 
REMARK    2  A    between atoms: N1_8  and  C8_9 
REMARK    3  A    between atoms: C9_11  and  N3_12 
REMARK    4  A    between atoms: N3_12  and  C10_13 
REMARK    5  A    between atoms: C11_14  and  C12_15 
REMARK    6  A    between atoms: C12_15  and  O1_16 
REMARK    7  A    between atoms: O1_16  and  C13_17 
ROOT
HETATM    1  C1  UNL     1      21.610  -0.616  54.939  1.00  0.00     0.018 C 
HETATM    2  C2  UNL     1      21.193  -0.276  53.853  1.00  0.00    -0.078 C 
HETATM    3  C3  UNL     1      20.675   0.115  52.564  1.00  0.00     0.019 A 
HETATM    4  C4  UNL     1      19.296   0.019  52.421  1.00  0.00     0.021 A 
HETATM    5  C5  UNL     1      18.721   0.368  51.203  1.00  0.00     0.004 A 
HETATM    6  C6  UNL     1      19.512   0.793  50.180  1.00  0.00     0.029 A 
HETATM    7  C7  UNL     1      20.888   0.898  50.289  1.00  0.00     0.035 A 
HETATM    8  C18 UNL     1      21.451   0.548  51.511  1.00  0.00     0.050 A 
ENDROOT
BRANCH   7   9
HETATM    9  N1  UNL     1      21.738   1.326  49.217  1.00  0.00    -0.338 N 
HETATM   10  H5  UNL     1      21.611   0.768  48.321  1.00  0.00     0.167 HD
BRANCH   9  11
HETATM   11  C8  UNL     1      22.682   2.363  49.226  1.00  0.00     0.178 A 
HETATM   12  N2  UNL     1      23.448   3.499  48.953  1.00  0.00    -0.204 NA
HETATM   13  C9  UNL     1      23.736   2.727  50.075  1.00  0.00     0.198 A 
BRANCH  13  14
HETATM   14  N3  UNL     1      24.620   2.796  51.047  1.00  0.00    -0.238 NA
BRANCH  14  15
HETATM   15  C10 UNL     1      24.137   3.300  52.298  1.00  0.00     0.117 C 
HETATM   16  C11 UNL     1      24.783   2.673  53.305  1.00  0.00     0.018 C 
BRANCH  16  17
HETATM   17  C12 UNL     1      25.827   1.626  53.216  1.00  0.00     0.197 C 
BRANCH  17  18
HETATM   18  O1  UNL     1      26.499   1.439  54.409  1.00  0.00    -0.382 OA
BRANCH  18  19
HETATM   19  C13 UNL     1      26.985   0.159  54.515  1.00  0.00     0.125 C 
HETATM   20  C14 UNL     1      28.418   0.237  55.071  1.00  0.00     0.058 C 
HETATM   21  C15 UNL     1      29.329   0.481  53.896  1.00  0.00     0.170 C 
HETATM   22  O2  UNL     1      29.418  -0.666  53.120  1.00  0.00    -0.391 OA
HETATM   23  C16 UNL     1      28.249  -1.410  53.119  1.00  0.00     0.170 C 
HETATM   24  C17 UNL     1      27.015  -0.530  53.161  1.00  0.00     0.058 C 
ENDBRANCH  18  19
ENDBRANCH  17  18
ENDBRANCH  16  17
ENDBRANCH  14  15
ENDBRANCH  13  14
ENDBRANCH   9  11
ENDBRANCH   7   9
TORSDOF 7
ENDMDL
MODEL 6
REMARK VINA RESULT:      -6.5      3.035      5.941
REMARK  7 active torsions:
REMARK  status: ('A' for Active; 'I' for Inactive)
REMARK    1  A    between atoms: C7_7  and  N1_8 
REMARK    2  A    between atoms: N1_8  and  C8_9 
REMARK    3  A    between atoms: C9_11  and  N3_12 
REMARK    4  A    between atoms: N3_12  and  C10_13 
REMARK    5  A    between atoms: C11_14  and  C12_15 
REMARK    6  A    between atoms: C12_15  and  O1_16 
REMARK    7  A    between atoms: O1_16  and  C13_17 
ROOT
HETATM    1  C1  UNL     1      29.919  -1.135  53.813  1.00  0.00     0.018 C 
HETATM    2  C2  UNL     1      28.862  -0.648  53.478  1.00  0.00    -0.078 C 
HETATM    3  C3  UNL     1      27.593  -0.091  53.074  1.00  0.00     0.019 A 
HETATM    4  C4  UNL     1      26.508  -0.953  53.163  1.00  0.00     0.021 A 
HETATM    5  C5  UNL     1      25.251  -0.494  52.781  1.00  0.00     0.004 A 
HETATM    6  C6  UNL     1      25.107   0.783  52.329  1.00  0.00     0.029 A 
HETATM    7  C7  UNL     1      26.168   1.667  52.228  1.00  0.00     0.035 A 
HETATM    8  C18 UNL     1      27.418   1.196  52.613  1.00  0.00     0.050 A 
ENDROOT
BRANCH   7   9
HETATM    9  N1  UNL     1      26.039   3.007  51.738  1.00  0.00    -0.338 N 
HETATM   10  H5  UNL     1      25.597   3.677  52.434  1.00  0.00     0.167 HD
BRANCH   9  11
HETATM   11  C8  UNL     1      26.420   3.508  50.483  1.00  0.00     0.178 A 
HETATM   12  N2  UNL     1      26.993   3.718  49.227  1.00  0.00    -0.204 NA
HETATM   13  C9  UNL     1      26.055   4.623  49.717  1.00  0.00     0.198 A 
BRANCH  13  14
HETATM   14  N3  UNL     1      25.505   5.728  49.262  1.00  0.00    -0.238 NA
BRANCH  14  15
HETATM   15  C10 UNL     1      25.663   6.891  50.083  1.00  0.00     0.117 C 
HETATM   16  C11 UNL     1      24.481   7.187  50.662  1.00  0.00     0.018 C 
BRANCH  16  17
HETATM   17  C12 UNL     1      23.186   6.480  50.522  1.00  0.00     0.197 C 
BRANCH  17  18
HETATM   18  O1  UNL     1      22.908   5.656  51.596  1.00  0.00    -0.382 OA
BRANCH  18  19
HETATM   19  C13 UNL     1      22.695   4.361  51.191  1.00  0.00     0.125 C 
HETATM   20  C14 UNL     1      21.423   4.335  50.325  1.00  0.00     0.058 C 
HETATM   21  C15 UNL     1      20.255   4.228  51.270  1.00  0.00     0.170 C 
HETATM   22  O2  UNL     1      20.211   2.957  51.826  1.00  0.00    -0.391 OA
HETATM   23  C16 UNL     1      21.467   2.399  51.999  1.00  0.00     0.170 C 
HETATM   24  C17 UNL     1      22.502   3.439  52.383  1.00  0.00     0.058 C 
ENDBRANCH  18  19
ENDBRANCH  17  18
ENDBRANCH  16  17
ENDBRANCH  14  15
ENDBRANCH  13  14
ENDBRANCH   9  11
ENDBRANCH   7   9
TORSDOF 7
ENDMDL
MODEL 7
REMARK VINA RESULT:      -6.4      3.444      7.665
REMARK  7 active torsions:
REMARK  status: ('A' for Active; 'I' for Inactive)
REMARK    1  A    between atoms: C7_7  and  N1_8 
REMARK    2  A    between atoms: N1_8  and  C8_9 
REMARK    3  A    between atoms: C9_11  and  N3_12 
REMARK    4  A    between atoms: N3_12  and  C10_13 
REMARK    5  A    between atoms: C11_14  and  C12_15 
REMARK    6  A    between atoms: C12_15  and  O1_16 
REMARK    7  A    between atoms: O1_16  and  C13_17 
ROOT
HETATM    1  C1  UNL     1      27.442  10.173  47.057  1.00  0.00     0.018 C 
HETATM    2  C2  UNL     1      27.840   9.059  47.320  1.00  0.00    -0.078 C 
HETATM    3  C3  UNL     1      28.332   7.735  47.615  1.00  0.00     0.019 A 
HETATM    4  C4  UNL     1      29.653   7.496  47.260  1.00  0.00     0.021 A 
HETATM    5  C5  UNL     1      30.198   6.239  47.502  1.00  0.00     0.004 A 
HETATM    6  C6  UNL     1      29.434   5.272  48.079  1.00  0.00     0.029 A 
HETATM    7  C7  UNL     1      28.114   5.477  48.445  1.00  0.00     0.035 A 
HETATM    8  C18 UNL     1      27.581   6.737  48.198  1.00  0.00     0.050 A 
ENDROOT
BRANCH   7   9
HETATM    9  N1  UNL     1      27.289   4.465  49.036  1.00  0.00    -0.338 N 
HETATM   10  H5  UNL     1      27.683   3.482  48.944  1.00  0.00     0.167 HD
BRANCH   9  11
HETATM   11  C8  UNL     1      26.063   4.630  49.699  1.00  0.00     0.178 A 
HETATM   12  N2  UNL     1      24.886   5.124  50.264  1.00  0.00    -0.204 NA
HETATM   13  C9  UNL     1      25.166   3.763  50.336  1.00  0.00     0.198 A 
BRANCH  13  14
HETATM   14  N3  UNL     1      24.550   2.714  50.838  1.00  0.00    -0.238 NA
BRANCH  14  15
HETATM   15  C10 UNL     1      23.536   2.989  51.811  1.00  0.00     0.117 C 
HETATM   16  C11 UNL     1      23.555   2.024  52.755  1.00  0.00     0.018 C 
BRANCH  16  17
HETATM   17  C12 UNL     1      24.443   0.840  52.841  1.00  0.00     0.197 C 
BRANCH  17  18
HETATM   18  O1  UNL     1      25.455   0.998  53.768  1.00  0.00    -0.382 OA
BRANCH  18  19
HETATM   19  C13 UNL     1      26.679   1.121  53.158  1.00  0.00     0.125 C 
HETATM   20  C14 UNL     1      27.538  -0.090  53.560  1.00  0.00     0.058 C 
HETATM   21  C15 UNL     1      28.170   0.246  54.886  1.00  0.00     0.170 C 
HETATM   22  O2  UNL     1      29.154   1.209  54.711  1.00  0.00    -0.391 OA
HETATM   23  C16 UNL     1      28.867   2.094  53.685  1.00  0.00     0.170 C 
HETATM   24  C17 UNL     1      27.383   2.395  53.593  1.00  0.00     0.058 C 
ENDBRANCH  18  19
ENDBRANCH  17  18
ENDBRANCH  16  17
ENDBRANCH  14  15
ENDBRANCH  13  14
ENDBRANCH   9  11
ENDBRANCH   7   9
TORSDOF 7
ENDMDL
MODEL 8
REMARK VINA RESULT:      -6.4      2.735      6.691
REMARK  7 active torsions:
REMARK  status: ('A' for Active; 'I' for Inactive)
REMARK    1  A    between atoms: C7_7  and  N1_8 
REMARK    2  A    between atoms: N1_8  and  C8_9 
REMARK    3  A    between atoms: C9_11  and  N3_12 
REMARK    4  A    between atoms: N3_12  and  C10_13 
REMARK    5  A    between atoms: C11_14  and  C12_15 
REMARK    6  A    between atoms: C12_15  and  O1_16 
REMARK    7  A    between atoms: O1_16  and  C13_17 
ROOT
HETATM    1  C1  UNL     1      26.698   3.618  49.750  1.00  0.00     0.018 C 
HETATM    2  C2  UNL     1      26.300   2.790  50.541  1.00  0.00    -0.078 C 
HETATM    3  C3  UNL     1      25.844   1.787  51.473  1.00  0.00     0.019 A 
HETATM    4  C4  UNL     1      26.755   0.778  51.758  1.00  0.00     0.021 A 
HETATM    5  C5  UNL     1      26.385  -0.232  52.640  1.00  0.00     0.004 A 
HETATM    6  C6  UNL     1      25.147  -0.216  53.205  1.00  0.00     0.029 A 
HETATM    7  C7  UNL     1      24.215   0.774  52.941  1.00  0.00     0.035 A 
HETATM    8  C18 UNL     1      24.596   1.778  52.059  1.00  0.00     0.050 A 
ENDROOT
BRANCH   7   9
HETATM    9  N1  UNL     1      22.900   0.797  53.511  1.00  0.00    -0.338 N 
HETATM   10  H5  UNL     1      22.597   1.757  53.850  1.00  0.00     0.167 HD
BRANCH   9  11
HETATM   11  C8  UNL     1      22.006  -0.275  53.663  1.00  0.00     0.178 A 
HETATM   12  N2  UNL     1      21.401  -1.505  53.925  1.00  0.00    -0.204 NA
HETATM   13  C9  UNL     1      20.627  -0.437  53.481  1.00  0.00     0.198 A 
BRANCH  13  14
HETATM   14  N3  UNL     1      19.348  -0.261  53.225  1.00  0.00    -0.238 NA
BRANCH  14  15
HETATM   15  C10 UNL     1      18.987  -0.216  51.840  1.00  0.00     0.117 C 
HETATM   16  C11 UNL     1      19.167   1.039  51.377  1.00  0.00     0.018 C 
BRANCH  16  17
HETATM   17  C12 UNL     1      19.651   2.230  52.115  1.00  0.00     0.197 C 
BRANCH  17  18
HETATM   18  O1  UNL     1      20.937   2.591  51.762  1.00  0.00    -0.382 OA
BRANCH  18  19
HETATM   19  C13 UNL     1      21.028   3.938  51.509  1.00  0.00     0.125 C 
HETATM   20  C14 UNL     1      21.262   4.125  49.999  1.00  0.00     0.058 C 
HETATM   21  C15 UNL     1      22.745   3.986  49.769  1.00  0.00     0.170 C 
HETATM   22  O2  UNL     1      23.408   5.098  50.270  1.00  0.00    -0.391 OA
HETATM   23  C16 UNL     1      22.792   5.635  51.389  1.00  0.00     0.170 C 
HETATM   24  C17 UNL     1      22.183   4.563  52.272  1.00  0.00     0.058 C 
ENDBRANCH  18  19
ENDBRANCH  17  18
ENDBRANCH  16  17
ENDBRANCH  14  15
ENDBRANCH  13  14
ENDBRANCH   9  11
ENDBRANCH   7   9
TORSDOF 7
ENDMDL
MODEL 9
REMARK VINA RESULT:      -6.3      3.009      4.414
REMARK  7 active torsions:
REMARK  status: ('A' for Active; 'I' for Inactive)
REMARK    1  A    between atoms: C7_7  and  N1_8 
REMARK    2  A    between atoms: N1_8  and  C8_9 
REMARK    3  A    between atoms: C9_11  and  N3_12 
REMARK    4  A    between atoms: N3_12  and  C10_13 
REMARK    5  A    between atoms: C11_14  and  C12_15 
REMARK    6  A    between atoms: C12_15  and  O1_16 
REMARK    7  A    between atoms: O1_16  and  C13_17 
ROOT
HETATM    1  C1  UNL     1      21.529   2.029  48.501  1.00  0.00     0.018 C 
HETATM    2  C2  UNL     1      20.702   1.571  49.259  1.00  0.00    -0.078 C 
HETATM    3  C3  UNL     1      19.700   1.044  50.154  1.00  0.00     0.019 A 
HETATM    4  C4  UNL     1      18.383   1.299  49.793  1.00  0.00     0.021 A 
HETATM    5  C5  UNL     1      17.359   0.832  50.611  1.00  0.00     0.004 A 
HETATM    6  C6  UNL     1      17.662   0.139  51.743  1.00  0.00     0.029 A 
HETATM    7  C7  UNL     1      18.963  -0.133  52.131  1.00  0.00     0.035 A 
HETATM    8  C18 UNL     1      19.977   0.338  51.306  1.00  0.00     0.050 A 
ENDROOT
BRANCH   7   9
HETATM    9  N1  UNL     1      19.300  -0.845  53.328  1.00  0.00    -0.338 N 
HETATM   10  H5  UNL     1      18.530  -1.491  53.674  1.00  0.00     0.167 HD
BRANCH   9  11
HETATM   11  C8  UNL     1      20.495  -0.782  54.062  1.00  0.00     0.178 A 
HETATM   12  N2  UNL     1      21.466  -0.703  55.062  1.00  0.00    -0.204 NA
HETATM   13  C9  UNL     1      21.855  -0.842  53.733  1.00  0.00     0.198 A 
BRANCH  13  14
HETATM   14  N3  UNL     1      23.010  -0.936  53.109  1.00  0.00    -0.238 NA
BRANCH  14  15
HETATM   15  C10 UNL     1      23.719   0.294  52.916  1.00  0.00     0.117 C 
HETATM   16  C11 UNL     1      24.837   0.281  53.672  1.00  0.00     0.018 C 
BRANCH  16  17
HETATM   17  C12 UNL     1      25.322  -0.785  54.580  1.00  0.00     0.197 C 
BRANCH  17  18
HETATM   18  O1  UNL     1      26.648  -0.626  54.932  1.00  0.00    -0.382 OA
BRANCH  18  19
HETATM   19  C13 UNL     1      27.349   0.037  53.954  1.00  0.00     0.125 C 
HETATM   20  C14 UNL     1      27.877  -1.007  52.954  1.00  0.00     0.058 C 
HETATM   21  C15 UNL     1      29.171  -1.534  53.518  1.00  0.00     0.170 C 
HETATM   22  O2  UNL     1      30.160  -0.564  53.421  1.00  0.00    -0.391 OA
HETATM   23  C16 UNL     1      29.667   0.724  53.549  1.00  0.00     0.170 C 
HETATM   24  C17 UNL     1      28.524   0.799  54.542  1.00  0.00     0.058 C 
ENDBRANCH  18  19
ENDBRANCH  17  18
ENDBRANCH  16  17
ENDBRANCH  14  15
ENDBRANCH  13  14
ENDBRANCH   9  11
ENDBRANCH   7   9
TORSDOF 7
ENDMDL
