MODEL 1
REMARK VINA RESULT:      -8.4      0.000      0.000
REMARK  7 active torsions:
REMARK  status: ('A' for Active; 'I' for Inactive)
REMARK    1  A    between atoms: C6_6  and  C7_7 
REMARK    2  A    between atoms: C7_7  and  N1_8 
REMARK    3  A    between atoms: N1_8  and  C8_9 
REMARK       I    between atoms: N1_8  and  C15_17 
REMARK    4  A    between atoms: C8_9  and  C9_10 
REMARK    5  A    between atoms: C12_13  and  O1_14 
REMARK       I    between atoms: C15_17  and  N2_19 
REMARK    6  A    between atoms: N2_19  and  C16_20 
REMARK    7  A    between atoms: C22_26  and  O3_27 
ROOT
HETATM    1  N1  UNL     1      24.761   2.086  51.816  1.00  0.00    -0.325 N 
HETATM    2  C15 UNL     1      25.957   1.352  52.074  1.00  0.00     0.323 C 
HETATM    3  O2  UNL     1      26.780   1.054  51.147  1.00  0.00    -0.247 OA
HETATM    4  N2  UNL     1      26.333   0.898  53.351  1.00  0.00    -0.309 N 
HETATM    5  H16 UNL     1      25.734   1.088  54.165  1.00  0.00     0.170 HD
ENDROOT
BRANCH   1   6
HETATM    6  C7  UNL     1      23.881   2.389  52.891  1.00  0.00     0.169 C 
BRANCH   6   7
HETATM    7  C6  UNL     1      22.685   1.511  52.991  1.00  0.00    -0.006 A 
HETATM    8  C5  UNL     1      21.549   2.090  52.428  1.00  0.00     0.012 A 
HETATM    9  C4  UNL     1      20.344   1.429  52.424  1.00  0.00     0.001 A 
HETATM   10  C3  UNL     1      20.251   0.157  52.992  1.00  0.00     0.009 A 
HETATM   11  C2  UNL     1      21.380  -0.388  53.537  1.00  0.00    -0.028 A 
HETATM   12  C1  UNL     1      21.347  -1.752  54.163  1.00  0.00     0.051 C 
HETATM   13  C22 UNL     1      22.602   0.254  53.553  1.00  0.00     0.079 A 
BRANCH  13  14
HETATM   14  O3  UNL     1      23.783  -0.228  54.083  1.00  0.00    -0.360 OA
HETATM   15  H22 UNL     1      24.074   0.223  54.961  1.00  0.00     0.217 HD
ENDBRANCH  13  14
ENDBRANCH   6   7
ENDBRANCH   1   6
BRANCH   1  16
HETATM   16  C8  UNL     1      24.483   2.500  50.459  1.00  0.00     0.166 C 
BRANCH  16  17
HETATM   17  C9  UNL     1      25.033   3.840  50.123  1.00  0.00    -0.040 A 
HETATM   18  C10 UNL     1      24.477   5.040  50.519  1.00  0.00     0.011 A 
HETATM   19  C11 UNL     1      25.086   6.228  50.139  1.00  0.00     0.037 A 
HETATM   20  C12 UNL     1      26.233   6.224  49.376  1.00  0.00     0.065 A 
HETATM   21  C13 UNL     1      26.817   5.032  48.961  1.00  0.00     0.037 A 
HETATM   22  C14 UNL     1      26.189   3.860  49.353  1.00  0.00     0.011 A 
BRANCH  20  23
HETATM   23  O1  UNL     1      26.772   7.457  49.043  1.00  0.00    -0.361 OA
HETATM   24  H13 UNL     1      27.163   7.684  48.156  1.00  0.00     0.217 HD
ENDBRANCH  20  23
ENDBRANCH  16  17
ENDBRANCH   1  16
BRANCH   4  25
HETATM   25  C16 UNL     1      27.573   0.180  53.387  1.00  0.00     0.036 A 
HETATM   26  C17 UNL     1      28.811   0.732  53.673  1.00  0.00     0.029 A 
HETATM   27  C18 UNL     1      29.940  -0.070  53.675  1.00  0.00     0.002 A 
HETATM   28  C19 UNL     1      29.881  -1.439  53.395  1.00  0.00     0.000 A 
HETATM   29  C20 UNL     1      28.635  -1.997  53.106  1.00  0.00     0.002 A 
HETATM   30  C21 UNL     1      27.516  -1.177  53.109  1.00  0.00     0.029 A 
ENDBRANCH   4  25
TORSDOF 7
ENDMDL
MODEL 2
REMARK VINA RESULT:      -8.4      2.025      5.803
REMARK  7 active torsions:
REMARK  status: ('A' for Active; 'I' for Inactive)
REMARK    1  A    between atoms: C6_6  and  C7_7 
REMARK    2  A    between atoms: C7_7  and  N1_8 
REMARK    3  A    between atoms: N1_8  and  C8_9 
REMARK       I    between atoms: N1_8  and  C15_17 
REMARK    4  A    between atoms: C8_9  and  C9_10 
REMARK    5  A    between atoms: C12_13  and  O1_14 
REMARK       I    between atoms: C15_17  and  N2_19 
REMARK    6  A    between atoms: N2_19  and  C16_20 
REMARK    7  A    between atoms: C22_26  and  O3_27 
ROOT
HETATM    1  N1  UNL     1      24.504   3.280  51.547  1.00  0.00    -0.325 N 
HETATM    2  C15 UNL     1      25.505   2.535  52.237  1.00  0.00     0.323 C 
HETATM    3  O2  UNL     1      25.581   2.522  53.510  1.00  0.00    -0.247 OA
HETATM    4  N2  UNL     1      26.484   1.758  51.591  1.00  0.00    -0.309 N 
HETATM    5  H16 UNL     1      26.508   1.704  50.565  1.00  0.00     0.170 HD
ENDROOT
BRANCH   1   6
HETATM    6  C7  UNL     1      24.469   3.254  50.126  1.00  0.00     0.169 C 
BRANCH   6   7
HETATM    7  C6  UNL     1      24.989   4.479  49.463  1.00  0.00    -0.006 A 
HETATM    8  C5  UNL     1      23.971   5.329  49.035  1.00  0.00     0.012 A 
HETATM    9  C4  UNL     1      24.255   6.514  48.399  1.00  0.00     0.001 A 
HETATM   10  C3  UNL     1      25.584   6.877  48.176  1.00  0.00     0.009 A 
HETATM   11  C2  UNL     1      26.565   6.026  48.605  1.00  0.00    -0.028 A 
HETATM   12  C1  UNL     1      28.013   6.359  48.396  1.00  0.00     0.051 C 
HETATM   13  C22 UNL     1      26.306   4.832  49.247  1.00  0.00     0.079 A 
BRANCH  13  14
HETATM   14  O3  UNL     1      27.237   3.922  49.709  1.00  0.00    -0.360 OA
HETATM   15  H22 UNL     1      27.422   3.137  49.070  1.00  0.00     0.217 HD
ENDBRANCH  13  14
ENDBRANCH   6   7
ENDBRANCH   1   6
BRANCH   1  16
HETATM   16  C8  UNL     1      23.550   4.041  52.323  1.00  0.00     0.166 C 
BRANCH  16  17
HETATM   17  C9  UNL     1      22.141   3.615  52.114  1.00  0.00    -0.040 A 
HETATM   18  C10 UNL     1      21.151   4.410  51.572  1.00  0.00     0.011 A 
HETATM   19  C11 UNL     1      19.870   3.896  51.429  1.00  0.00     0.037 A 
HETATM   20  C12 UNL     1      19.575   2.607  51.819  1.00  0.00     0.065 A 
HETATM   21  C13 UNL     1      20.551   1.782  52.368  1.00  0.00     0.037 A 
HETATM   22  C14 UNL     1      21.822   2.319  52.500  1.00  0.00     0.011 A 
BRANCH  20  23
HETATM   23  O1  UNL     1      18.270   2.178  51.639  1.00  0.00    -0.361 OA
HETATM   24  H13 UNL     1      17.761   1.622  52.290  1.00  0.00     0.217 HD
ENDBRANCH  20  23
ENDBRANCH  16  17
ENDBRANCH   1  16
BRANCH   4  25
HETATM   25  C16 UNL     1      27.394   1.091  52.475  1.00  0.00     0.036 A 
HETATM   26  C17 UNL     1      28.376   1.709  53.231  1.00  0.00     0.029 A 
HETATM   27  C18 UNL     1      29.197   0.951  54.050  1.00  0.00     0.002 A 
HETATM   28  C19 UNL     1      29.071  -0.439  54.148  1.00  0.00     0.000 A 
HETATM   29  C20 UNL     1      28.082  -1.064  53.387  1.00  0.00     0.002 A 
HETATM   30  C21 UNL     1      27.271  -0.287  52.573  1.00  0.00     0.029 A 
ENDBRANCH   4  25
TORSDOF 7
ENDMDL
MODEL 3
REMARK VINA RESULT:      -8.2      1.113      2.117
REMARK  7 active torsions:
REMARK  status: ('A' for Active; 'I' for Inactive)
REMARK    1  A    between atoms: C6_6  and  C7_7 
REMARK    2  A    between atoms: C7_7  and  N1_8 
REMARK    3  A    between atoms: N1_8  and  C8_9 
REMARK       I    between atoms: N1_8  and  C15_17 
REMARK    4  A    between atoms: C8_9  and  C9_10 
REMARK    5  A    between atoms: C12_13  and  O1_14 
REMARK       I    between atoms: C15_17  and  N2_19 
REMARK    6  A    between atoms: N2_19  and  C16_20 
REMARK    7  A    between atoms: C22_26  and  O3_27 
ROOT
HETATM    1  N1  UNL     1      24.222   1.506  52.159  1.00  0.00    -0.325 N 
HETATM    2  C15 UNL     1      25.498   0.892  52.330  1.00  0.00     0.323 C 
HETATM    3  O2  UNL     1      26.305   0.728  51.356  1.00  0.00    -0.247 OA
HETATM    4  N2  UNL     1      25.977   0.418  53.565  1.00  0.00    -0.309 N 
HETATM    5  H16 UNL     1      25.399   0.504  54.411  1.00  0.00     0.170 HD
ENDROOT
BRANCH   1   6
HETATM    6  C7  UNL     1      23.365   1.662  53.283  1.00  0.00     0.169 C 
BRANCH   6   7
HETATM    7  C6  UNL     1      22.281   0.649  53.392  1.00  0.00    -0.006 A 
HETATM    8  C5  UNL     1      22.661  -0.462  54.143  1.00  0.00     0.012 A 
HETATM    9  C4  UNL     1      21.793  -1.506  54.355  1.00  0.00     0.001 A 
HETATM   10  C3  UNL     1      20.508  -1.457  53.812  1.00  0.00     0.009 A 
HETATM   11  C2  UNL     1      20.160  -0.356  53.080  1.00  0.00    -0.028 A 
HETATM   12  C1  UNL     1      18.794  -0.243  52.469  1.00  0.00     0.051 C 
HETATM   13  C22 UNL     1      21.012   0.705  52.852  1.00  0.00     0.079 A 
BRANCH  13  14
HETATM   14  O3  UNL     1      20.736   1.847  52.126  1.00  0.00    -0.360 OA
HETATM   15  H22 UNL     1      21.021   2.723  52.583  1.00  0.00     0.217 HD
ENDBRANCH  13  14
ENDBRANCH   6   7
ENDBRANCH   1   6
BRANCH   1  16
HETATM   16  C8  UNL     1      23.841   1.953  50.839  1.00  0.00     0.166 C 
BRANCH  16  17
HETATM   17  C9  UNL     1      24.407   3.279  50.475  1.00  0.00    -0.040 A 
HETATM   18  C10 UNL     1      25.429   3.476  49.567  1.00  0.00     0.011 A 
HETATM   19  C11 UNL     1      25.871   4.767  49.313  1.00  0.00     0.037 A 
HETATM   20  C12 UNL     1      25.307   5.849  49.953  1.00  0.00     0.065 A 
HETATM   21  C13 UNL     1      24.277   5.683  50.873  1.00  0.00     0.037 A 
HETATM   22  C14 UNL     1      23.854   4.384  51.109  1.00  0.00     0.011 A 
BRANCH  20  23
HETATM   23  O1  UNL     1      25.813   7.100  49.638  1.00  0.00    -0.361 OA
HETATM   24  H13 UNL     1      25.639   7.583  48.784  1.00  0.00     0.217 HD
ENDBRANCH  20  23
ENDBRANCH  16  17
ENDBRANCH   1  16
BRANCH   4  25
HETATM   25  C16 UNL     1      27.285  -0.165  53.513  1.00  0.00     0.036 A 
HETATM   26  C17 UNL     1      27.570  -1.462  53.121  1.00  0.00     0.029 A 
HETATM   27  C18 UNL     1      28.880  -1.910  53.114  1.00  0.00     0.002 A 
HETATM   28  C19 UNL     1      29.949  -1.089  53.492  1.00  0.00     0.000 A 
HETATM   29  C20 UNL     1      29.664   0.219  53.887  1.00  0.00     0.002 A 
HETATM   30  C21 UNL     1      28.345   0.647  53.887  1.00  0.00     0.029 A 
ENDBRANCH   4  25
TORSDOF 7
ENDMDL
MODEL 4
REMARK VINA RESULT:      -8.2      1.510      2.156
REMARK  7 active torsions:
REMARK  status: ('A' for Active; 'I' for Inactive)
REMARK    1  A    between atoms: C6_6  and  C7_7 
REMARK    2  A    between atoms: C7_7  and  N1_8 
REMARK    3  A    between atoms: N1_8  and  C8_9 
REMARK       I    between atoms: N1_8  and  C15_17 
REMARK    4  A    between atoms: C8_9  and  C9_10 
REMARK    5  A    between atoms: C12_13  and  O1_14 
REMARK       I    between atoms: C15_17  and  N2_19 
REMARK    6  A    between atoms: N2_19  and  C16_20 
REMARK    7  A    between atoms: C22_26  and  O3_27 
ROOT
HETATM    1  N1  UNL     1      25.013   2.945  51.478  1.00  0.00    -0.325 N 
HETATM    2  C15 UNL     1      26.096   2.084  51.824  1.00  0.00     0.323 C 
HETATM    3  O2  UNL     1      26.916   1.646  50.951  1.00  0.00    -0.247 OA
HETATM    4  N2  UNL     1      26.357   1.646  53.135  1.00  0.00    -0.309 N 
HETATM    5  H16 UNL     1      25.752   1.944  53.910  1.00  0.00     0.170 HD
ENDROOT
BRANCH   1   6
HETATM    6  C7  UNL     1      24.131   3.401  52.496  1.00  0.00     0.169 C 
BRANCH   6   7
HETATM    7  C6  UNL     1      22.745   2.868  52.412  1.00  0.00    -0.006 A 
HETATM    8  C5  UNL     1      22.662   1.531  52.797  1.00  0.00     0.012 A 
HETATM    9  C4  UNL     1      21.462   0.862  52.787  1.00  0.00     0.001 A 
HETATM   10  C3  UNL     1      20.303   1.528  52.384  1.00  0.00     0.009 A 
HETATM   11  C2  UNL     1      20.411   2.839  52.011  1.00  0.00    -0.028 A 
HETATM   12  C1  UNL     1      19.203   3.611  51.567  1.00  0.00     0.051 C 
HETATM   13  C22 UNL     1      21.604   3.534  52.013  1.00  0.00     0.079 A 
BRANCH  13  14
HETATM   14  O3  UNL     1      21.794   4.853  51.651  1.00  0.00    -0.360 OA
HETATM   15  H22 UNL     1      21.119   5.511  52.062  1.00  0.00     0.217 HD
ENDBRANCH  13  14
ENDBRANCH   6   7
ENDBRANCH   1   6
BRANCH   1  16
HETATM   16  C8  UNL     1      24.847   3.327  50.094  1.00  0.00     0.166 C 
BRANCH  16  17
HETATM   17  C9  UNL     1      25.548   4.590  49.740  1.00  0.00    -0.040 A 
HETATM   18  C10 UNL     1      25.107   5.855  50.075  1.00  0.00     0.011 A 
HETATM   19  C11 UNL     1      25.852   6.959  49.684  1.00  0.00     0.037 A 
HETATM   20  C12 UNL     1      27.020   6.809  48.969  1.00  0.00     0.065 A 
HETATM   21  C13 UNL     1      27.489   5.548  48.615  1.00  0.00     0.037 A 
HETATM   22  C14 UNL     1      26.727   4.462  49.018  1.00  0.00     0.011 A 
BRANCH  20  23
HETATM   23  O1  UNL     1      27.698   7.967  48.621  1.00  0.00    -0.361 OA
HETATM   24  H13 UNL     1      27.582   8.848  49.071  1.00  0.00     0.217 HD
ENDBRANCH  20  23
ENDBRANCH  16  17
ENDBRANCH   1  16
BRANCH   4  25
HETATM   25  C16 UNL     1      27.497   0.785  53.259  1.00  0.00     0.036 A 
HETATM   26  C17 UNL     1      28.780   1.195  53.584  1.00  0.00     0.029 A 
HETATM   27  C18 UNL     1      29.800   0.264  53.672  1.00  0.00     0.002 A 
HETATM   28  C19 UNL     1      29.585  -1.100  53.445  1.00  0.00     0.000 A 
HETATM   29  C20 UNL     1      28.293  -1.515  53.118  1.00  0.00     0.002 A 
HETATM   30  C21 UNL     1      27.285  -0.566  53.034  1.00  0.00     0.029 A 
ENDBRANCH   4  25
TORSDOF 7
ENDMDL
MODEL 5
REMARK VINA RESULT:      -8.1      1.800      5.815
REMARK  7 active torsions:
REMARK  status: ('A' for Active; 'I' for Inactive)
REMARK    1  A    between atoms: C6_6  and  C7_7 
REMARK    2  A    between atoms: C7_7  and  N1_8 
REMARK    3  A    between atoms: N1_8  and  C8_9 
REMARK       I    between atoms: N1_8  and  C15_17 
REMARK    4  A    between atoms: C8_9  and  C9_10 
REMARK    5  A    between atoms: C12_13  and  O1_14 
REMARK       I    between atoms: C15_17  and  N2_19 
REMARK    6  A    between atoms: N2_19  and  C16_20 
REMARK    7  A    between atoms: C22_26  and  O3_27 
ROOT
HETATM    1  N1  UNL     1      25.214   2.427  51.157  1.00  0.00    -0.325 N 
HETATM    2  C15 UNL     1      23.809   2.193  51.089  1.00  0.00     0.323 C 
HETATM    3  O2  UNL     1      23.176   2.198  49.982  1.00  0.00    -0.247 OA
HETATM    4  N2  UNL     1      23.005   1.940  52.215  1.00  0.00    -0.309 N 
HETATM    5  H16 UNL     1      23.422   1.916  53.154  1.00  0.00     0.170 HD
ENDROOT
BRANCH   1   6
HETATM    6  C7  UNL     1      25.866   2.409  52.420  1.00  0.00     0.169 C 
BRANCH   6   7
HETATM    7  C6  UNL     1      26.695   1.203  52.682  1.00  0.00    -0.006 A 
HETATM    8  C5  UNL     1      25.974   0.018  52.547  1.00  0.00     0.012 A 
HETATM    9  C4  UNL     1      26.571  -1.204  52.750  1.00  0.00     0.001 A 
HETATM   10  C3  UNL     1      27.921  -1.264  53.096  1.00  0.00     0.009 A 
HETATM   11  C2  UNL     1      28.607  -0.087  53.222  1.00  0.00    -0.028 A 
HETATM   12  C1  UNL     1      30.061  -0.084  53.592  1.00  0.00     0.051 C 
HETATM   13  C22 UNL     1      28.032   1.152  53.024  1.00  0.00     0.079 A 
BRANCH  13  14
HETATM   14  O3  UNL     1      28.654   2.380  53.132  1.00  0.00    -0.360 OA
HETATM   15  H22 UNL     1      29.668   2.332  53.298  1.00  0.00     0.217 HD
ENDBRANCH  13  14
ENDBRANCH   6   7
ENDBRANCH   1   6
BRANCH   1  16
HETATM   16  C8  UNL     1      25.934   2.676  49.928  1.00  0.00     0.166 C 
BRANCH  16  17
HETATM   17  C9  UNL     1      26.150   4.121  49.650  1.00  0.00    -0.040 A 
HETATM   18  C10 UNL     1      25.336   5.140  50.104  1.00  0.00     0.011 A 
HETATM   19  C11 UNL     1      25.645   6.452  49.775  1.00  0.00     0.037 A 
HETATM   20  C12 UNL     1      26.748   6.750  49.004  1.00  0.00     0.065 A 
HETATM   21  C13 UNL     1      27.586   5.746  48.532  1.00  0.00     0.037 A 
HETATM   22  C14 UNL     1      27.256   4.444  48.874  1.00  0.00     0.011 A 
BRANCH  20  23
HETATM   23  O1  UNL     1      26.978   8.088  48.725  1.00  0.00    -0.361 OA
HETATM   24  H13 UNL     1      26.363   8.832  48.970  1.00  0.00     0.217 HD
ENDBRANCH  20  23
ENDBRANCH  16  17
ENDBRANCH   1  16
BRANCH   4  25
HETATM   25  C16 UNL     1      21.617   1.732  51.921  1.00  0.00     0.036 A 
HETATM   26  C17 UNL     1      21.055   0.535  51.511  1.00  0.00     0.029 A 
HETATM   27  C18 UNL     1      19.695   0.462  51.256  1.00  0.00     0.002 A 
HETATM   28  C19 UNL     1      18.851   1.569  51.400  1.00  0.00     0.000 A 
HETATM   29  C20 UNL     1      19.416   2.776  51.813  1.00  0.00     0.002 A 
HETATM   30  C21 UNL     1      20.779   2.828  52.063  1.00  0.00     0.029 A 
ENDBRANCH   4  25
TORSDOF 7
ENDMDL
MODEL 6
REMARK VINA RESULT:      -8.1      2.048      6.335
REMARK  7 active torsions:
REMARK  status: ('A' for Active; 'I' for Inactive)
REMARK    1  A    between atoms: C6_6  and  C7_7 
REMARK    2  A    between atoms: C7_7  and  N1_8 
REMARK    3  A    between atoms: N1_8  and  C8_9 
REMARK       I    between atoms: N1_8  and  C15_17 
REMARK    4  A    between atoms: C8_9  and  C9_10 
REMARK    5  A    between atoms: C12_13  and  O1_14 
REMARK       I    between atoms: C15_17  and  N2_19 
REMARK    6  A    between atoms: N2_19  and  C16_20 
REMARK    7  A    between atoms: C22_26  and  O3_27 
ROOT
HETATM    1  N1  UNL     1      24.897   2.803  51.829  1.00  0.00    -0.325 N 
HETATM    2  C15 UNL     1      24.653   4.077  51.237  1.00  0.00     0.323 C 
HETATM    3  O2  UNL     1      25.168   4.412  50.119  1.00  0.00    -0.247 OA
HETATM    4  N2  UNL     1      23.839   5.065  51.819  1.00  0.00    -0.309 N 
HETATM    5  H16 UNL     1      23.379   4.891  52.722  1.00  0.00     0.170 HD
ENDROOT
BRANCH   1   6
HETATM    6  C7  UNL     1      24.295   2.485  53.077  1.00  0.00     0.169 C 
BRANCH   6   7
HETATM    7  C6  UNL     1      23.164   1.523  53.003  1.00  0.00    -0.006 A 
HETATM    8  C5  UNL     1      23.519   0.246  53.436  1.00  0.00     0.012 A 
HETATM    9  C4  UNL     1      22.606  -0.781  53.441  1.00  0.00     0.001 A 
HETATM   10  C3  UNL     1      21.300  -0.547  53.007  1.00  0.00     0.009 A 
HETATM   11  C2  UNL     1      20.977   0.714  52.588  1.00  0.00    -0.028 A 
HETATM   12  C1  UNL     1      19.590   1.030  52.109  1.00  0.00     0.051 C 
HETATM   13  C22 UNL     1      21.874   1.762  52.573  1.00  0.00     0.079 A 
BRANCH  13  14
HETATM   14  O3  UNL     1      21.626   3.058  52.165  1.00  0.00    -0.360 OA
HETATM   15  H22 UNL     1      22.441   3.684  52.208  1.00  0.00     0.217 HD
ENDBRANCH  13  14
ENDBRANCH   6   7
ENDBRANCH   1   6
BRANCH   1  16
HETATM   16  C8  UNL     1      25.753   1.869  51.133  1.00  0.00     0.166 C 
BRANCH  16  17
HETATM   17  C9  UNL     1      26.738   1.193  52.020  1.00  0.00    -0.040 A 
HETATM   18  C10 UNL     1      27.698   1.844  52.769  1.00  0.00     0.011 A 
HETATM   19  C11 UNL     1      28.561   1.100  53.560  1.00  0.00     0.037 A 
HETATM   20  C12 UNL     1      28.474  -0.275  53.605  1.00  0.00     0.065 A 
HETATM   21  C13 UNL     1      27.519  -0.959  52.861  1.00  0.00     0.037 A 
HETATM   22  C14 UNL     1      26.668  -0.192  52.081  1.00  0.00     0.011 A 
BRANCH  20  23
HETATM   23  O1  UNL     1      29.378  -0.936  54.421  1.00  0.00    -0.361 OA
HETATM   24  H13 UNL     1      29.136  -1.431  55.251  1.00  0.00     0.217 HD
ENDBRANCH  20  23
ENDBRANCH  16  17
ENDBRANCH   1  16
BRANCH   4  25
HETATM   25  C16 UNL     1      23.730   6.274  51.055  1.00  0.00     0.036 A 
HETATM   26  C17 UNL     1      24.724   7.229  50.921  1.00  0.00     0.029 A 
HETATM   27  C18 UNL     1      24.496   8.359  50.153  1.00  0.00     0.002 A 
HETATM   28  C19 UNL     1      23.281   8.578  49.494  1.00  0.00     0.000 A 
HETATM   29  C20 UNL     1      22.278   7.616  49.628  1.00  0.00     0.002 A 
HETATM   30  C21 UNL     1      22.527   6.492  50.402  1.00  0.00     0.029 A 
ENDBRANCH   4  25
TORSDOF 7
ENDMDL
MODEL 7
REMARK VINA RESULT:      -8.1      2.349      6.214
REMARK  7 active torsions:
REMARK  status: ('A' for Active; 'I' for Inactive)
REMARK    1  A    between atoms: C6_6  and  C7_7 
REMARK    2  A    between atoms: C7_7  and  N1_8 
REMARK    3  A    between atoms: N1_8  and  C8_9 
REMARK       I    between atoms: N1_8  and  C15_17 
REMARK    4  A    between atoms: C8_9  and  C9_10 
REMARK    5  A    between atoms: C12_13  and  O1_14 
REMARK       I    between atoms: C15_17  and  N2_19 
REMARK    6  A    between atoms: N2_19  and  C16_20 
REMARK    7  A    between atoms: C22_26  and  O3_27 
ROOT
HETATM    1  N1  UNL     1      23.215   2.377  50.983  1.00  0.00    -0.325 N 
HETATM    2  C15 UNL     1      24.102   3.229  50.261  1.00  0.00     0.323 C 
HETATM    3  O2  UNL     1      24.172   3.208  48.988  1.00  0.00    -0.247 OA
HETATM    4  N2  UNL     1      24.967   4.154  50.874  1.00  0.00    -0.309 N 
HETATM    5  H16 UNL     1      24.986   4.246  51.897  1.00  0.00     0.170 HD
ENDROOT
BRANCH   1   6
HETATM    6  C7  UNL     1      23.181   2.446  52.403  1.00  0.00     0.169 C 
BRANCH   6   7
HETATM    7  C6  UNL     1      23.984   1.407  53.102  1.00  0.00    -0.006 A 
HETATM    8  C5  UNL     1      23.235   0.274  53.414  1.00  0.00     0.012 A 
HETATM    9  C4  UNL     1      23.804  -0.797  54.062  1.00  0.00     0.001 A 
HETATM   10  C3  UNL     1      25.154  -0.753  54.416  1.00  0.00     0.009 A 
HETATM   11  C2  UNL     1      25.866   0.370  54.098  1.00  0.00    -0.028 A 
HETATM   12  C1  UNL     1      27.321   0.480  54.450  1.00  0.00     0.051 C 
HETATM   13  C22 UNL     1      25.319   1.458  53.447  1.00  0.00     0.079 A 
BRANCH  13  14
HETATM   14  O3  UNL     1      25.970   2.624  53.093  1.00  0.00    -0.360 OA
HETATM   15  H22 UNL     1      26.408   3.124  53.878  1.00  0.00     0.217 HD
ENDBRANCH  13  14
ENDBRANCH   6   7
ENDBRANCH   1   6
BRANCH   1  16
HETATM   16  C8  UNL     1      22.373   1.467  50.241  1.00  0.00     0.166 C 
BRANCH  16  17
HETATM   17  C9  UNL     1      20.931   1.574  50.590  1.00  0.00    -0.040 A 
HETATM   18  C10 UNL     1      20.156   2.700  50.395  1.00  0.00     0.011 A 
HETATM   19  C11 UNL     1      18.819   2.675  50.763  1.00  0.00     0.037 A 
HETATM   20  C12 UNL     1      18.257   1.547  51.320  1.00  0.00     0.065 A 
HETATM   21  C13 UNL     1      19.012   0.397  51.531  1.00  0.00     0.037 A 
HETATM   22  C14 UNL     1      20.345   0.448  51.154  1.00  0.00     0.011 A 
BRANCH  20  23
HETATM   23  O1  UNL     1      16.915   1.613  51.659  1.00  0.00    -0.361 OA
HETATM   24  H13 UNL     1      16.569   1.870  52.557  1.00  0.00     0.217 HD
ENDBRANCH  20  23
ENDBRANCH  16  17
ENDBRANCH   1  16
BRANCH   4  25
HETATM   25  C16 UNL     1      25.774   4.910  49.961  1.00  0.00     0.036 A 
HETATM   26  C17 UNL     1      25.507   6.200  49.534  1.00  0.00     0.029 A 
HETATM   27  C18 UNL     1      26.367   6.824  48.645  1.00  0.00     0.002 A 
HETATM   28  C19 UNL     1      27.515   6.195  48.154  1.00  0.00     0.000 A 
HETATM   29  C20 UNL     1      27.786   4.894  48.583  1.00  0.00     0.002 A 
HETATM   30  C21 UNL     1      26.912   4.287  49.472  1.00  0.00     0.029 A 
ENDBRANCH   4  25
TORSDOF 7
ENDMDL
MODEL 8
REMARK VINA RESULT:      -8.0      2.366      6.243
REMARK  7 active torsions:
REMARK  status: ('A' for Active; 'I' for Inactive)
REMARK    1  A    between atoms: C6_6  and  C7_7 
REMARK    2  A    between atoms: C7_7  and  N1_8 
REMARK    3  A    between atoms: N1_8  and  C8_9 
REMARK       I    between atoms: N1_8  and  C15_17 
REMARK    4  A    between atoms: C8_9  and  C9_10 
REMARK    5  A    between atoms: C12_13  and  O1_14 
REMARK       I    between atoms: C15_17  and  N2_19 
REMARK    6  A    between atoms: N2_19  and  C16_20 
REMARK    7  A    between atoms: C22_26  and  O3_27 
ROOT
HETATM    1  N1  UNL     1      24.258   2.128  52.504  1.00  0.00    -0.325 N 
HETATM    2  C15 UNL     1      23.789   3.184  51.668  1.00  0.00     0.323 C 
HETATM    3  O2  UNL     1      23.988   4.411  51.952  1.00  0.00    -0.247 OA
HETATM    4  N2  UNL     1      23.076   2.975  50.473  1.00  0.00    -0.309 N 
HETATM    5  H16 UNL     1      22.865   2.020  50.157  1.00  0.00     0.170 HD
ENDROOT
BRANCH   1   6
HETATM    6  C7  UNL     1      24.006   0.779  52.134  1.00  0.00     0.169 C 
BRANCH   6   7
HETATM    7  C6  UNL     1      22.883   0.128  52.860  1.00  0.00    -0.006 A 
HETATM    8  C5  UNL     1      23.312  -0.588  53.977  1.00  0.00     0.012 A 
HETATM    9  C4  UNL     1      22.418  -1.259  54.776  1.00  0.00     0.001 A 
HETATM   10  C3  UNL     1      21.057  -1.227  54.469  1.00  0.00     0.009 A 
HETATM   11  C2  UNL     1      20.662  -0.518  53.368  1.00  0.00    -0.028 A 
HETATM   12  C1  UNL     1      19.213  -0.445  52.984  1.00  0.00     0.051 C 
HETATM   13  C22 UNL     1      21.539   0.165  52.550  1.00  0.00     0.079 A 
BRANCH  13  14
HETATM   14  O3  UNL     1      21.219   0.900  51.425  1.00  0.00    -0.360 OA
HETATM   15  H22 UNL     1      20.466   1.586  51.563  1.00  0.00     0.217 HD
ENDBRANCH  13  14
ENDBRANCH   6   7
ENDBRANCH   1   6
BRANCH   1  16
HETATM   16  C8  UNL     1      24.980   2.469  53.709  1.00  0.00     0.166 C 
BRANCH  16  17
HETATM   17  C9  UNL     1      26.277   1.754  53.846  1.00  0.00    -0.040 A 
HETATM   18  C10 UNL     1      26.494   0.672  54.676  1.00  0.00     0.011 A 
HETATM   19  C11 UNL     1      27.753   0.089  54.715  1.00  0.00     0.037 A 
HETATM   20  C12 UNL     1      28.784   0.575  53.941  1.00  0.00     0.065 A 
HETATM   21  C13 UNL     1      28.596   1.664  53.096  1.00  0.00     0.037 A 
HETATM   22  C14 UNL     1      27.330   2.227  53.075  1.00  0.00     0.011 A 
BRANCH  20  23
HETATM   23  O1  UNL     1      30.007  -0.068  54.045  1.00  0.00    -0.361 OA
HETATM   24  H13 UNL     1      30.172  -1.016  53.787  1.00  0.00     0.217 HD
ENDBRANCH  20  23
ENDBRANCH  16  17
ENDBRANCH   1  16
BRANCH   4  25
HETATM   25  C16 UNL     1      22.699   4.175  49.786  1.00  0.00     0.036 A 
HETATM   26  C17 UNL     1      21.564   4.924  50.046  1.00  0.00     0.029 A 
HETATM   27  C18 UNL     1      21.309   6.069  49.310  1.00  0.00     0.002 A 
HETATM   28  C19 UNL     1      22.168   6.509  48.297  1.00  0.00     0.000 A 
HETATM   29  C20 UNL     1      23.313   5.755  48.033  1.00  0.00     0.002 A 
HETATM   30  C21 UNL     1      23.549   4.612  48.782  1.00  0.00     0.029 A 
ENDBRANCH   4  25
TORSDOF 7
ENDMDL
MODEL 9
REMARK VINA RESULT:      -7.9      2.126      6.269
REMARK  7 active torsions:
REMARK  status: ('A' for Active; 'I' for Inactive)
REMARK    1  A    between atoms: C6_6  and  C7_7 
REMARK    2  A    between atoms: C7_7  and  N1_8 
REMARK    3  A    between atoms: N1_8  and  C8_9 
REMARK       I    between atoms: N1_8  and  C15_17 
REMARK    4  A    between atoms: C8_9  and  C9_10 
REMARK    5  A    between atoms: C12_13  and  O1_14 
REMARK       I    between atoms: C15_17  and  N2_19 
REMARK    6  A    between atoms: N2_19  and  C16_20 
REMARK    7  A    between atoms: C22_26  and  O3_27 
ROOT
HETATM    1  N1  UNL     1      25.575   3.431  50.743  1.00  0.00    -0.325 N 
HETATM    2  C15 UNL     1      25.905   4.629  50.042  1.00  0.00     0.323 C 
HETATM    3  O2  UNL     1      26.867   4.680  49.207  1.00  0.00    -0.247 OA
HETATM    4  N2  UNL     1      25.213   5.843  50.204  1.00  0.00    -0.309 N 
HETATM    5  H16 UNL     1      24.421   5.905  50.856  1.00  0.00     0.170 HD
ENDROOT
BRANCH   1   6
HETATM    6  C7  UNL     1      24.490   3.436  51.662  1.00  0.00     0.169 C 
BRANCH   6   7
HETATM    7  C6  UNL     1      23.463   2.386  51.428  1.00  0.00    -0.006 A 
HETATM    8  C5  UNL     1      22.858   2.500  50.178  1.00  0.00     0.012 A 
HETATM    9  C4  UNL     1      21.882   1.618  49.778  1.00  0.00     0.001 A 
HETATM   10  C3  UNL     1      21.487   0.590  50.635  1.00  0.00     0.009 A 
HETATM   11  C2  UNL     1      22.097   0.499  51.856  1.00  0.00    -0.028 A 
HETATM   12  C1  UNL     1      21.717  -0.584  52.823  1.00  0.00     0.051 C 
HETATM   13  C22 UNL     1      23.079   1.371  52.281  1.00  0.00     0.079 A 
BRANCH  13  14
HETATM   14  O3  UNL     1      23.739   1.346  53.494  1.00  0.00    -0.360 OA
HETATM   15  H22 UNL     1      23.195   1.716  54.284  1.00  0.00     0.217 HD
ENDBRANCH  13  14
ENDBRANCH   6   7
ENDBRANCH   1   6
BRANCH   1  16
HETATM   16  C8  UNL     1      26.360   2.244  50.492  1.00  0.00     0.166 C 
BRANCH  16  17
HETATM   17  C9  UNL     1      26.897   1.616  51.728  1.00  0.00    -0.040 A 
HETATM   18  C10 UNL     1      27.662   2.269  52.674  1.00  0.00     0.011 A 
HETATM   19  C11 UNL     1      28.105   1.571  53.788  1.00  0.00     0.037 A 
HETATM   20  C12 UNL     1      27.794   0.240  53.961  1.00  0.00     0.065 A 
HETATM   21  C13 UNL     1      27.027  -0.446  53.026  1.00  0.00     0.037 A 
HETATM   22  C14 UNL     1      26.596   0.274  51.922  1.00  0.00     0.011 A 
BRANCH  20  23
HETATM   23  O1  UNL     1      28.280  -0.377  55.103  1.00  0.00    -0.361 OA
HETATM   24  H13 UNL     1      28.576  -1.327  55.152  1.00  0.00     0.217 HD
ENDBRANCH  20  23
ENDBRANCH  16  17
ENDBRANCH   1  16
BRANCH   4  25
HETATM   25  C16 UNL     1      25.710   6.923  49.403  1.00  0.00     0.036 A 
HETATM   26  C17 UNL     1      26.587   7.904  49.835  1.00  0.00     0.029 A 
HETATM   27  C18 UNL     1      26.994   8.899  48.962  1.00  0.00     0.002 A 
HETATM   28  C19 UNL     1      26.549   8.954  47.636  1.00  0.00     0.000 A 
HETATM   29  C20 UNL     1      25.665   7.966  47.199  1.00  0.00     0.002 A 
HETATM   30  C21 UNL     1      25.269   6.979  48.089  1.00  0.00     0.029 A 
ENDBRANCH   4  25
TORSDOF 7
ENDMDL
