MODEL 1
REMARK VINA RESULT:      -7.2      0.000      0.000
REMARK  5 active torsions:
REMARK  status: ('A' for Active; 'I' for Inactive)
REMARK    1  A    between atoms: C2_2  and  C3_3 
REMARK    2  A    between atoms: C2_2  and  N1_5 
REMARK    3  A    between atoms: N1_5  and  C4_6 
REMARK    4  A    between atoms: C9_11  and  C10_12 
REMARK    5  A    between atoms: C10_12  and  N2_13 
ROOT
HETATM    1  C4  UNL     1      24.798   2.332  52.029  1.00  0.00     0.036 A 
HETATM    2  C5  UNL     1      23.542   2.611  52.522  1.00  0.00     0.030 A 
HETATM    3  C6  UNL     1      22.708   1.651  53.093  1.00  0.00     0.002 A 
HETATM    4  C7  UNL     1      23.183   0.341  53.164  1.00  0.00     0.001 A 
HETATM    5  C8  UNL     1      24.445   0.008  52.680  1.00  0.00     0.011 A 
HETATM    6  C9  UNL     1      25.213   1.013  52.127  1.00  0.00    -0.013 A 
ENDROOT
BRANCH   6   7
HETATM    7  C10 UNL     1      26.555   0.628  51.619  1.00  0.00     0.172 C 
BRANCH   7   8
HETATM    8  N2  UNL     1      27.489   0.305  52.670  1.00  0.00    -0.315 N 
HETATM    9  C11 UNL     1      27.842  -0.891  53.172  1.00  0.00     0.204 A 
HETATM   10 CL1  UNL     1      27.191  -2.418  52.610  1.00  0.00    -0.043 Cl
HETATM   11  N3  UNL     1      28.764  -0.686  54.156  1.00  0.00    -0.218 NA
HETATM   12  C12 UNL     1      28.989   0.647  54.272  1.00  0.00     0.087 A 
HETATM   13  C13 UNL     1      28.184   1.274  53.333  1.00  0.00     0.066 A 
HETATM   14  C15 UNL     1      29.487   1.820  54.701  1.00  0.00     0.036 A 
HETATM   15  C14 UNL     1      28.640   2.474  53.715  1.00  0.00     0.034 A 
ENDBRANCH   7   8
ENDBRANCH   6   7
BRANCH   1  16
HETATM   16  N1  UNL     1      25.613   3.353  51.453  1.00  0.00    -0.379 N 
HETATM   17  H6  UNL     1      26.374   3.744  52.070  1.00  0.00     0.160 HD
BRANCH  16  18
HETATM   18  C2  UNL     1      25.396   3.816  50.097  1.00  0.00     0.139 C 
HETATM   19  C1  UNL     1      26.740   3.819  49.397  1.00  0.00     0.039 C 
BRANCH  18  20
HETATM   20  C3  UNL     1      24.991   5.262  50.250  1.00  0.00     0.255 C 
HETATM   21  O1  UNL     1      25.617   6.324  50.195  1.00  0.00    -0.305 OA
ENDBRANCH  18  20
ENDBRANCH  16  18
ENDBRANCH   1  16
TORSDOF 5
ENDMDL
MODEL 2
REMARK VINA RESULT:      -7.0      2.918      4.505
REMARK  5 active torsions:
REMARK  status: ('A' for Active; 'I' for Inactive)
REMARK    1  A    between atoms: C2_2  and  C3_3 
REMARK    2  A    between atoms: C2_2  and  N1_5 
REMARK    3  A    between atoms: N1_5  and  C4_6 
REMARK    4  A    between atoms: C9_11  and  C10_12 
REMARK    5  A    between atoms: C10_12  and  N2_13 
ROOT
HETATM    1  C4  UNL     1      24.576   1.669  52.380  1.00  0.00     0.036 A 
HETATM    2  C5  UNL     1      24.089   2.090  51.162  1.00  0.00     0.030 A 
HETATM    3  C6  UNL     1      24.871   2.721  50.196  1.00  0.00     0.002 A 
HETATM    4  C7  UNL     1      26.218   2.931  50.491  1.00  0.00     0.001 A 
HETATM    5  C8  UNL     1      26.759   2.525  51.708  1.00  0.00     0.011 A 
HETATM    6  C9  UNL     1      25.921   1.906  52.614  1.00  0.00    -0.013 A 
ENDROOT
BRANCH   6   7
HETATM    7  C10 UNL     1      26.526   1.483  53.904  1.00  0.00     0.172 C 
BRANCH   7   8
HETATM    8  N2  UNL     1      27.612   0.546  53.742  1.00  0.00    -0.315 N 
HETATM    9  C11 UNL     1      28.920   0.689  54.011  1.00  0.00     0.204 A 
HETATM   10 CL1  UNL     1      29.630   2.153  54.663  1.00  0.00    -0.043 Cl
HETATM   11  N3  UNL     1      29.553  -0.476  53.692  1.00  0.00    -0.218 NA
HETATM   12  C12 UNL     1      28.634  -1.355  53.219  1.00  0.00     0.087 A 
HETATM   13  C13 UNL     1      27.406  -0.710  53.251  1.00  0.00     0.066 A 
HETATM   14  C15 UNL     1      28.086  -2.477  52.720  1.00  0.00     0.036 A 
HETATM   15  C14 UNL     1      26.800  -1.796  52.753  1.00  0.00     0.034 A 
ENDBRANCH   7   8
ENDBRANCH   6   7
BRANCH   1  16
HETATM   16  N1  UNL     1      23.731   1.026  53.335  1.00  0.00    -0.379 N 
HETATM   17  H6  UNL     1      23.386   1.626  54.130  1.00  0.00     0.160 HD
BRANCH  16  18
HETATM   18  C2  UNL     1      23.376  -0.374  53.206  1.00  0.00     0.139 C 
HETATM   19  C1  UNL     1      21.913  -0.437  52.816  1.00  0.00     0.039 C 
BRANCH  18  20
HETATM   20  C3  UNL     1      23.468  -0.919  54.611  1.00  0.00     0.255 C 
HETATM   21  O1  UNL     1      22.624  -1.327  55.414  1.00  0.00    -0.305 OA
ENDBRANCH  18  20
ENDBRANCH  16  18
ENDBRANCH   1  16
TORSDOF 5
ENDMDL
MODEL 3
REMARK VINA RESULT:      -6.9      3.862      6.632
REMARK  5 active torsions:
REMARK  status: ('A' for Active; 'I' for Inactive)
REMARK    1  A    between atoms: C2_2  and  C3_3 
REMARK    2  A    between atoms: C2_2  and  N1_5 
REMARK    3  A    between atoms: N1_5  and  C4_6 
REMARK    4  A    between atoms: C9_11  and  C10_12 
REMARK    5  A    between atoms: C10_12  and  N2_13 
ROOT
HETATM    1  C4  UNL     1      24.245   0.203  53.243  1.00  0.00     0.036 A 
HETATM    2  C5  UNL     1      25.124  -0.842  53.424  1.00  0.00     0.030 A 
HETATM    3  C6  UNL     1      26.377  -0.910  52.817  1.00  0.00     0.002 A 
HETATM    4  C7  UNL     1      26.749   0.144  51.983  1.00  0.00     0.001 A 
HETATM    5  C8  UNL     1      25.897   1.224  51.766  1.00  0.00     0.011 A 
HETATM    6  C9  UNL     1      24.672   1.220  52.402  1.00  0.00    -0.013 A 
ENDROOT
BRANCH   6   7
HETATM    7  C10 UNL     1      23.785   2.385  52.153  1.00  0.00     0.172 C 
BRANCH   7   8
HETATM    8  N2  UNL     1      23.432   2.544  50.763  1.00  0.00    -0.315 N 
HETATM    9  C11 UNL     1      23.903   3.407  49.848  1.00  0.00     0.204 A 
HETATM   10 CL1  UNL     1      25.138   4.606  50.179  1.00  0.00    -0.043 Cl
HETATM   11  N3  UNL     1      23.261   3.173  48.667  1.00  0.00    -0.218 NA
HETATM   12  C12 UNL     1      22.380   2.156  48.846  1.00  0.00     0.087 A 
HETATM   13  C13 UNL     1      22.487   1.758  50.170  1.00  0.00     0.066 A 
HETATM   14  C15 UNL     1      21.433   1.235  48.595  1.00  0.00     0.036 A 
HETATM   15  C14 UNL     1      21.548   0.821  49.985  1.00  0.00     0.034 A 
ENDBRANCH   7   8
ENDBRANCH   6   7
BRANCH   1  16
HETATM   16  N1  UNL     1      22.972   0.224  53.890  1.00  0.00    -0.379 N 
HETATM   17  H6  UNL     1      22.887   0.859  54.727  1.00  0.00     0.160 HD
BRANCH  16  18
HETATM   18  C2  UNL     1      21.869  -0.585  53.410  1.00  0.00     0.139 C 
HETATM   19  C1  UNL     1      20.621   0.272  53.461  1.00  0.00     0.039 C 
BRANCH  18  20
HETATM   20  C3  UNL     1      21.698  -1.653  54.463  1.00  0.00     0.255 C 
HETATM   21  O1  UNL     1      22.342  -1.955  55.471  1.00  0.00    -0.305 OA
ENDBRANCH  18  20
ENDBRANCH  16  18
ENDBRANCH   1  16
TORSDOF 5
ENDMDL
MODEL 4
REMARK VINA RESULT:      -6.8      2.517      3.492
REMARK  5 active torsions:
REMARK  status: ('A' for Active; 'I' for Inactive)
REMARK    1  A    between atoms: C2_2  and  C3_3 
REMARK    2  A    between atoms: C2_2  and  N1_5 
REMARK    3  A    between atoms: N1_5  and  C4_6 
REMARK    4  A    between atoms: C9_11  and  C10_12 
REMARK    5  A    between atoms: C10_12  and  N2_13 
ROOT
HETATM    1  C4  UNL     1      23.440   2.895  49.925  1.00  0.00     0.036 A 
HETATM    2  C5  UNL     1      23.083   2.774  48.600  1.00  0.00     0.030 A 
HETATM    3  C6  UNL     1      22.140   1.859  48.136  1.00  0.00     0.002 A 
HETATM    4  C7  UNL     1      21.529   1.027  49.074  1.00  0.00     0.001 A 
HETATM    5  C8  UNL     1      21.854   1.110  50.426  1.00  0.00     0.011 A 
HETATM    6  C9  UNL     1      22.799   2.041  50.809  1.00  0.00    -0.013 A 
ENDROOT
BRANCH   6   7
HETATM    7  C10 UNL     1      23.125   2.107  52.257  1.00  0.00     0.172 C 
BRANCH   7   8
HETATM    8  N2  UNL     1      23.910   0.986  52.715  1.00  0.00    -0.315 N 
HETATM    9  C11 UNL     1      23.572  -0.029  53.527  1.00  0.00     0.204 A 
HETATM   10 CL1  UNL     1      21.986  -0.216  54.250  1.00  0.00    -0.043 Cl
HETATM   11  N3  UNL     1      24.656  -0.845  53.667  1.00  0.00    -0.218 NA
HETATM   12  C12 UNL     1      25.681  -0.336  52.938  1.00  0.00     0.087 A 
HETATM   13  C13 UNL     1      25.210   0.822  52.335  1.00  0.00     0.066 A 
HETATM   14  C15 UNL     1      26.896  -0.190  52.381  1.00  0.00     0.036 A 
HETATM   15  C14 UNL     1      26.399   1.024  51.752  1.00  0.00     0.034 A 
ENDBRANCH   7   8
ENDBRANCH   6   7
BRANCH   1  16
HETATM   16  N1  UNL     1      24.413   3.850  50.348  1.00  0.00    -0.379 N 
HETATM   17  H6  UNL     1      24.480   4.018  51.387  1.00  0.00     0.160 HD
BRANCH  16  18
HETATM   18  C2  UNL     1      25.255   4.542  49.393  1.00  0.00     0.139 C 
HETATM   19  C1  UNL     1      26.611   3.867  49.410  1.00  0.00     0.039 C 
BRANCH  18  20
HETATM   20  C3  UNL     1      25.454   5.915  49.988  1.00  0.00     0.255 C 
HETATM   21  O1  UNL     1      24.799   6.592  50.786  1.00  0.00    -0.305 OA
ENDBRANCH  18  20
ENDBRANCH  16  18
ENDBRANCH   1  16
TORSDOF 5
ENDMDL
MODEL 5
REMARK VINA RESULT:      -6.8      2.857      5.232
REMARK  5 active torsions:
REMARK  status: ('A' for Active; 'I' for Inactive)
REMARK    1  A    between atoms: C2_2  and  C3_3 
REMARK    2  A    between atoms: C2_2  and  N1_5 
REMARK    3  A    between atoms: N1_5  and  C4_6 
REMARK    4  A    between atoms: C9_11  and  C10_12 
REMARK    5  A    between atoms: C10_12  and  N2_13 
ROOT
HETATM    1  C4  UNL     1      25.756   1.802  52.074  1.00  0.00     0.036 A 
HETATM    2  C5  UNL     1      26.890   1.027  51.955  1.00  0.00     0.030 A 
HETATM    3  C6  UNL     1      26.978  -0.286  52.414  1.00  0.00     0.002 A 
HETATM    4  C7  UNL     1      25.850  -0.835  53.023  1.00  0.00     0.001 A 
HETATM    5  C8  UNL     1      24.680  -0.095  53.169  1.00  0.00     0.011 A 
HETATM    6  C9  UNL     1      24.669   1.200  52.690  1.00  0.00    -0.013 A 
ENDROOT
BRANCH   6   7
HETATM    7  C10 UNL     1      23.407   1.965  52.858  1.00  0.00     0.172 C 
BRANCH   7   8
HETATM    8  N2  UNL     1      22.281   1.360  52.188  1.00  0.00    -0.315 N 
HETATM    9  C11 UNL     1      21.253   0.659  52.694  1.00  0.00     0.204 A 
HETATM   10 CL1  UNL     1      21.052   0.311  54.399  1.00  0.00    -0.043 Cl
HETATM   11  N3  UNL     1      20.436   0.293  51.664  1.00  0.00    -0.218 NA
HETATM   12  C12 UNL     1      20.958   0.768  50.505  1.00  0.00     0.087 A 
HETATM   13  C13 UNL     1      22.125   1.443  50.835  1.00  0.00     0.066 A 
HETATM   14  C15 UNL     1      21.115   1.037  49.197  1.00  0.00     0.036 A 
HETATM   15  C14 UNL     1      22.338   1.743  49.547  1.00  0.00     0.034 A 
ENDBRANCH   7   8
ENDBRANCH   6   7
BRANCH   1  16
HETATM   16  N1  UNL     1      25.718   3.143  51.587  1.00  0.00    -0.379 N 
HETATM   17  H6  UNL     1      25.923   3.900  52.292  1.00  0.00     0.160 HD
BRANCH  16  18
HETATM   18  C2  UNL     1      25.415   3.433  50.200  1.00  0.00     0.139 C 
HETATM   19  C1  UNL     1      26.709   3.843  49.528  1.00  0.00     0.039 C 
BRANCH  18  20
HETATM   20  C3  UNL     1      24.550   4.669  50.251  1.00  0.00     0.255 C 
HETATM   21  O1  UNL     1      23.541   4.966  50.897  1.00  0.00    -0.305 OA
ENDBRANCH  18  20
ENDBRANCH  16  18
ENDBRANCH   1  16
TORSDOF 5
ENDMDL
MODEL 6
REMARK VINA RESULT:      -6.7      2.931      5.279
REMARK  5 active torsions:
REMARK  status: ('A' for Active; 'I' for Inactive)
REMARK    1  A    between atoms: C2_2  and  C3_3 
REMARK    2  A    between atoms: C2_2  and  N1_5 
REMARK    3  A    between atoms: N1_5  and  C4_6 
REMARK    4  A    between atoms: C9_11  and  C10_12 
REMARK    5  A    between atoms: C10_12  and  N2_13 
ROOT
HETATM    1  C4  UNL     1      24.807   0.960  53.579  1.00  0.00     0.036 A 
HETATM    2  C5  UNL     1      24.441  -0.368  53.543  1.00  0.00     0.030 A 
HETATM    3  C6  UNL     1      23.229  -0.820  53.025  1.00  0.00     0.002 A 
HETATM    4  C7  UNL     1      22.347   0.133  52.517  1.00  0.00     0.001 A 
HETATM    5  C8  UNL     1      22.669   1.488  52.529  1.00  0.00     0.011 A 
HETATM    6  C9  UNL     1      23.888   1.859  53.060  1.00  0.00    -0.013 A 
ENDROOT
BRANCH   6   7
HETATM    7  C10 UNL     1      24.204   3.311  53.059  1.00  0.00     0.172 C 
BRANCH   7   8
HETATM    8  N2  UNL     1      24.348   3.861  51.733  1.00  0.00    -0.315 N 
HETATM    9  C11 UNL     1      23.560   4.724  51.068  1.00  0.00     0.204 A 
HETATM   10 CL1  UNL     1      22.087   5.409  51.726  1.00  0.00    -0.043 Cl
HETATM   11  N3  UNL     1      24.111   4.948  49.841  1.00  0.00    -0.218 NA
HETATM   12  C12 UNL     1      25.252   4.220  49.736  1.00  0.00     0.087 A 
HETATM   13  C13 UNL     1      25.402   3.533  50.932  1.00  0.00     0.066 A 
HETATM   14  C15 UNL     1      26.383   3.693  49.235  1.00  0.00     0.036 A 
HETATM   15  C14 UNL     1      26.536   2.973  50.490  1.00  0.00     0.034 A 
ENDBRANCH   7   8
ENDBRANCH   6   7
BRANCH   1  16
HETATM   16  N1  UNL     1      26.062   1.371  54.121  1.00  0.00    -0.379 N 
HETATM   17  H6  UNL     1      26.021   1.980  54.981  1.00  0.00     0.160 HD
BRANCH  16  18
HETATM   18  C2  UNL     1      27.315   0.964  53.515  1.00  0.00     0.139 C 
HETATM   19  C1  UNL     1      27.971  -0.030  54.451  1.00  0.00     0.039 C 
BRANCH  18  20
HETATM   20  C3  UNL     1      28.170   2.208  53.544  1.00  0.00     0.255 C 
HETATM   21  O1  UNL     1      29.080   2.588  54.285  1.00  0.00    -0.305 OA
ENDBRANCH  18  20
ENDBRANCH  16  18
ENDBRANCH   1  16
TORSDOF 5
ENDMDL
MODEL 7
REMARK VINA RESULT:      -6.6      2.502      3.788
REMARK  5 active torsions:
REMARK  status: ('A' for Active; 'I' for Inactive)
REMARK    1  A    between atoms: C2_2  and  C3_3 
REMARK    2  A    between atoms: C2_2  and  N1_5 
REMARK    3  A    between atoms: N1_5  and  C4_6 
REMARK    4  A    between atoms: C9_11  and  C10_12 
REMARK    5  A    between atoms: C10_12  and  N2_13 
ROOT
HETATM    1  C4  UNL     1      24.256   2.666  51.589  1.00  0.00     0.036 A 
HETATM    2  C5  UNL     1      24.052   3.087  50.292  1.00  0.00     0.030 A 
HETATM    3  C6  UNL     1      25.086   3.348  49.395  1.00  0.00     0.002 A 
HETATM    4  C7  UNL     1      26.394   3.170  49.845  1.00  0.00     0.001 A 
HETATM    5  C8  UNL     1      26.654   2.746  51.146  1.00  0.00     0.011 A 
HETATM    6  C9  UNL     1      25.578   2.508  51.977  1.00  0.00    -0.013 A 
ENDROOT
BRANCH   6   7
HETATM    7  C10 UNL     1      25.886   2.056  53.359  1.00  0.00     0.172 C 
BRANCH   7   8
HETATM    8  N2  UNL     1      26.499   0.751  53.407  1.00  0.00    -0.315 N 
HETATM    9  C11 UNL     1      25.935  -0.468  53.370  1.00  0.00     0.204 A 
HETATM   10 CL1  UNL     1      24.209  -0.743  53.245  1.00  0.00    -0.043 Cl
HETATM   11  N3  UNL     1      26.927  -1.401  53.445  1.00  0.00    -0.218 NA
HETATM   12  C12 UNL     1      28.121  -0.761  53.530  1.00  0.00     0.087 A 
HETATM   13  C13 UNL     1      27.851   0.599  53.506  1.00  0.00     0.066 A 
HETATM   14  C15 UNL     1      29.445  -0.547  53.625  1.00  0.00     0.036 A 
HETATM   15  C14 UNL     1      29.158   0.880  53.601  1.00  0.00     0.034 A 
ENDBRANCH   7   8
ENDBRANCH   6   7
BRANCH   1  16
HETATM   16  N1  UNL     1      23.161   2.412  52.468  1.00  0.00    -0.379 N 
HETATM   17  H6  UNL     1      23.402   2.285  53.487  1.00  0.00     0.160 HD
BRANCH  16  18
HETATM   18  C2  UNL     1      21.800   2.335  51.975  1.00  0.00     0.139 C 
HETATM   19  C1  UNL     1      21.116   3.641  52.323  1.00  0.00     0.039 C 
BRANCH  18  20
HETATM   20  C3  UNL     1      21.148   1.271  52.826  1.00  0.00     0.255 C 
HETATM   21  O1  UNL     1      20.935   0.068  52.655  1.00  0.00    -0.305 OA
ENDBRANCH  18  20
ENDBRANCH  16  18
ENDBRANCH   1  16
TORSDOF 5
ENDMDL
MODEL 8
REMARK VINA RESULT:      -6.6      3.204      5.835
REMARK  5 active torsions:
REMARK  status: ('A' for Active; 'I' for Inactive)
REMARK    1  A    between atoms: C2_2  and  C3_3 
REMARK    2  A    between atoms: C2_2  and  N1_5 
REMARK    3  A    between atoms: N1_5  and  C4_6 
REMARK    4  A    between atoms: C9_11  and  C10_12 
REMARK    5  A    between atoms: C10_12  and  N2_13 
ROOT
HETATM    1  C4  UNL     1      25.931   2.374  51.853  1.00  0.00     0.036 A 
HETATM    2  C5  UNL     1      26.720   2.488  50.728  1.00  0.00     0.030 A 
HETATM    3  C6  UNL     1      26.340   3.195  49.589  1.00  0.00     0.002 A 
HETATM    4  C7  UNL     1      25.093   3.819  49.601  1.00  0.00     0.001 A 
HETATM    5  C8  UNL     1      24.258   3.734  50.712  1.00  0.00     0.011 A 
HETATM    6  C9  UNL     1      24.703   3.015  51.803  1.00  0.00    -0.013 A 
ENDROOT
BRANCH   6   7
HETATM    7  C10 UNL     1      23.792   2.942  52.974  1.00  0.00     0.172 C 
BRANCH   7   8
HETATM    8  N2  UNL     1      22.725   1.984  52.807  1.00  0.00    -0.315 N 
HETATM    9  C11 UNL     1      21.466   2.164  52.374  1.00  0.00     0.204 A 
HETATM   10 CL1  UNL     1      20.812   3.714  51.886  1.00  0.00    -0.043 Cl
HETATM   11  N3  UNL     1      20.832   0.956  52.390  1.00  0.00    -0.218 NA
HETATM   12  C12 UNL     1      21.701   0.014  52.836  1.00  0.00     0.087 A 
HETATM   13  C13 UNL     1      22.898   0.664  53.100  1.00  0.00     0.066 A 
HETATM   14  C15 UNL     1      22.207  -1.174  53.211  1.00  0.00     0.036 A 
HETATM   15  C14 UNL     1      23.460  -0.489  53.488  1.00  0.00     0.034 A 
ENDBRANCH   7   8
ENDBRANCH   6   7
BRANCH   1  16
HETATM   16  N1  UNL     1      26.368   1.637  52.995  1.00  0.00    -0.379 N 
HETATM   17  H6  UNL     1      25.847   1.818  53.893  1.00  0.00     0.160 HD
BRANCH  16  18
HETATM   18  C2  UNL     1      27.466   0.694  52.909  1.00  0.00     0.139 C 
HETATM   19  C1  UNL     1      26.894  -0.630  52.447  1.00  0.00     0.039 C 
BRANCH  18  20
HETATM   20  C3  UNL     1      27.907   0.494  54.339  1.00  0.00     0.255 C 
HETATM   21  O1  UNL     1      28.704   1.091  55.067  1.00  0.00    -0.305 OA
ENDBRANCH  18  20
ENDBRANCH  16  18
ENDBRANCH   1  16
TORSDOF 5
ENDMDL
MODEL 9
REMARK VINA RESULT:      -6.5      3.579      6.319
REMARK  5 active torsions:
REMARK  status: ('A' for Active; 'I' for Inactive)
REMARK    1  A    between atoms: C2_2  and  C3_3 
REMARK    2  A    between atoms: C2_2  and  N1_5 
REMARK    3  A    between atoms: N1_5  and  C4_6 
REMARK    4  A    between atoms: C9_11  and  C10_12 
REMARK    5  A    between atoms: C10_12  and  N2_13 
ROOT
HETATM    1  C4  UNL     1      23.433  -0.206  53.380  1.00  0.00     0.036 A 
HETATM    2  C5  UNL     1      22.971  -0.916  54.466  1.00  0.00     0.030 A 
HETATM    3  C6  UNL     1      21.650  -0.877  54.908  1.00  0.00     0.002 A 
HETATM    4  C7  UNL     1      20.756  -0.072  54.203  1.00  0.00     0.001 A 
HETATM    5  C8  UNL     1      21.172   0.666  53.098  1.00  0.00     0.011 A 
HETATM    6  C9  UNL     1      22.497   0.577  52.721  1.00  0.00    -0.013 A 
ENDROOT
BRANCH   6   7
HETATM    7  C10 UNL     1      22.911   1.375  51.538  1.00  0.00     0.172 C 
BRANCH   7   8
HETATM    8  N2  UNL     1      22.729   2.795  51.718  1.00  0.00    -0.315 N 
HETATM    9  C11 UNL     1      23.401   3.658  52.497  1.00  0.00     0.204 A 
HETATM   10 CL1  UNL     1      24.739   3.203  53.532  1.00  0.00    -0.043 Cl
HETATM   11  N3  UNL     1      22.860   4.899  52.327  1.00  0.00    -0.218 NA
HETATM   12  C12 UNL     1      21.841   4.811  51.435  1.00  0.00     0.087 A 
HETATM   13  C13 UNL     1      21.757   3.481  51.050  1.00  0.00     0.066 A 
HETATM   14  C15 UNL     1      20.814   5.157  50.639  1.00  0.00     0.036 A 
HETATM   15  C14 UNL     1      20.728   3.761  50.238  1.00  0.00     0.034 A 
ENDBRANCH   7   8
ENDBRANCH   6   7
BRANCH   1  16
HETATM   16  N1  UNL     1      24.798  -0.281  52.968  1.00  0.00    -0.379 N 
HETATM   17  H6  UNL     1      25.021   0.122  52.019  1.00  0.00     0.160 HD
BRANCH  16  18
HETATM   18  C2  UNL     1      25.809  -0.880  53.816  1.00  0.00     0.139 C 
HETATM   19  C1  UNL     1      26.508   0.244  54.553  1.00  0.00     0.039 C 
BRANCH  18  20
HETATM   20  C3  UNL     1      26.821  -1.453  52.853  1.00  0.00     0.255 C 
HETATM   21  O1  UNL     1      27.425  -2.528  52.805  1.00  0.00    -0.305 OA
ENDBRANCH  18  20
ENDBRANCH  16  18
ENDBRANCH   1  16
TORSDOF 5
ENDMDL
