MODEL 1
REMARK VINA RESULT:      -8.2      0.000      0.000
REMARK  6 active torsions:
REMARK  status: ('A' for Active; 'I' for Inactive)
REMARK    1  A    between atoms: C2_2  and  C3_3 
REMARK    2  A    between atoms: C5_7  and  N3_8 
REMARK    3  A    between atoms: N3_8  and  C6_9 
REMARK    4  A    between atoms: C12_17  and  C13_18 
REMARK    5  A    between atoms: C13_18  and  C14_19 
REMARK    6  A    between atoms: C14_19  and  C15_20 
ROOT
HETATM    1  C3  UNL     1      23.499   2.627  50.417  1.00  0.00     0.067 A 
HETATM    2  N1  UNL     1      22.474   2.260  51.216  1.00  0.00    -0.241 NA
HETATM    3  C4  UNL     1      22.653   1.998  52.504  1.00  0.00     0.235 A 
HETATM    4  N2  UNL     1      23.850   2.083  53.084  1.00  0.00    -0.224 NA
HETATM    5  C5  UNL     1      24.917   2.439  52.372  1.00  0.00     0.141 A 
HETATM    6  C12 UNL     1      24.727   2.714  51.016  1.00  0.00     0.035 A 
ENDROOT
BRANCH   5   7
HETATM    7  N3  UNL     1      26.178   2.518  53.015  1.00  0.00    -0.340 N 
HETATM    8  H6  UNL     1      26.257   3.513  53.335  1.00  0.00     0.167 HD
BRANCH   7   9
HETATM    9  C6  UNL     1      27.166   1.515  53.218  1.00  0.00     0.035 A 
HETATM   10  C7  UNL     1      28.386   1.837  53.751  1.00  0.00     0.032 A 
HETATM   11  C8  UNL     1      29.290   0.801  53.913  1.00  0.00     0.046 A 
HETATM   12  C9  UNL     1      28.944  -0.484  53.543  1.00  0.00     0.138 A 
HETATM   13  F1  UNL     1      29.879  -1.446  53.730  1.00  0.00    -0.204 F 
HETATM   14  C10 UNL     1      27.697  -0.791  53.002  1.00  0.00     0.074 A 
HETATM   15 CL1  UNL     1      27.395  -2.454  52.577  1.00  0.00    -0.081 Cl
HETATM   16  C11 UNL     1      26.803   0.245  52.844  1.00  0.00     0.056 A 
ENDBRANCH   7   9
ENDBRANCH   5   7
BRANCH   6  17
HETATM   17  C13 UNL     1      25.748   3.131  50.262  1.00  0.00    -0.004 C 
BRANCH  17  18
HETATM   18  C14 UNL     1      26.811   3.359  49.325  1.00  0.00     0.069 C 
BRANCH  18  19
HETATM   19  C15 UNL     1      26.966   4.797  48.895  1.00  0.00    -0.018 A 
HETATM   20  C16 UNL     1      26.096   5.863  48.850  1.00  0.00     0.147 A 
HETATM   21  N4  UNL     1      26.771   6.917  48.373  1.00  0.00    -0.185 NA
HETATM   22  N5  UNL     1      28.036   6.560  48.113  1.00  0.00    -0.285 N 
HETATM   23  C17 UNL     1      29.064   7.445  47.581  1.00  0.00     0.179 C 
HETATM   24  C18 UNL     1      28.206   5.241  48.424  1.00  0.00     0.120 A 
ENDBRANCH  18  19
ENDBRANCH  17  18
ENDBRANCH   6  17
BRANCH   1  25
HETATM   25  C2  UNL     1      23.138   2.823  49.170  1.00  0.00     0.002 C 
HETATM   26  C1  UNL     1      22.446   2.166  48.046  1.00  0.00     0.038 C 
ENDBRANCH   1  25
TORSDOF 6
ENDMDL
MODEL 2
REMARK VINA RESULT:      -8.2      3.593      6.384
REMARK  6 active torsions:
REMARK  status: ('A' for Active; 'I' for Inactive)
REMARK    1  A    between atoms: C2_2  and  C3_3 
REMARK    2  A    between atoms: C5_7  and  N3_8 
REMARK    3  A    between atoms: N3_8  and  C6_9 
REMARK    4  A    between atoms: C12_17  and  C13_18 
REMARK    5  A    between atoms: C13_18  and  C14_19 
REMARK    6  A    between atoms: C14_19  and  C15_20 
ROOT
HETATM    1  C3  UNL     1      22.834   0.391  52.661  1.00  0.00     0.067 A 
HETATM    2  N1  UNL     1      21.833   0.035  51.827  1.00  0.00    -0.241 NA
HETATM    3  C4  UNL     1      21.441   0.821  50.833  1.00  0.00     0.235 A 
HETATM    4  N2  UNL     1      22.011   2.003  50.597  1.00  0.00    -0.224 NA
HETATM    5  C5  UNL     1      23.006   2.434  51.370  1.00  0.00     0.141 A 
HETATM    6  C12 UNL     1      23.418   1.605  52.417  1.00  0.00     0.035 A 
ENDROOT
BRANCH   5   7
HETATM    7  N3  UNL     1      23.591   3.696  51.098  1.00  0.00    -0.340 N 
HETATM    8  H6  UNL     1      22.980   4.390  51.590  1.00  0.00     0.167 HD
BRANCH   7   9
HETATM    9  C6  UNL     1      24.748   4.023  50.336  1.00  0.00     0.035 A 
HETATM   10  C7  UNL     1      25.722   3.086  50.115  1.00  0.00     0.032 A 
HETATM   11  C8  UNL     1      26.816   3.488  49.365  1.00  0.00     0.046 A 
HETATM   12  C9  UNL     1      26.886   4.780  48.882  1.00  0.00     0.138 A 
HETATM   13  F1  UNL     1      27.984   5.103  48.158  1.00  0.00    -0.204 F 
HETATM   14  C10 UNL     1      25.883   5.718  49.119  1.00  0.00     0.074 A 
HETATM   15 CL1  UNL     1      26.102   7.313  48.451  1.00  0.00    -0.081 Cl
HETATM   16  C11 UNL     1      24.799   5.310  49.865  1.00  0.00     0.056 A 
ENDBRANCH   7   9
ENDBRANCH   5   7
BRANCH   6  17
HETATM   17  C13 UNL     1      24.448   1.956  53.191  1.00  0.00    -0.004 C 
BRANCH  17  18
HETATM   18  C14 UNL     1      25.673   2.387  53.803  1.00  0.00     0.069 C 
BRANCH  18  19
HETATM   19  C15 UNL     1      26.631   1.269  54.135  1.00  0.00    -0.018 A 
HETATM   20  C16 UNL     1      26.550   0.182  54.976  1.00  0.00     0.147 A 
HETATM   21  N4  UNL     1      27.706  -0.488  54.885  1.00  0.00    -0.185 NA
HETATM   22  N5  UNL     1      28.518   0.134  54.017  1.00  0.00    -0.285 N 
HETATM   23  C17 UNL     1      29.860  -0.307  53.664  1.00  0.00     0.179 C 
HETATM   24  C18 UNL     1      27.887   1.239  53.523  1.00  0.00     0.120 A 
ENDBRANCH  18  19
ENDBRANCH  17  18
ENDBRANCH   6  17
BRANCH   1  25
HETATM   25  C2  UNL     1      23.068  -0.500  53.597  1.00  0.00     0.002 C 
HETATM   26  C1  UNL     1      22.469  -1.098  54.804  1.00  0.00     0.038 C 
ENDBRANCH   1  25
TORSDOF 6
ENDMDL
MODEL 3
REMARK VINA RESULT:      -8.1      4.512      5.933
REMARK  6 active torsions:
REMARK  status: ('A' for Active; 'I' for Inactive)
REMARK    1  A    between atoms: C2_2  and  C3_3 
REMARK    2  A    between atoms: C5_7  and  N3_8 
REMARK    3  A    between atoms: N3_8  and  C6_9 
REMARK    4  A    between atoms: C12_17  and  C13_18 
REMARK    5  A    between atoms: C13_18  and  C14_19 
REMARK    6  A    between atoms: C14_19  and  C15_20 
ROOT
HETATM    1  C3  UNL     1      21.784  -0.601  54.175  1.00  0.00     0.067 A 
HETATM    2  N1  UNL     1      22.107  -1.216  55.334  1.00  0.00    -0.241 NA
HETATM    3  C4  UNL     1      23.367  -1.468  55.663  1.00  0.00     0.235 A 
HETATM    4  N2  UNL     1      24.386  -1.129  54.874  1.00  0.00    -0.224 NA
HETATM    5  C5  UNL     1      24.161  -0.517  53.712  1.00  0.00     0.141 A 
HETATM    6  C12 UNL     1      22.833  -0.253  53.367  1.00  0.00     0.035 A 
ENDROOT
BRANCH   5   7
HETATM    7  N3  UNL     1      25.264  -0.170  52.893  1.00  0.00    -0.340 N 
HETATM    8  H6  UNL     1      24.841   0.249  52.031  1.00  0.00     0.167 HD
BRANCH   7   9
HETATM    9  C6  UNL     1      26.660  -0.326  53.123  1.00  0.00     0.035 A 
HETATM   10  C7  UNL     1      27.286  -1.507  52.825  1.00  0.00     0.032 A 
HETATM   11  C8  UNL     1      28.646  -1.575  53.083  1.00  0.00     0.046 A 
HETATM   12  C9  UNL     1      29.304  -0.484  53.616  1.00  0.00     0.138 A 
HETATM   13  F1  UNL     1      30.632  -0.623  53.842  1.00  0.00    -0.204 F 
HETATM   14  C10 UNL     1      28.647   0.709  53.912  1.00  0.00     0.074 A 
HETATM   15 CL1  UNL     1      29.602   2.004  54.583  1.00  0.00    -0.081 Cl
HETATM   16  C11 UNL     1      27.296   0.769  53.652  1.00  0.00     0.056 A 
ENDBRANCH   7   9
ENDBRANCH   5   7
BRANCH   6  17
HETATM   17  C13 UNL     1      22.547   0.409  52.242  1.00  0.00    -0.004 C 
BRANCH  17  18
HETATM   18  C14 UNL     1      22.168   1.308  51.191  1.00  0.00     0.069 C 
BRANCH  18  19
HETATM   19  C15 UNL     1      20.912   2.098  51.468  1.00  0.00    -0.018 A 
HETATM   20  C16 UNL     1      20.623   3.129  52.333  1.00  0.00     0.147 A 
HETATM   21  N4  UNL     1      19.334   3.451  52.164  1.00  0.00    -0.185 NA
HETATM   22  N5  UNL     1      18.794   2.663  51.223  1.00  0.00    -0.285 N 
HETATM   23  C17 UNL     1      17.410   2.725  50.772  1.00  0.00     0.179 C 
HETATM   24  C18 UNL     1      19.745   1.801  50.758  1.00  0.00     0.120 A 
ENDBRANCH  18  19
ENDBRANCH  17  18
ENDBRANCH   6  17
BRANCH   1  25
HETATM   25  C2  UNL     1      20.490  -0.456  54.009  1.00  0.00     0.002 C 
HETATM   26  C1  UNL     1      19.313  -1.130  53.432  1.00  0.00     0.038 C 
ENDBRANCH   1  25
TORSDOF 6
ENDMDL
MODEL 4
REMARK VINA RESULT:      -8.0      2.645      4.298
REMARK  6 active torsions:
REMARK  status: ('A' for Active; 'I' for Inactive)
REMARK    1  A    between atoms: C2_2  and  C3_3 
REMARK    2  A    between atoms: C5_7  and  N3_8 
REMARK    3  A    between atoms: N3_8  and  C6_9 
REMARK    4  A    between atoms: C12_17  and  C13_18 
REMARK    5  A    between atoms: C13_18  and  C14_19 
REMARK    6  A    between atoms: C14_19  and  C15_20 
ROOT
HETATM    1  C3  UNL     1      21.377  -0.438  53.853  1.00  0.00     0.067 A 
HETATM    2  N1  UNL     1      21.670  -1.074  55.008  1.00  0.00    -0.241 NA
HETATM    3  C4  UNL     1      22.921  -1.334  55.363  1.00  0.00     0.235 A 
HETATM    4  N2  UNL     1      23.960  -0.984  54.606  1.00  0.00    -0.224 NA
HETATM    5  C5  UNL     1      23.765  -0.352  53.449  1.00  0.00     0.141 A 
HETATM    6  C12 UNL     1      22.447  -0.079  53.076  1.00  0.00     0.035 A 
ENDROOT
BRANCH   5   7
HETATM    7  N3  UNL     1      24.888   0.006  52.663  1.00  0.00    -0.340 N 
HETATM    8  H6  UNL     1      24.487   0.417  51.787  1.00  0.00     0.167 HD
BRANCH   7   9
HETATM    9  C6  UNL     1      26.278  -0.132  52.937  1.00  0.00     0.035 A 
HETATM   10  C7  UNL     1      26.895  -1.348  52.810  1.00  0.00     0.032 A 
HETATM   11  C8  UNL     1      28.249  -1.395  53.098  1.00  0.00     0.046 A 
HETATM   12  C9  UNL     1      28.912  -0.249  53.493  1.00  0.00     0.138 A 
HETATM   13  F1  UNL     1      30.234  -0.370  53.758  1.00  0.00    -0.204 F 
HETATM   14  C10 UNL     1      28.265   0.979  53.616  1.00  0.00     0.074 A 
HETATM   15 CL1  UNL     1      29.224   2.342  54.124  1.00  0.00    -0.081 Cl
HETATM   16  C11 UNL     1      26.919   1.017  53.326  1.00  0.00     0.056 A 
ENDBRANCH   7   9
ENDBRANCH   5   7
BRANCH   6  17
HETATM   17  C13 UNL     1      22.189   0.601  51.956  1.00  0.00    -0.004 C 
BRANCH  17  18
HETATM   18  C14 UNL     1      22.166   1.346  50.730  1.00  0.00     0.069 C 
BRANCH  18  19
HETATM   19  C15 UNL     1      23.025   2.587  50.737  1.00  0.00    -0.018 A 
HETATM   20  C16 UNL     1      23.675   3.274  51.738  1.00  0.00     0.147 A 
HETATM   21  N4  UNL     1      24.292   4.320  51.176  1.00  0.00    -0.185 NA
HETATM   22  N5  UNL     1      24.058   4.325  49.856  1.00  0.00    -0.285 N 
HETATM   23  C17 UNL     1      24.569   5.315  48.918  1.00  0.00     0.179 C 
HETATM   24  C18 UNL     1      23.269   3.258  49.535  1.00  0.00     0.120 A 
ENDBRANCH  18  19
ENDBRANCH  17  18
ENDBRANCH   6  17
BRANCH   1  25
HETATM   25  C2  UNL     1      20.088  -0.288  53.658  1.00  0.00     0.002 C 
HETATM   26  C1  UNL     1      18.869  -1.048  53.326  1.00  0.00     0.038 C 
ENDBRANCH   1  25
TORSDOF 6
ENDMDL
MODEL 5
REMARK VINA RESULT:      -7.7      4.070      7.437
REMARK  6 active torsions:
REMARK  status: ('A' for Active; 'I' for Inactive)
REMARK    1  A    between atoms: C2_2  and  C3_3 
REMARK    2  A    between atoms: C5_7  and  N3_8 
REMARK    3  A    between atoms: N3_8  and  C6_9 
REMARK    4  A    between atoms: C12_17  and  C13_18 
REMARK    5  A    between atoms: C13_18  and  C14_19 
REMARK    6  A    between atoms: C14_19  and  C15_20 
ROOT
HETATM    1  C3  UNL     1      28.334   0.038  53.873  1.00  0.00     0.067 A 
HETATM    2  N1  UNL     1      29.356   0.893  54.094  1.00  0.00    -0.241 NA
HETATM    3  C4  UNL     1      29.169   2.205  54.152  1.00  0.00     0.235 A 
HETATM    4  N2  UNL     1      27.965   2.756  53.997  1.00  0.00    -0.224 NA
HETATM    5  C5  UNL     1      26.899   1.988  53.775  1.00  0.00     0.141 A 
HETATM    6  C12 UNL     1      27.098   0.607  53.715  1.00  0.00     0.035 A 
ENDROOT
BRANCH   5   7
HETATM    7  N3  UNL     1      25.632   2.602  53.613  1.00  0.00    -0.340 N 
HETATM    8  H6  UNL     1      25.267   2.733  54.585  1.00  0.00     0.167 HD
BRANCH   7   9
HETATM    9  C6  UNL     1      24.946   2.983  52.425  1.00  0.00     0.035 A 
HETATM   10  C7  UNL     1      25.473   2.694  51.195  1.00  0.00     0.032 A 
HETATM   11  C8  UNL     1      24.741   3.103  50.091  1.00  0.00     0.046 A 
HETATM   12  C9  UNL     1      23.543   3.768  50.263  1.00  0.00     0.138 A 
HETATM   13  F1  UNL     1      22.883   4.138  49.139  1.00  0.00    -0.204 F 
HETATM   14  C10 UNL     1      23.024   4.052  51.525  1.00  0.00     0.074 A 
HETATM   15 CL1  UNL     1      21.503   4.898  51.595  1.00  0.00    -0.081 Cl
HETATM   16  C11 UNL     1      23.757   3.641  52.617  1.00  0.00     0.056 A 
ENDBRANCH   7   9
ENDBRANCH   5   7
BRANCH   6  17
HETATM   17  C13 UNL     1      26.061  -0.219  53.552  1.00  0.00    -0.004 C 
BRANCH  17  18
HETATM   18  C14 UNL     1      24.978  -1.060  53.128  1.00  0.00     0.069 C 
BRANCH  18  19
HETATM   19  C15 UNL     1      23.625  -0.647  53.653  1.00  0.00    -0.018 A 
HETATM   20  C16 UNL     1      22.935  -0.943  54.807  1.00  0.00     0.147 A 
HETATM   21  N4  UNL     1      21.761  -0.301  54.754  1.00  0.00    -0.185 NA
HETATM   22  N5  UNL     1      21.680   0.391  53.609  1.00  0.00    -0.285 N 
HETATM   23  C17 UNL     1      20.545   1.211  53.205  1.00  0.00     0.179 C 
HETATM   24  C18 UNL     1      22.824   0.205  52.887  1.00  0.00     0.120 A 
ENDBRANCH  18  19
ENDBRANCH  17  18
ENDBRANCH   6  17
BRANCH   1  25
HETATM   25  C2  UNL     1      28.711  -1.218  53.826  1.00  0.00     0.002 C 
HETATM   26  C1  UNL     1      29.018  -2.302  52.875  1.00  0.00     0.038 C 
ENDBRANCH   1  25
TORSDOF 6
ENDMDL
MODEL 6
REMARK VINA RESULT:      -7.7      2.020      5.154
REMARK  6 active torsions:
REMARK  status: ('A' for Active; 'I' for Inactive)
REMARK    1  A    between atoms: C2_2  and  C3_3 
REMARK    2  A    between atoms: C5_7  and  N3_8 
REMARK    3  A    between atoms: N3_8  and  C6_9 
REMARK    4  A    between atoms: C12_17  and  C13_18 
REMARK    5  A    between atoms: C13_18  and  C14_19 
REMARK    6  A    between atoms: C14_19  and  C15_20 
ROOT
HETATM    1  C3  UNL     1      24.222   3.037  49.935  1.00  0.00     0.067 A 
HETATM    2  N1  UNL     1      25.247   3.636  49.291  1.00  0.00    -0.241 NA
HETATM    3  C4  UNL     1      26.484   3.606  49.770  1.00  0.00     0.235 A 
HETATM    4  N2  UNL     1      26.788   2.985  50.909  1.00  0.00    -0.224 NA
HETATM    5  C5  UNL     1      25.839   2.366  51.610  1.00  0.00     0.141 A 
HETATM    6  C12 UNL     1      24.537   2.398  51.105  1.00  0.00     0.035 A 
ENDROOT
BRANCH   5   7
HETATM    7  N3  UNL     1      26.191   1.715  52.819  1.00  0.00    -0.340 N 
HETATM    8  H6  UNL     1      25.380   1.878  53.461  1.00  0.00     0.167 HD
BRANCH   7   9
HETATM    9  C6  UNL     1      27.365   0.986  53.157  1.00  0.00     0.035 A 
HETATM   10  C7  UNL     1      28.455   1.627  53.681  1.00  0.00     0.032 A 
HETATM   11  C8  UNL     1      29.557   0.842  53.980  1.00  0.00     0.046 A 
HETATM   12  C9  UNL     1      29.522  -0.519  53.745  1.00  0.00     0.138 A 
HETATM   13  F1  UNL     1      30.635  -1.222  54.060  1.00  0.00    -0.204 F 
HETATM   14  C10 UNL     1      28.401  -1.152  53.210  1.00  0.00     0.074 A 
HETATM   15 CL1  UNL     1      28.495  -2.874  52.964  1.00  0.00    -0.081 Cl
HETATM   16  C11 UNL     1      27.310  -0.364  52.917  1.00  0.00     0.056 A 
ENDBRANCH   7   9
ENDBRANCH   5   7
BRANCH   6  17
HETATM   17  C13 UNL     1      23.553   1.748  51.732  1.00  0.00    -0.004 C 
BRANCH  17  18
HETATM   18  C14 UNL     1      22.439   1.279  52.506  1.00  0.00     0.069 C 
BRANCH  18  19
HETATM   19  C15 UNL     1      21.153   2.031  52.268  1.00  0.00    -0.018 A 
HETATM   20  C16 UNL     1      20.815   3.363  52.351  1.00  0.00     0.147 A 
HETATM   21  N4  UNL     1      19.518   3.473  52.034  1.00  0.00    -0.185 NA
HETATM   22  N5  UNL     1      19.020   2.260  51.754  1.00  0.00    -0.285 N 
HETATM   23  C17 UNL     1      17.642   1.989  51.368  1.00  0.00     0.179 C 
HETATM   24  C18 UNL     1      20.007   1.326  51.887  1.00  0.00     0.120 A 
ENDBRANCH  18  19
ENDBRANCH  17  18
ENDBRANCH   6  17
BRANCH   1  25
HETATM   25  C2  UNL     1      23.069   3.189  49.326  1.00  0.00     0.002 C 
HETATM   26  C1  UNL     1      22.477   3.693  48.073  1.00  0.00     0.038 C 
ENDBRANCH   1  25
TORSDOF 6
ENDMDL
MODEL 7
REMARK VINA RESULT:      -7.7      4.134      6.857
REMARK  6 active torsions:
REMARK  status: ('A' for Active; 'I' for Inactive)
REMARK    1  A    between atoms: C2_2  and  C3_3 
REMARK    2  A    between atoms: C5_7  and  N3_8 
REMARK    3  A    between atoms: N3_8  and  C6_9 
REMARK    4  A    between atoms: C12_17  and  C13_18 
REMARK    5  A    between atoms: C13_18  and  C14_19 
REMARK    6  A    between atoms: C14_19  and  C15_20 
ROOT
HETATM    1  C3  UNL     1      22.431   0.429  52.635  1.00  0.00     0.067 A 
HETATM    2  N1  UNL     1      21.351   0.081  51.902  1.00  0.00    -0.241 NA
HETATM    3  C4  UNL     1      21.149   0.564  50.684  1.00  0.00     0.235 A 
HETATM    4  N2  UNL     1      21.998   1.417  50.111  1.00  0.00    -0.224 NA
HETATM    5  C5  UNL     1      23.091   1.815  50.760  1.00  0.00     0.141 A 
HETATM    6  C12 UNL     1      23.302   1.305  52.043  1.00  0.00     0.035 A 
ENDROOT
BRANCH   5   7
HETATM    7  N3  UNL     1      23.975   2.724  50.127  1.00  0.00    -0.340 N 
HETATM    8  H6  UNL     1      24.576   2.131  49.507  1.00  0.00     0.167 HD
BRANCH   7   9
HETATM    9  C6  UNL     1      24.079   4.138  50.255  1.00  0.00     0.035 A 
HETATM   10  C7  UNL     1      25.294   4.758  50.137  1.00  0.00     0.032 A 
HETATM   11  C8  UNL     1      25.307   6.136  50.278  1.00  0.00     0.046 A 
HETATM   12  C9  UNL     1      24.132   6.818  50.525  1.00  0.00     0.138 A 
HETATM   13  F1  UNL     1      24.221   8.164  50.651  1.00  0.00    -0.204 F 
HETATM   14  C10 UNL     1      22.905   6.166  50.641  1.00  0.00     0.074 A 
HETATM   15 CL1  UNL     1      21.501   7.150  50.955  1.00  0.00    -0.081 Cl
HETATM   16  C11 UNL     1      22.900   4.796  50.499  1.00  0.00     0.056 A 
ENDBRANCH   7   9
ENDBRANCH   5   7
BRANCH   6  17
HETATM   17  C13 UNL     1      24.408   1.621  52.722  1.00  0.00    -0.004 C 
BRANCH  17  18
HETATM   18  C14 UNL     1      25.539   2.202  53.389  1.00  0.00     0.069 C 
BRANCH  18  19
HETATM   19  C15 UNL     1      26.547   1.199  53.895  1.00  0.00    -0.018 A 
HETATM   20  C16 UNL     1      26.538   0.303  54.940  1.00  0.00     0.147 A 
HETATM   21  N4  UNL     1      27.712  -0.341  54.932  1.00  0.00    -0.185 NA
HETATM   22  N5  UNL     1      28.466   0.113  53.921  1.00  0.00    -0.285 N 
HETATM   23  C17 UNL     1      29.808  -0.356  53.601  1.00  0.00     0.179 C 
HETATM   24  C18 UNL     1      27.779   1.078  53.243  1.00  0.00     0.120 A 
ENDBRANCH  18  19
ENDBRANCH  17  18
ENDBRANCH   6  17
BRANCH   1  25
HETATM   25  C2  UNL     1      22.453  -0.129  53.823  1.00  0.00     0.002 C 
HETATM   26  C1  UNL     1      21.912  -1.276  54.574  1.00  0.00     0.038 C 
ENDBRANCH   1  25
TORSDOF 6
ENDMDL
MODEL 8
REMARK VINA RESULT:      -7.5      3.741      6.530
REMARK  6 active torsions:
REMARK  status: ('A' for Active; 'I' for Inactive)
REMARK    1  A    between atoms: C2_2  and  C3_3 
REMARK    2  A    between atoms: C5_7  and  N3_8 
REMARK    3  A    between atoms: N3_8  and  C6_9 
REMARK    4  A    between atoms: C12_17  and  C13_18 
REMARK    5  A    between atoms: C13_18  and  C14_19 
REMARK    6  A    between atoms: C14_19  and  C15_20 
ROOT
HETATM    1  C3  UNL     1      21.929   1.182  50.286  1.00  0.00     0.067 A 
HETATM    2  N1  UNL     1      21.459   1.596  49.089  1.00  0.00    -0.241 NA
HETATM    3  C4  UNL     1      22.109   2.490  48.357  1.00  0.00     0.235 A 
HETATM    4  N2  UNL     1      23.260   3.032  48.756  1.00  0.00    -0.224 NA
HETATM    5  C5  UNL     1      23.797   2.681  49.924  1.00  0.00     0.141 A 
HETATM    6  C12 UNL     1      23.111   1.739  50.694  1.00  0.00     0.035 A 
ENDROOT
BRANCH   5   7
HETATM    7  N3  UNL     1      25.020   3.275  50.323  1.00  0.00    -0.340 N 
HETATM    8  H6  UNL     1      25.374   2.670  51.102  1.00  0.00     0.167 HD
BRANCH   7   9
HETATM    9  C6  UNL     1      25.681   4.432  49.825  1.00  0.00     0.035 A 
HETATM   10  C7  UNL     1      26.812   4.313  49.062  1.00  0.00     0.032 A 
HETATM   11  C8  UNL     1      27.394   5.489  48.620  1.00  0.00     0.046 A 
HETATM   12  C9  UNL     1      26.833   6.707  48.952  1.00  0.00     0.138 A 
HETATM   13  F1  UNL     1      27.456   7.815  48.485  1.00  0.00    -0.204 F 
HETATM   14  C10 UNL     1      25.680   6.806  49.730  1.00  0.00     0.074 A 
HETATM   15 CL1  UNL     1      25.082   8.406  50.075  1.00  0.00    -0.081 Cl
HETATM   16  C11 UNL     1      25.108   5.631  50.166  1.00  0.00     0.056 A 
ENDBRANCH   7   9
ENDBRANCH   5   7
BRANCH   6  17
HETATM   17  C13 UNL     1      23.627   1.305  51.847  1.00  0.00    -0.004 C 
BRANCH  17  18
HETATM   18  C14 UNL     1      24.018   0.644  53.059  1.00  0.00     0.069 C 
BRANCH  18  19
HETATM   19  C15 UNL     1      25.383   1.037  53.572  1.00  0.00    -0.018 A 
HETATM   20  C16 UNL     1      25.999   2.252  53.767  1.00  0.00     0.147 A 
HETATM   21  N4  UNL     1      27.227   2.012  54.243  1.00  0.00    -0.185 NA
HETATM   22  N5  UNL     1      27.414   0.689  54.357  1.00  0.00    -0.285 N 
HETATM   23  C17 UNL     1      28.632   0.054  54.842  1.00  0.00     0.179 C 
HETATM   24  C18 UNL     1      26.286   0.038  53.949  1.00  0.00     0.120 A 
ENDBRANCH  18  19
ENDBRANCH  17  18
ENDBRANCH   6  17
BRANCH   1  25
HETATM   25  C2  UNL     1      21.143   0.312  50.877  1.00  0.00     0.002 C 
HETATM   26  C1  UNL     1      20.026   0.222  51.835  1.00  0.00     0.038 C 
ENDBRANCH   1  25
TORSDOF 6
ENDMDL
MODEL 9
REMARK VINA RESULT:      -7.5      2.726      5.734
REMARK  6 active torsions:
REMARK  status: ('A' for Active; 'I' for Inactive)
REMARK    1  A    between atoms: C2_2  and  C3_3 
REMARK    2  A    between atoms: C5_7  and  N3_8 
REMARK    3  A    between atoms: N3_8  and  C6_9 
REMARK    4  A    between atoms: C12_17  and  C13_18 
REMARK    5  A    between atoms: C13_18  and  C14_19 
REMARK    6  A    between atoms: C14_19  and  C15_20 
ROOT
HETATM    1  C3  UNL     1      24.559   4.907  49.612  1.00  0.00     0.067 A 
HETATM    2  N1  UNL     1      23.484   5.598  49.172  1.00  0.00    -0.241 NA
HETATM    3  C4  UNL     1      22.275   5.056  49.134  1.00  0.00     0.235 A 
HETATM    4  N2  UNL     1      22.047   3.802  49.526  1.00  0.00    -0.224 NA
HETATM    5  C5  UNL     1      23.049   3.047  49.975  1.00  0.00     0.141 A 
HETATM    6  C12 UNL     1      24.322   3.620  50.015  1.00  0.00     0.035 A 
ENDROOT
BRANCH   5   7
HETATM    7  N3  UNL     1      22.778   1.718  50.384  1.00  0.00    -0.340 N 
HETATM    8  H6  UNL     1      22.976   1.129  49.540  1.00  0.00     0.167 HD
BRANCH   7   9
HETATM    9  C6  UNL     1      22.333   1.220  51.640  1.00  0.00     0.035 A 
HETATM   10  C7  UNL     1      21.054   1.454  52.068  1.00  0.00     0.032 A 
HETATM   11  C8  UNL     1      20.704   0.936  53.304  1.00  0.00     0.046 A 
HETATM   12  C9  UNL     1      21.628   0.222  54.042  1.00  0.00     0.138 A 
HETATM   13  F1  UNL     1      21.216  -0.255  55.241  1.00  0.00    -0.204 F 
HETATM   14  C10 UNL     1      22.926  -0.006  53.587  1.00  0.00     0.074 A 
HETATM   15 CL1  UNL     1      23.988  -0.922  54.622  1.00  0.00    -0.081 Cl
HETATM   16  C11 UNL     1      23.265   0.512  52.357  1.00  0.00     0.056 A 
ENDBRANCH   7   9
ENDBRANCH   5   7
BRANCH   6  17
HETATM   17  C13 UNL     1      25.356   2.933  50.508  1.00  0.00    -0.004 C 
BRANCH  17  18
HETATM   18  C14 UNL     1      26.608   2.336  50.878  1.00  0.00     0.069 C 
BRANCH  18  19
HETATM   19  C15 UNL     1      26.713   1.960  52.336  1.00  0.00    -0.018 A 
HETATM   20  C16 UNL     1      26.014   2.345  53.458  1.00  0.00     0.147 A 
HETATM   21  N4  UNL     1      26.537   1.694  54.505  1.00  0.00    -0.185 NA
HETATM   22  N5  UNL     1      27.542   0.909  54.089  1.00  0.00    -0.285 N 
HETATM   23  C17 UNL     1      28.346   0.052  54.949  1.00  0.00     0.179 C 
HETATM   24  C18 UNL     1      27.688   1.043  52.738  1.00  0.00     0.120 A 
ENDBRANCH  18  19
ENDBRANCH  17  18
ENDBRANCH   6  17
BRANCH   1  25
HETATM   25  C2  UNL     1      25.675   5.596  49.557  1.00  0.00     0.002 C 
HETATM   26  C1  UNL     1      26.812   5.893  48.667  1.00  0.00     0.038 C 
ENDBRANCH   1  25
TORSDOF 6
ENDMDL
