MODEL 1
REMARK VINA RESULT:      -8.5      0.000      0.000
REMARK  4 active torsions:
REMARK  status: ('A' for Active; 'I' for Inactive)
REMARK    1  A    between atoms: O1_2  and  C2_3 
REMARK    2  A    between atoms: C6_9  and  N3_10 
REMARK    3  A    between atoms: N3_10  and  C8_12 
REMARK    4  A    between atoms: C16_21  and  O2_22 
ROOT
HETATM    1  C2  UNL     1      20.566  -0.181  52.994  1.00  0.00     0.103 A 
HETATM    2  C3  UNL     1      20.995  -0.754  54.175  1.00  0.00     0.072 A 
HETATM    3  C4  UNL     1      22.328  -0.830  54.437  1.00  0.00     0.075 A 
HETATM    4  N1  UNL     1      22.809  -1.384  55.582  1.00  0.00    -0.241 NA
HETATM    5  C5  UNL     1      24.133  -1.449  55.821  1.00  0.00     0.236 A 
HETATM    6  N2  UNL     1      24.999  -0.959  54.916  1.00  0.00    -0.223 NA
HETATM    7  C6  UNL     1      24.601  -0.395  53.757  1.00  0.00     0.144 A 
HETATM    8  C14 UNL     1      23.246  -0.348  53.550  1.00  0.00     0.042 A 
HETATM    9  C15 UNL     1      22.816   0.224  52.372  1.00  0.00     0.057 A 
HETATM   10  C16 UNL     1      21.465   0.317  52.075  1.00  0.00     0.102 A 
ENDROOT
BRANCH   7  11
HETATM   11  N3  UNL     1      25.614   0.091  52.871  1.00  0.00    -0.334 N 
HETATM   12  C7  UNL     1      25.314   1.124  51.898  1.00  0.00     0.158 C 
BRANCH  11  13
HETATM   13  C8  UNL     1      26.903  -0.489  53.002  1.00  0.00     0.053 A 
HETATM   14  C9  UNL     1      26.981  -1.841  52.737  1.00  0.00     0.031 A 
HETATM   15  C10 UNL     1      28.183  -2.540  52.828  1.00  0.00     0.002 A 
HETATM   16  C11 UNL     1      29.345  -1.856  53.201  1.00  0.00     0.002 A 
HETATM   17  C12 UNL     1      29.281  -0.505  53.468  1.00  0.00     0.021 A 
HETATM   18  C13 UNL     1      28.074   0.144  53.365  1.00  0.00     0.037 A 
HETATM   19 BR1  UNL     1      27.966   2.003  53.729  1.00  0.00    -0.049 Br
ENDBRANCH  11  13
ENDBRANCH   7  11
BRANCH  10  20
HETATM   20  O2  UNL     1      20.971   0.876  50.918  1.00  0.00    -0.353 OA
HETATM   21  C17 UNL     1      21.759   1.095  49.786  1.00  0.00     0.210 C 
ENDBRANCH  10  20
BRANCH   1  22
HETATM   22  O1  UNL     1      19.206  -0.102  52.724  1.00  0.00    -0.353 OA
HETATM   23  C1  UNL     1      18.310  -1.095  53.174  1.00  0.00     0.210 C 
ENDBRANCH   1  22
TORSDOF 4
ENDMDL
MODEL 2
REMARK VINA RESULT:      -8.2      3.094      6.148
REMARK  4 active torsions:
REMARK  status: ('A' for Active; 'I' for Inactive)
REMARK    1  A    between atoms: O1_2  and  C2_3 
REMARK    2  A    between atoms: C6_9  and  N3_10 
REMARK    3  A    between atoms: N3_10  and  C8_12 
REMARK    4  A    between atoms: C16_21  and  O2_22 
ROOT
HETATM    1  C2  UNL     1      26.862  -0.107  53.791  1.00  0.00     0.103 A 
HETATM    2  C3  UNL     1      25.732  -0.774  54.220  1.00  0.00     0.072 A 
HETATM    3  C4  UNL     1      24.503  -0.298  53.881  1.00  0.00     0.075 A 
HETATM    4  N1  UNL     1      23.355  -0.912  54.275  1.00  0.00    -0.241 NA
HETATM    5  C5  UNL     1      22.149  -0.424  53.928  1.00  0.00     0.236 A 
HETATM    6  N2  UNL     1      22.072   0.692  53.181  1.00  0.00    -0.223 NA
HETATM    7  C6  UNL     1      23.163   1.360  52.751  1.00  0.00     0.144 A 
HETATM    8  C14 UNL     1      24.372   0.831  53.125  1.00  0.00     0.042 A 
HETATM    9  C15 UNL     1      25.501   1.495  52.697  1.00  0.00     0.057 A 
HETATM   10  C16 UNL     1      26.767   1.036  53.025  1.00  0.00     0.102 A 
ENDROOT
BRANCH   7  11
HETATM   11  N3  UNL     1      22.957   2.535  51.961  1.00  0.00    -0.334 N 
HETATM   12  C7  UNL     1      22.997   3.852  52.567  1.00  0.00     0.158 C 
BRANCH  11  13
HETATM   13  C8  UNL     1      22.717   2.333  50.576  1.00  0.00     0.053 A 
HETATM   14  C9  UNL     1      21.639   1.529  50.266  1.00  0.00     0.031 A 
HETATM   15  C10 UNL     1      21.288   1.245  48.948  1.00  0.00     0.002 A 
HETATM   16  C11 UNL     1      22.048   1.787  47.906  1.00  0.00     0.002 A 
HETATM   17  C12 UNL     1      23.128   2.592  48.202  1.00  0.00     0.021 A 
HETATM   18  C13 UNL     1      23.436   2.846  49.517  1.00  0.00     0.037 A 
HETATM   19 BR1  UNL     1      24.918   3.952  49.944  1.00  0.00    -0.049 Br
ENDBRANCH  11  13
ENDBRANCH   7  11
BRANCH  10  20
HETATM   20  O2  UNL     1      27.933   1.653  52.630  1.00  0.00    -0.353 OA
HETATM   21  C17 UNL     1      28.631   2.546  53.447  1.00  0.00     0.210 C 
ENDBRANCH  10  20
BRANCH   1  22
HETATM   22  O1  UNL     1      28.117  -0.591  54.135  1.00  0.00    -0.353 OA
HETATM   23  C1  UNL     1      28.800  -1.508  53.308  1.00  0.00     0.210 C 
ENDBRANCH   1  22
TORSDOF 4
ENDMDL
MODEL 3
REMARK VINA RESULT:      -8.1      3.509      6.487
REMARK  4 active torsions:
REMARK  status: ('A' for Active; 'I' for Inactive)
REMARK    1  A    between atoms: O1_2  and  C2_3 
REMARK    2  A    between atoms: C6_9  and  N3_10 
REMARK    3  A    between atoms: N3_10  and  C8_12 
REMARK    4  A    between atoms: C16_21  and  O2_22 
ROOT
HETATM    1  C2  UNL     1      26.807  -0.149  53.620  1.00  0.00     0.103 A 
HETATM    2  C3  UNL     1      25.618  -0.773  53.944  1.00  0.00     0.072 A 
HETATM    3  C4  UNL     1      24.439  -0.156  53.658  1.00  0.00     0.075 A 
HETATM    4  N1  UNL     1      23.238  -0.722  53.953  1.00  0.00    -0.241 NA
HETATM    5  C5  UNL     1      22.083  -0.094  53.661  1.00  0.00     0.236 A 
HETATM    6  N2  UNL     1      22.110   1.112  53.068  1.00  0.00    -0.223 NA
HETATM    7  C6  UNL     1      23.260   1.739  52.743  1.00  0.00     0.144 A 
HETATM    8  C14 UNL     1      24.415   1.069  53.057  1.00  0.00     0.042 A 
HETATM    9  C15 UNL     1      25.602   1.689  52.734  1.00  0.00     0.057 A 
HETATM   10  C16 UNL     1      26.820   1.088  53.012  1.00  0.00     0.102 A 
ENDROOT
BRANCH   7  11
HETATM   11  N3  UNL     1      23.166   3.021  52.114  1.00  0.00    -0.334 N 
HETATM   12  C7  UNL     1      23.571   4.223  52.816  1.00  0.00     0.158 C 
BRANCH  11  13
HETATM   13  C8  UNL     1      22.662   3.040  50.787  1.00  0.00     0.053 A 
HETATM   14  C9  UNL     1      23.581   2.764  49.794  1.00  0.00     0.031 A 
HETATM   15  C10 UNL     1      23.226   2.750  48.447  1.00  0.00     0.002 A 
HETATM   16  C11 UNL     1      21.902   3.024  48.086  1.00  0.00     0.002 A 
HETATM   17  C12 UNL     1      20.975   3.301  49.068  1.00  0.00     0.021 A 
HETATM   18  C13 UNL     1      21.370   3.304  50.384  1.00  0.00     0.037 A 
HETATM   19 BR1  UNL     1      20.108   3.682  51.749  1.00  0.00    -0.049 Br
ENDBRANCH  11  13
ENDBRANCH   7  11
BRANCH  10  20
HETATM   20  O2  UNL     1      28.040   1.655  52.716  1.00  0.00    -0.353 OA
HETATM   21  C17 UNL     1      28.697   2.534  53.581  1.00  0.00     0.210 C 
ENDBRANCH  10  20
BRANCH   1  22
HETATM   22  O1  UNL     1      28.011  -0.775  53.911  1.00  0.00    -0.353 OA
HETATM   23  C1  UNL     1      28.528  -1.792  53.080  1.00  0.00     0.210 C 
ENDBRANCH   1  22
TORSDOF 4
ENDMDL
MODEL 4
REMARK VINA RESULT:      -8.1      1.746      3.283
REMARK  4 active torsions:
REMARK  status: ('A' for Active; 'I' for Inactive)
REMARK    1  A    between atoms: O1_2  and  C2_3 
REMARK    2  A    between atoms: C6_9  and  N3_10 
REMARK    3  A    between atoms: N3_10  and  C8_12 
REMARK    4  A    between atoms: C16_21  and  O2_22 
ROOT
HETATM    1  C2  UNL     1      21.900   0.724  51.528  1.00  0.00     0.103 A 
HETATM    2  C3  UNL     1      22.698   1.599  50.817  1.00  0.00     0.072 A 
HETATM    3  C4  UNL     1      23.988   1.795  51.204  1.00  0.00     0.075 A 
HETATM    4  N1  UNL     1      24.820   2.644  50.543  1.00  0.00    -0.241 NA
HETATM    5  C5  UNL     1      26.093   2.823  50.943  1.00  0.00     0.236 A 
HETATM    6  N2  UNL     1      26.555   2.155  52.015  1.00  0.00    -0.223 NA
HETATM    7  C6  UNL     1      25.794   1.296  52.723  1.00  0.00     0.144 A 
HETATM    8  C14 UNL     1      24.503   1.140  52.284  1.00  0.00     0.042 A 
HETATM    9  C15 UNL     1      23.706   0.268  52.992  1.00  0.00     0.057 A 
HETATM   10  C16 UNL     1      22.388   0.046  52.624  1.00  0.00     0.102 A 
ENDROOT
BRANCH   7  11
HETATM   11  N3  UNL     1      26.394   0.641  53.845  1.00  0.00    -0.334 N 
HETATM   12  C7  UNL     1      25.980   0.957  55.198  1.00  0.00     0.158 C 
BRANCH  11  13
HETATM   13  C8  UNL     1      27.400  -0.318  53.554  1.00  0.00     0.053 A 
HETATM   14  C9  UNL     1      26.947  -1.543  53.108  1.00  0.00     0.031 A 
HETATM   15  C10 UNL     1      27.823  -2.579  52.786  1.00  0.00     0.002 A 
HETATM   16  C11 UNL     1      29.201  -2.375  52.921  1.00  0.00     0.002 A 
HETATM   17  C12 UNL     1      29.666  -1.156  53.366  1.00  0.00     0.021 A 
HETATM   18  C13 UNL     1      28.766  -0.164  53.670  1.00  0.00     0.037 A 
HETATM   19 BR1  UNL     1      29.387   1.521  54.284  1.00  0.00    -0.049 Br
ENDBRANCH  11  13
ENDBRANCH   7  11
BRANCH  10  20
HETATM   20  O2  UNL     1      21.540  -0.812  53.289  1.00  0.00    -0.353 OA
HETATM   21  C17 UNL     1      21.423  -0.834  54.681  1.00  0.00     0.210 C 
ENDBRANCH  10  20
BRANCH   1  22
HETATM   22  O1  UNL     1      20.584   0.522  51.135  1.00  0.00    -0.353 OA
HETATM   23  C1  UNL     1      20.073   1.106  49.956  1.00  0.00     0.210 C 
ENDBRANCH   1  22
TORSDOF 4
ENDMDL
MODEL 5
REMARK VINA RESULT:      -7.9      3.406      6.905
REMARK  4 active torsions:
REMARK  status: ('A' for Active; 'I' for Inactive)
REMARK    1  A    between atoms: O1_2  and  C2_3 
REMARK    2  A    between atoms: C6_9  and  N3_10 
REMARK    3  A    between atoms: N3_10  and  C8_12 
REMARK    4  A    between atoms: C16_21  and  O2_22 
ROOT
HETATM    1  C2  UNL     1      25.938  -0.118  52.842  1.00  0.00     0.103 A 
HETATM    2  C3  UNL     1      26.752   0.708  52.094  1.00  0.00     0.072 A 
HETATM    3  C4  UNL     1      26.220   1.808  51.494  1.00  0.00     0.075 A 
HETATM    4  N1  UNL     1      26.973   2.658  50.745  1.00  0.00    -0.241 NA
HETATM    5  C5  UNL     1      26.426   3.741  50.160  1.00  0.00     0.236 A 
HETATM    6  N2  UNL     1      25.114   3.992  50.316  1.00  0.00    -0.223 NA
HETATM    7  C6  UNL     1      24.301   3.197  51.042  1.00  0.00     0.144 A 
HETATM    8  C14 UNL     1      24.894   2.105  51.622  1.00  0.00     0.042 A 
HETATM    9  C15 UNL     1      24.084   1.279  52.369  1.00  0.00     0.057 A 
HETATM   10  C16 UNL     1      24.594   0.151  52.993  1.00  0.00     0.102 A 
ENDROOT
BRANCH   7  11
HETATM   11  N3  UNL     1      22.921   3.565  51.137  1.00  0.00    -0.334 N 
HETATM   12  C7  UNL     1      22.400   4.186  52.339  1.00  0.00     0.158 C 
BRANCH  11  13
HETATM   13  C8  UNL     1      22.112   3.289  50.003  1.00  0.00     0.053 A 
HETATM   14  C9  UNL     1      21.691   1.981  49.872  1.00  0.00     0.031 A 
HETATM   15  C10 UNL     1      20.893   1.569  48.807  1.00  0.00     0.002 A 
HETATM   16  C11 UNL     1      20.508   2.503  47.839  1.00  0.00     0.002 A 
HETATM   17  C12 UNL     1      20.922   3.813  47.959  1.00  0.00     0.021 A 
HETATM   18  C13 UNL     1      21.707   4.175  49.026  1.00  0.00     0.037 A 
HETATM   19 BR1  UNL     1      22.287   5.972  49.208  1.00  0.00    -0.049 Br
ENDBRANCH  11  13
ENDBRANCH   7  11
BRANCH  10  20
HETATM   20  O2  UNL     1      23.838  -0.714  53.753  1.00  0.00    -0.353 OA
HETATM   21  C17 UNL     1      22.498  -0.995  53.472  1.00  0.00     0.210 C 
ENDBRANCH  10  20
BRANCH   1  22
HETATM   22  O1  UNL     1      26.477  -1.241  53.455  1.00  0.00    -0.353 OA
HETATM   23  C1  UNL     1      27.159  -2.227  52.711  1.00  0.00     0.210 C 
ENDBRANCH   1  22
TORSDOF 4
ENDMDL
MODEL 6
REMARK VINA RESULT:      -7.7      3.594      6.515
REMARK  4 active torsions:
REMARK  status: ('A' for Active; 'I' for Inactive)
REMARK    1  A    between atoms: O1_2  and  C2_3 
REMARK    2  A    between atoms: C6_9  and  N3_10 
REMARK    3  A    between atoms: N3_10  and  C8_12 
REMARK    4  A    between atoms: C16_21  and  O2_22 
ROOT
HETATM    1  C2  UNL     1      26.952   1.405  52.559  1.00  0.00     0.103 A 
HETATM    2  C3  UNL     1      26.278   0.544  53.401  1.00  0.00     0.072 A 
HETATM    3  C4  UNL     1      24.941   0.353  53.233  1.00  0.00     0.075 A 
HETATM    4  N1  UNL     1      24.224  -0.483  54.032  1.00  0.00    -0.241 NA
HETATM    5  C5  UNL     1      22.902  -0.657  53.849  1.00  0.00     0.236 A 
HETATM    6  N2  UNL     1      22.272   0.004  52.861  1.00  0.00    -0.223 NA
HETATM    7  C6  UNL     1      22.912   0.850  52.027  1.00  0.00     0.144 A 
HETATM    8  C14 UNL     1      24.258   1.001  52.246  1.00  0.00     0.042 A 
HETATM    9  C15 UNL     1      24.933   1.860  51.406  1.00  0.00     0.057 A 
HETATM   10  C16 UNL     1      26.294   2.076  51.550  1.00  0.00     0.102 A 
ENDROOT
BRANCH   7  11
HETATM   11  N3  UNL     1      22.138   1.497  51.012  1.00  0.00    -0.334 N 
HETATM   12  C7  UNL     1      21.400   0.721  50.034  1.00  0.00     0.158 C 
BRANCH  11  13
HETATM   13  C8  UNL     1      22.139   2.917  51.023  1.00  0.00     0.053 A 
HETATM   14  C9  UNL     1      21.784   3.506  52.220  1.00  0.00     0.031 A 
HETATM   15  C10 UNL     1      21.740   4.890  52.375  1.00  0.00     0.002 A 
HETATM   16  C11 UNL     1      22.063   5.710  51.287  1.00  0.00     0.002 A 
HETATM   17  C12 UNL     1      22.419   5.134  50.087  1.00  0.00     0.021 A 
HETATM   18  C13 UNL     1      22.449   3.765  49.980  1.00  0.00     0.037 A 
HETATM   19 BR1  UNL     1      22.938   2.954  48.336  1.00  0.00    -0.049 Br
ENDBRANCH  11  13
ENDBRANCH   7  11
BRANCH  10  20
HETATM   20  O2  UNL     1      27.026   2.921  50.745  1.00  0.00    -0.353 OA
HETATM   21  C17 UNL     1      26.440   3.745  49.781  1.00  0.00     0.210 C 
ENDBRANCH  10  20
BRANCH   1  22
HETATM   22  O1  UNL     1      28.316   1.602  52.727  1.00  0.00    -0.353 OA
HETATM   23  C1  UNL     1      28.814   2.497  53.698  1.00  0.00     0.210 C 
ENDBRANCH   1  22
TORSDOF 4
ENDMDL
MODEL 7
REMARK VINA RESULT:      -7.5      3.838      7.300
REMARK  4 active torsions:
REMARK  status: ('A' for Active; 'I' for Inactive)
REMARK    1  A    between atoms: O1_2  and  C2_3 
REMARK    2  A    between atoms: C6_9  and  N3_10 
REMARK    3  A    between atoms: N3_10  and  C8_12 
REMARK    4  A    between atoms: C16_21  and  O2_22 
ROOT
HETATM    1  C2  UNL     1      26.440   0.392  53.451  1.00  0.00     0.103 A 
HETATM    2  C3  UNL     1      27.142   1.221  52.599  1.00  0.00     0.072 A 
HETATM    3  C4  UNL     1      26.469   1.949  51.667  1.00  0.00     0.075 A 
HETATM    4  N1  UNL     1      27.106   2.782  50.801  1.00  0.00    -0.241 NA
HETATM    5  C5  UNL     1      26.421   3.493  49.886  1.00  0.00     0.236 A 
HETATM    6  N2  UNL     1      25.082   3.381  49.821  1.00  0.00    -0.223 NA
HETATM    7  C6  UNL     1      24.376   2.577  50.644  1.00  0.00     0.144 A 
HETATM    8  C14 UNL     1      25.111   1.870  51.562  1.00  0.00     0.042 A 
HETATM    9  C15 UNL     1      24.412   1.042  52.413  1.00  0.00     0.057 A 
HETATM   10  C16 UNL     1      25.068   0.288  53.374  1.00  0.00     0.102 A 
ENDROOT
BRANCH   7  11
HETATM   11  N3  UNL     1      22.955   2.540  50.482  1.00  0.00    -0.334 N 
HETATM   12  C7  UNL     1      22.236   1.282  50.529  1.00  0.00     0.158 C 
BRANCH  11  13
HETATM   13  C8  UNL     1      22.308   3.788  50.279  1.00  0.00     0.053 A 
HETATM   14  C9  UNL     1      22.167   4.579  51.401  1.00  0.00     0.031 A 
HETATM   15  C10 UNL     1      21.550   5.827  51.349  1.00  0.00     0.002 A 
HETATM   16  C11 UNL     1      21.057   6.295  50.126  1.00  0.00     0.002 A 
HETATM   17  C12 UNL     1      21.192   5.514  48.997  1.00  0.00     0.021 A 
HETATM   18  C13 UNL     1      21.808   4.290  49.096  1.00  0.00     0.037 A 
HETATM   19 BR1  UNL     1      22.003   3.202  47.554  1.00  0.00    -0.049 Br
ENDBRANCH  11  13
ENDBRANCH   7  11
BRANCH  10  20
HETATM   20  O2  UNL     1      24.428  -0.558  54.253  1.00  0.00    -0.353 OA
HETATM   21  C17 UNL     1      23.059  -0.827  54.186  1.00  0.00     0.210 C 
ENDBRANCH  10  20
BRANCH   1  22
HETATM   22  O1  UNL     1      27.124  -0.351  54.404  1.00  0.00    -0.353 OA
HETATM   23  C1  UNL     1      28.400   0.041  54.862  1.00  0.00     0.210 C 
ENDBRANCH   1  22
TORSDOF 4
ENDMDL
MODEL 8
REMARK VINA RESULT:      -7.5      9.157     11.341
REMARK  4 active torsions:
REMARK  status: ('A' for Active; 'I' for Inactive)
REMARK    1  A    between atoms: O1_2  and  C2_3 
REMARK    2  A    between atoms: C6_9  and  N3_10 
REMARK    3  A    between atoms: N3_10  and  C8_12 
REMARK    4  A    between atoms: C16_21  and  O2_22 
ROOT
HETATM    1  C2  UNL     1      27.569   7.760  47.144  1.00  0.00     0.103 A 
HETATM    2  C3  UNL     1      28.520   8.562  46.545  1.00  0.00     0.072 A 
HETATM    3  C4  UNL     1      29.840   8.308  46.757  1.00  0.00     0.075 A 
HETATM    4  N1  UNL     1      30.821   9.063  46.194  1.00  0.00    -0.241 NA
HETATM    5  C5  UNL     1      32.121   8.794  46.417  1.00  0.00     0.236 A 
HETATM    6  N2  UNL     1      32.463   7.762  47.210  1.00  0.00    -0.223 NA
HETATM    7  C6  UNL     1      31.550   6.967  47.805  1.00  0.00     0.144 A 
HETATM    8  C14 UNL     1      30.236   7.273  47.553  1.00  0.00     0.042 A 
HETATM    9  C15 UNL     1      29.286   6.474  48.150  1.00  0.00     0.057 A 
HETATM   10  C16 UNL     1      27.933   6.706  47.954  1.00  0.00     0.102 A 
ENDROOT
BRANCH   7  11
HETATM   11  N3  UNL     1      32.031   5.899  48.627  1.00  0.00    -0.334 N 
HETATM   12  C7  UNL     1      31.860   5.936  50.066  1.00  0.00     0.158 C 
BRANCH  11  13
HETATM   13  C8  UNL     1      32.672   4.823  47.957  1.00  0.00     0.053 A 
HETATM   14  C9  UNL     1      31.836   3.952  47.288  1.00  0.00     0.031 A 
HETATM   15  C10 UNL     1      32.329   2.851  46.589  1.00  0.00     0.002 A 
HETATM   16  C11 UNL     1      33.708   2.619  46.565  1.00  0.00     0.002 A 
HETATM   17  C12 UNL     1      34.553   3.481  47.229  1.00  0.00     0.021 A 
HETATM   18  C13 UNL     1      34.024   4.555  47.904  1.00  0.00     0.037 A 
HETATM   19 BR1  UNL     1      35.171   5.753  48.825  1.00  0.00    -0.049 Br
ENDBRANCH  11  13
ENDBRANCH   7  11
BRANCH  10  20
HETATM   20  O2  UNL     1      26.934   5.946  48.522  1.00  0.00    -0.353 OA
HETATM   21  C17 UNL     1      27.125   4.620  48.918  1.00  0.00     0.210 C 
ENDBRANCH  10  20
BRANCH   1  22
HETATM   22  O1  UNL     1      26.221   8.017  46.929  1.00  0.00    -0.353 OA
HETATM   23  C1  UNL     1      25.751   8.466  45.677  1.00  0.00     0.210 C 
ENDBRANCH   1  22
TORSDOF 4
ENDMDL
MODEL 9
REMARK VINA RESULT:      -7.4      3.265      5.874
REMARK  4 active torsions:
REMARK  status: ('A' for Active; 'I' for Inactive)
REMARK    1  A    between atoms: O1_2  and  C2_3 
REMARK    2  A    between atoms: C6_9  and  N3_10 
REMARK    3  A    between atoms: N3_10  and  C8_12 
REMARK    4  A    between atoms: C16_21  and  O2_22 
ROOT
HETATM    1  C2  UNL     1      24.606  -0.204  53.900  1.00  0.00     0.103 A 
HETATM    2  C3  UNL     1      23.428  -0.878  54.155  1.00  0.00     0.072 A 
HETATM    3  C4  UNL     1      22.257  -0.385  53.668  1.00  0.00     0.075 A 
HETATM    4  N1  UNL     1      21.066  -1.004  53.887  1.00  0.00    -0.241 NA
HETATM    5  C5  UNL     1      19.918  -0.499  53.397  1.00  0.00     0.236 A 
HETATM    6  N2  UNL     1      19.943   0.638  52.678  1.00  0.00    -0.223 NA
HETATM    7  C6  UNL     1      21.082   1.311  52.418  1.00  0.00     0.144 A 
HETATM    8  C14 UNL     1      22.230   0.765  52.935  1.00  0.00     0.042 A 
HETATM    9  C15 UNL     1      23.407   1.436  52.682  1.00  0.00     0.057 A 
HETATM   10  C16 UNL     1      24.617   0.960  53.162  1.00  0.00     0.102 A 
ENDROOT
BRANCH   7  11
HETATM   11  N3  UNL     1      20.986   2.510  51.642  1.00  0.00    -0.334 N 
HETATM   12  C7  UNL     1      20.320   3.684  52.172  1.00  0.00     0.158 C 
BRANCH  11  13
HETATM   13  C8  UNL     1      21.572   2.477  50.349  1.00  0.00     0.053 A 
HETATM   14  C9  UNL     1      21.164   1.440  49.534  1.00  0.00     0.031 A 
HETATM   15  C10 UNL     1      21.658   1.284  48.240  1.00  0.00     0.002 A 
HETATM   16  C11 UNL     1      22.595   2.201  47.751  1.00  0.00     0.002 A 
HETATM   17  C12 UNL     1      23.009   3.241  48.555  1.00  0.00     0.021 A 
HETATM   18  C13 UNL     1      22.495   3.357  49.824  1.00  0.00     0.037 A 
HETATM   19 BR1  UNL     1      23.053   4.782  50.945  1.00  0.00    -0.049 Br
ENDBRANCH  11  13
ENDBRANCH   7  11
BRANCH  10  20
HETATM   20  O2  UNL     1      25.826   1.583  52.945  1.00  0.00    -0.353 OA
HETATM   21  C17 UNL     1      26.494   1.534  51.719  1.00  0.00     0.210 C 
ENDBRANCH  10  20
BRANCH   1  22
HETATM   22  O1  UNL     1      25.803  -0.705  54.394  1.00  0.00    -0.353 OA
HETATM   23  C1  UNL     1      26.321  -0.276  55.635  1.00  0.00     0.210 C 
ENDBRANCH   1  22
TORSDOF 4
ENDMDL
