MODEL 1
REMARK VINA RESULT:      -7.5      0.000      0.000
REMARK  7 active torsions:
REMARK  status: ('A' for Active; 'I' for Inactive)
REMARK    1  A    between atoms: C8_10  and  N3_11 
REMARK    2  A    between atoms: C8_10  and  S1_18 
REMARK    3  A    between atoms: N3_11  and  C9_12 
REMARK    4  A    between atoms: C9_12  and  C10_13 
REMARK    5  A    between atoms: C10_13  and  O1_14 
REMARK    6  A    between atoms: S1_18  and  C14_19 
REMARK    7  A    between atoms: C14_19  and  N4_20 
ROOT
HETATM    1  C1  UNL     1      21.398   1.762  50.743  1.00  0.00     0.039 C 
HETATM    2  C2  UNL     1      21.576   1.246  52.171  1.00  0.00     0.135 A 
HETATM    3  C3  UNL     1      22.695   1.001  52.954  1.00  0.00     0.040 A 
HETATM    4  N1  UNL     1      21.623   0.664  53.647  1.00  0.00    -0.351 N 
HETATM    5  C4  UNL     1      21.071  -0.148  54.423  1.00  0.00     0.089 C 
HETATM    6  C5  UNL     1      21.894  -1.366  54.875  1.00  0.00     0.054 C 
HETATM    7  C6  UNL     1      23.399  -1.149  54.783  1.00  0.00     0.011 C 
HETATM    8  C7  UNL     1      24.619  -1.216  55.515  1.00  0.00     0.297 A 
HETATM    9  N2  UNL     1      25.904  -0.818  54.770  1.00  0.00    -0.057 NA
HETATM   10  C8  UNL     1      25.669   0.094  53.681  1.00  0.00     0.173 A 
HETATM   11  C11 UNL     1      24.983   0.981  52.475  1.00  0.00     0.112 A 
HETATM   12  C12 UNL     1      23.812   1.370  52.192  1.00  0.00    -0.015 A 
HETATM   13  C13 UNL     1      24.890   1.867  51.277  1.00  0.00     0.097 A 
HETATM   14  S1  UNL     1      26.350   1.002  52.149  1.00  0.00    -0.142 SA
HETATM   15  C14 UNL     1      25.343   0.260  53.394  1.00  0.00     0.255 A 
HETATM   16  N4  UNL     1      24.939  -0.498  54.489  1.00  0.00     0.054 N 
HETATM   17  H16 UNL     1      24.084   0.086  54.701  1.00  0.00     0.308 HD
ENDROOT
BRANCH  10  18
HETATM   18  N3  UNL     1      27.125   0.584  54.042  1.00  0.00    -0.389 N 
HETATM   19  H9  UNL     1      27.345   1.611  53.678  1.00  0.00     0.156 HD
BRANCH  18  20
HETATM   20  C9  UNL     1      28.351   0.171  54.763  1.00  0.00     0.142 C 
BRANCH  20  21
HETATM   21  C10 UNL     1      29.256  -0.621  53.835  1.00  0.00     0.183 C 
BRANCH  21  22
HETATM   22  O1  UNL     1      28.609  -1.828  53.627  1.00  0.00    -0.399 OA
HETATM   23  H14 UNL     1      27.717  -1.847  54.090  1.00  0.00     0.209 HD
ENDBRANCH  21  22
ENDBRANCH  20  21
ENDBRANCH  18  20
ENDBRANCH  10  18
TORSDOF 7
ENDMDL
MODEL 2
REMARK VINA RESULT:      -7.4      1.930      3.550
REMARK  7 active torsions:
REMARK  status: ('A' for Active; 'I' for Inactive)
REMARK    1  A    between atoms: C8_10  and  N3_11 
REMARK    2  A    between atoms: C8_10  and  S1_18 
REMARK    3  A    between atoms: N3_11  and  C9_12 
REMARK    4  A    between atoms: C9_12  and  C10_13 
REMARK    5  A    between atoms: C10_13  and  O1_14 
REMARK    6  A    between atoms: S1_18  and  C14_19 
REMARK    7  A    between atoms: C14_19  and  N4_20 
ROOT
HETATM    1  C1  UNL     1      20.338   1.663  52.267  1.00  0.00     0.039 C 
HETATM    2  C2  UNL     1      21.569   1.869  51.384  1.00  0.00     0.135 A 
HETATM    3  C3  UNL     1      22.869   1.388  51.450  1.00  0.00     0.040 A 
HETATM    4  N1  UNL     1      22.779   2.197  50.411  1.00  0.00    -0.351 N 
HETATM    5  C4  UNL     1      23.296   3.107  49.724  1.00  0.00     0.089 C 
HETATM    6  C5  UNL     1      24.676   3.625  50.161  1.00  0.00     0.054 C 
HETATM    7  C6  UNL     1      25.463   2.625  50.998  1.00  0.00     0.011 C 
HETATM    8  C7  UNL     1      26.710   1.945  51.110  1.00  0.00     0.297 A 
HETATM    9  N2  UNL     1      26.872   0.974  52.290  1.00  0.00    -0.057 NA
HETATM   10  C8  UNL     1      25.621   0.441  52.763  1.00  0.00     0.173 A 
HETATM   11  C11 UNL     1      24.027   0.187  53.088  1.00  0.00     0.112 A 
HETATM   12  C12 UNL     1      22.930   0.534  52.560  1.00  0.00    -0.015 A 
HETATM   13  C13 UNL     1      22.811  -0.392  53.732  1.00  0.00     0.097 A 
HETATM   14  S1  UNL     1      24.678  -0.554  54.089  1.00  0.00    -0.142 SA
HETATM   15  C14 UNL     1      25.161   0.507  52.764  1.00  0.00     0.255 A 
HETATM   16  N4  UNL     1      25.940   1.263  51.892  1.00  0.00     0.054 N 
HETATM   17  H16 UNL     1      25.250   1.230  51.092  1.00  0.00     0.308 HD
ENDROOT
BRANCH  10  18
HETATM   18  N3  UNL     1      26.522  -0.800  53.139  1.00  0.00    -0.389 N 
HETATM   19  H9  UNL     1      26.861  -0.791  54.198  1.00  0.00     0.156 HD
BRANCH  18  20
HETATM   20  C9  UNL     1      27.072  -2.055  52.580  1.00  0.00     0.142 C 
BRANCH  20  21
HETATM   21  C10 UNL     1      28.519  -2.225  53.008  1.00  0.00     0.183 C 
BRANCH  21  22
HETATM   22  O1  UNL     1      28.643  -3.554  53.379  1.00  0.00    -0.399 OA
HETATM   23  H14 UNL     1      27.769  -4.042  53.278  1.00  0.00     0.209 HD
ENDBRANCH  21  22
ENDBRANCH  20  21
ENDBRANCH  18  20
ENDBRANCH  10  18
TORSDOF 7
ENDMDL
MODEL 3
REMARK VINA RESULT:      -7.2      3.180      5.034
REMARK  7 active torsions:
REMARK  status: ('A' for Active; 'I' for Inactive)
REMARK    1  A    between atoms: C8_10  and  N3_11 
REMARK    2  A    between atoms: C8_10  and  S1_18 
REMARK    3  A    between atoms: N3_11  and  C9_12 
REMARK    4  A    between atoms: C9_12  and  C10_13 
REMARK    5  A    between atoms: C10_13  and  O1_14 
REMARK    6  A    between atoms: S1_18  and  C14_19 
REMARK    7  A    between atoms: C14_19  and  N4_20 
ROOT
HETATM    1  C1  UNL     1      21.671  -1.442  54.247  1.00  0.00     0.039 C 
HETATM    2  C2  UNL     1      23.092  -0.893  54.133  1.00  0.00     0.135 A 
HETATM    3  C3  UNL     1      23.620   0.244  53.538  1.00  0.00     0.040 A 
HETATM    4  N1  UNL     1      24.615  -0.453  54.053  1.00  0.00    -0.351 N 
HETATM    5  C4  UNL     1      25.781  -0.892  53.931  1.00  0.00     0.089 C 
HETATM    6  C5  UNL     1      26.539  -0.536  52.641  1.00  0.00     0.054 C 
HETATM    7  C6  UNL     1      26.015   0.720  51.958  1.00  0.00     0.011 C 
HETATM    8  C7  UNL     1      26.394   1.989  51.432  1.00  0.00     0.297 A 
HETATM    9  N2  UNL     1      25.278   2.859  50.833  1.00  0.00    -0.057 NA
HETATM   10  C8  UNL     1      23.979   2.573  51.383  1.00  0.00     0.173 A 
HETATM   11  C11 UNL     1      22.693   1.864  52.130  1.00  0.00     0.112 A 
HETATM   12  C12 UNL     1      22.540   0.961  53.004  1.00  0.00    -0.015 A 
HETATM   13  C13 UNL     1      21.279   1.633  52.551  1.00  0.00     0.097 A 
HETATM   14  S1  UNL     1      22.090   2.827  51.303  1.00  0.00    -0.142 SA
HETATM   15  C14 UNL     1      23.730   2.256  51.615  1.00  0.00     0.255 A 
HETATM   16  N4  UNL     1      25.111   2.095  51.540  1.00  0.00     0.054 N 
HETATM   17  H16 UNL     1      25.221   1.741  52.530  1.00  0.00     0.308 HD
ENDROOT
BRANCH  10  18
HETATM   18  N3  UNL     1      23.729   4.099  51.066  1.00  0.00    -0.389 N 
HETATM   19  H9  UNL     1      23.362   4.278  50.032  1.00  0.00     0.156 HD
BRANCH  18  20
HETATM   20  C9  UNL     1      23.768   5.442  51.688  1.00  0.00     0.142 C 
BRANCH  20  21
HETATM   21  C10 UNL     1      24.520   6.408  50.790  1.00  0.00     0.183 C 
BRANCH  21  22
HETATM   22  O1  UNL     1      25.700   5.764  50.457  1.00  0.00    -0.399 OA
HETATM   23  H14 UNL     1      26.443   6.017  51.086  1.00  0.00     0.209 HD
ENDBRANCH  21  22
ENDBRANCH  20  21
ENDBRANCH  18  20
ENDBRANCH  10  18
TORSDOF 7
ENDMDL
MODEL 4
REMARK VINA RESULT:      -7.1      3.078      4.629
REMARK  7 active torsions:
REMARK  status: ('A' for Active; 'I' for Inactive)
REMARK    1  A    between atoms: C8_10  and  N3_11 
REMARK    2  A    between atoms: C8_10  and  S1_18 
REMARK    3  A    between atoms: N3_11  and  C9_12 
REMARK    4  A    between atoms: C9_12  and  C10_13 
REMARK    5  A    between atoms: C10_13  and  O1_14 
REMARK    6  A    between atoms: S1_18  and  C14_19 
REMARK    7  A    between atoms: C14_19  and  N4_20 
ROOT
HETATM    1  C1  UNL     1      22.273  -1.060  54.742  1.00  0.00     0.039 C 
HETATM    2  C2  UNL     1      21.771  -0.062  53.698  1.00  0.00     0.135 A 
HETATM    3  C3  UNL     1      22.416   0.857  52.884  1.00  0.00     0.040 A 
HETATM    4  N1  UNL     1      21.117   0.956  52.672  1.00  0.00    -0.351 N 
HETATM    5  C4  UNL     1      20.123   1.694  52.486  1.00  0.00     0.089 C 
HETATM    6  C5  UNL     1      20.365   3.212  52.460  1.00  0.00     0.054 C 
HETATM    7  C6  UNL     1      21.798   3.592  52.110  1.00  0.00     0.011 C 
HETATM    8  C7  UNL     1      22.600   4.383  51.238  1.00  0.00     0.297 A 
HETATM    9  N2  UNL     1      24.124   4.299  51.422  1.00  0.00    -0.057 NA
HETATM   10  C8  UNL     1      24.557   3.057  52.006  1.00  0.00     0.173 A 
HETATM   11  C11 UNL     1      24.625   1.617  52.803  1.00  0.00     0.112 A 
HETATM   12  C12 UNL     1      23.790   0.725  53.132  1.00  0.00    -0.015 A 
HETATM   13  C13 UNL     1      25.218   0.416  53.463  1.00  0.00     0.097 A 
HETATM   14  S1  UNL     1      25.969   2.030  52.775  1.00  0.00    -0.142 SA
HETATM   15  C14 UNL     1      24.417   2.688  52.252  1.00  0.00     0.255 A 
HETATM   16  N4  UNL     1      23.453   3.548  51.734  1.00  0.00     0.054 N 
HETATM   17  H16 UNL     1      22.770   2.784  51.475  1.00  0.00     0.308 HD
ENDROOT
BRANCH  10  18
HETATM   18  N3  UNL     1      25.855   3.339  51.152  1.00  0.00    -0.389 N 
HETATM   19  H9  UNL     1      26.654   3.854  51.726  1.00  0.00     0.156 HD
BRANCH  18  20
HETATM   20  C9  UNL     1      26.439   3.118  49.810  1.00  0.00     0.142 C 
BRANCH  20  21
HETATM   21  C10 UNL     1      26.950   4.431  49.243  1.00  0.00     0.183 C 
BRANCH  21  22
HETATM   22  O1  UNL     1      26.353   5.421  50.006  1.00  0.00    -0.399 OA
HETATM   23  H14 UNL     1      27.022   5.869  50.609  1.00  0.00     0.209 HD
ENDBRANCH  21  22
ENDBRANCH  20  21
ENDBRANCH  18  20
ENDBRANCH  10  18
TORSDOF 7
ENDMDL
MODEL 5
REMARK VINA RESULT:      -7.0      1.475      1.631
REMARK  7 active torsions:
REMARK  status: ('A' for Active; 'I' for Inactive)
REMARK    1  A    between atoms: C8_10  and  N3_11 
REMARK    2  A    between atoms: C8_10  and  S1_18 
REMARK    3  A    between atoms: N3_11  and  C9_12 
REMARK    4  A    between atoms: C9_12  and  C10_13 
REMARK    5  A    between atoms: C10_13  and  O1_14 
REMARK    6  A    between atoms: S1_18  and  C14_19 
REMARK    7  A    between atoms: C14_19  and  N4_20 
ROOT
HETATM    1  C1  UNL     1      21.436   3.696  50.830  1.00  0.00     0.039 C 
HETATM    2  C2  UNL     1      21.752   2.698  51.944  1.00  0.00     0.135 A 
HETATM    3  C3  UNL     1      22.938   2.160  52.421  1.00  0.00     0.040 A 
HETATM    4  N1  UNL     1      21.940   1.626  53.099  1.00  0.00    -0.351 N 
HETATM    5  C4  UNL     1      21.430   0.605  53.613  1.00  0.00     0.089 C 
HETATM    6  C5  UNL     1      22.208  -0.715  53.485  1.00  0.00     0.054 C 
HETATM    7  C6  UNL     1      23.701  -0.519  53.258  1.00  0.00     0.011 C 
HETATM    8  C7  UNL     1      24.995  -0.877  53.734  1.00  0.00     0.297 A 
HETATM    9  N2  UNL     1      26.202  -0.273  52.998  1.00  0.00    -0.057 NA
HETATM   10  C8  UNL     1      25.902   0.974  52.345  1.00  0.00     0.173 A 
HETATM   11  C11 UNL     1      25.140   2.252  51.639  1.00  0.00     0.112 A 
HETATM   12  C12 UNL     1      23.976   2.747  51.683  1.00  0.00    -0.015 A 
HETATM   13  C13 UNL     1      24.964   3.510  50.854  1.00  0.00     0.097 A 
HETATM   14  S1  UNL     1      26.453   2.352  51.146  1.00  0.00    -0.142 SA
HETATM   15  C14 UNL     1      25.557   1.241  52.184  1.00  0.00     0.255 A 
HETATM   16  N4  UNL     1      25.237   0.152  52.990  1.00  0.00     0.054 N 
HETATM   17  H16 UNL     1      24.463   0.644  53.515  1.00  0.00     0.308 HD
ENDROOT
BRANCH  10  18
HETATM   18  N3  UNL     1      27.426   1.264  52.640  1.00  0.00    -0.389 N 
HETATM   19  H9  UNL     1      28.087   1.066  51.769  1.00  0.00     0.156 HD
BRANCH  18  20
HETATM   20  C9  UNL     1      28.334   1.770  53.694  1.00  0.00     0.142 C 
BRANCH  20  21
HETATM   21  C10 UNL     1      29.220   0.645  54.200  1.00  0.00     0.183 C 
BRANCH  21  22
HETATM   22  O1  UNL     1      28.394  -0.160  54.967  1.00  0.00    -0.399 OA
HETATM   23  H14 UNL     1      28.736  -0.239  55.909  1.00  0.00     0.209 HD
ENDBRANCH  21  22
ENDBRANCH  20  21
ENDBRANCH  18  20
ENDBRANCH  10  18
TORSDOF 7
ENDMDL
MODEL 6
REMARK VINA RESULT:      -6.8      2.954      5.345
REMARK  7 active torsions:
REMARK  status: ('A' for Active; 'I' for Inactive)
REMARK    1  A    between atoms: C8_10  and  N3_11 
REMARK    2  A    between atoms: C8_10  and  S1_18 
REMARK    3  A    between atoms: N3_11  and  C9_12 
REMARK    4  A    between atoms: C9_12  and  C10_13 
REMARK    5  A    between atoms: C10_13  and  O1_14 
REMARK    6  A    between atoms: S1_18  and  C14_19 
REMARK    7  A    between atoms: C14_19  and  N4_20 
ROOT
HETATM    1  C1  UNL     1      26.686   0.123  54.549  1.00  0.00     0.039 C 
HETATM    2  C2  UNL     1      25.243  -0.331  54.329  1.00  0.00     0.135 A 
HETATM    3  C3  UNL     1      24.276   0.018  53.397  1.00  0.00     0.040 A 
HETATM    4  N1  UNL     1      23.749  -0.856  54.233  1.00  0.00    -0.351 N 
HETATM    5  C4  UNL     1      22.765  -1.211  54.920  1.00  0.00     0.089 C 
HETATM    6  C5  UNL     1      21.510  -0.324  54.868  1.00  0.00     0.054 C 
HETATM    7  C6  UNL     1      21.419   0.525  53.606  1.00  0.00     0.011 C 
HETATM    8  C7  UNL     1      20.580   0.870  52.508  1.00  0.00     0.297 A 
HETATM    9  N2  UNL     1      21.142   1.872  51.487  1.00  0.00    -0.057 NA
HETATM   10  C8  UNL     1      22.581   1.879  51.433  1.00  0.00     0.173 A 
HETATM   11  C11 UNL     1      24.182   1.696  51.772  1.00  0.00     0.112 A 
HETATM   12  C12 UNL     1      24.866   0.945  52.526  1.00  0.00    -0.015 A 
HETATM   13  C13 UNL     1      25.661   1.867  51.652  1.00  0.00     0.097 A 
HETATM   14  S1  UNL     1      24.177   2.704  50.792  1.00  0.00    -0.142 SA
HETATM   15  C14 UNL     1      22.966   1.762  51.664  1.00  0.00     0.255 A 
HETATM   16  N4  UNL     1      21.742   1.281  52.122  1.00  0.00     0.054 N 
HETATM   17  H16 UNL     1      22.107   0.325  52.386  1.00  0.00     0.308 HD
ENDROOT
BRANCH  10  18
HETATM   18  N3  UNL     1      22.322   2.285  49.929  1.00  0.00    -0.389 N 
HETATM   19  H9  UNL     1      22.368   3.382  49.757  1.00  0.00     0.156 HD
BRANCH  18  20
HETATM   20  C9  UNL     1      22.069   1.705  48.591  1.00  0.00     0.142 C 
BRANCH  20  21
HETATM   21  C10 UNL     1      20.748   2.218  48.044  1.00  0.00     0.183 C 
BRANCH  21  22
HETATM   22  O1  UNL     1      19.770   1.637  48.834  1.00  0.00    -0.399 OA
HETATM   23  H14 UNL     1      19.438   2.280  49.533  1.00  0.00     0.209 HD
ENDBRANCH  21  22
ENDBRANCH  20  21
ENDBRANCH  18  20
ENDBRANCH  10  18
TORSDOF 7
ENDMDL
MODEL 7
REMARK VINA RESULT:      -6.7      2.082      3.527
REMARK  7 active torsions:
REMARK  status: ('A' for Active; 'I' for Inactive)
REMARK    1  A    between atoms: C8_10  and  N3_11 
REMARK    2  A    between atoms: C8_10  and  S1_18 
REMARK    3  A    between atoms: N3_11  and  C9_12 
REMARK    4  A    between atoms: C9_12  and  C10_13 
REMARK    5  A    between atoms: C10_13  and  O1_14 
REMARK    6  A    between atoms: S1_18  and  C14_19 
REMARK    7  A    between atoms: C14_19  and  N4_20 
ROOT
HETATM    1  C1  UNL     1      18.917  -0.408  52.526  1.00  0.00     0.039 C 
HETATM    2  C2  UNL     1      19.796   0.675  51.900  1.00  0.00     0.135 A 
HETATM    3  C3  UNL     1      21.161   0.918  51.934  1.00  0.00     0.040 A 
HETATM    4  N1  UNL     1      20.587   1.875  51.230  1.00  0.00    -0.351 N 
HETATM    5  C4  UNL     1      20.515   3.094  50.952  1.00  0.00     0.089 C 
HETATM    6  C5  UNL     1      21.480   4.043  51.682  1.00  0.00     0.054 C 
HETATM    7  C6  UNL     1      22.733   3.351  52.204  1.00  0.00     0.011 C 
HETATM    8  C7  UNL     1      24.156   3.394  52.208  1.00  0.00     0.297 A 
HETATM    9  N2  UNL     1      24.887   2.294  52.995  1.00  0.00    -0.057 NA
HETATM   10  C8  UNL     1      24.119   1.083  53.124  1.00  0.00     0.173 A 
HETATM   11  C11 UNL     1      22.903  -0.026  53.175  1.00  0.00     0.112 A 
HETATM   12  C12 UNL     1      21.739  -0.115  52.685  1.00  0.00    -0.015 A 
HETATM   13  C13 UNL     1      22.203  -1.316  53.452  1.00  0.00     0.097 A 
HETATM   14  S1  UNL     1      23.923  -0.636  53.925  1.00  0.00    -0.142 SA
HETATM   15  C14 UNL     1      23.690   0.906  53.100  1.00  0.00     0.255 A 
HETATM   16  N4  UNL     1      23.904   2.197  52.625  1.00  0.00     0.054 N 
HETATM   17  H16 UNL     1      23.258   2.103  51.794  1.00  0.00     0.308 HD
ENDROOT
BRANCH  10  18
HETATM   18  N3  UNL     1      25.550   0.416  53.147  1.00  0.00    -0.389 N 
HETATM   19  H9  UNL     1      25.880   0.122  54.166  1.00  0.00     0.156 HD
BRANCH  18  20
HETATM   20  C9  UNL     1      26.648  -0.020  52.255  1.00  0.00     0.142 C 
BRANCH  20  21
HETATM   21  C10 UNL     1      27.661  -0.835  53.040  1.00  0.00     0.183 C 
BRANCH  21  22
HETATM   22  O1  UNL     1      27.190  -2.138  53.012  1.00  0.00    -0.399 OA
HETATM   23  H14 UNL     1      27.030  -2.446  52.069  1.00  0.00     0.209 HD
ENDBRANCH  21  22
ENDBRANCH  20  21
ENDBRANCH  18  20
ENDBRANCH  10  18
TORSDOF 7
ENDMDL
MODEL 8
REMARK VINA RESULT:      -6.6      2.718      5.047
REMARK  7 active torsions:
REMARK  status: ('A' for Active; 'I' for Inactive)
REMARK    1  A    between atoms: C8_10  and  N3_11 
REMARK    2  A    between atoms: C8_10  and  S1_18 
REMARK    3  A    between atoms: N3_11  and  C9_12 
REMARK    4  A    between atoms: C9_12  and  C10_13 
REMARK    5  A    between atoms: C10_13  and  O1_14 
REMARK    6  A    between atoms: S1_18  and  C14_19 
REMARK    7  A    between atoms: C14_19  and  N4_20 
ROOT
HETATM    1  C1  UNL     1      26.444   3.949  49.468  1.00  0.00     0.039 C 
HETATM    2  C2  UNL     1      24.936   3.706  49.411  1.00  0.00     0.135 A 
HETATM    3  C3  UNL     1      24.058   3.020  50.238  1.00  0.00     0.040 A 
HETATM    4  N1  UNL     1      23.376   3.495  49.213  1.00  0.00    -0.351 N 
HETATM    5  C4  UNL     1      22.490   3.310  48.348  1.00  0.00     0.089 C 
HETATM    6  C5  UNL     1      21.766   1.953  48.356  1.00  0.00     0.054 C 
HETATM    7  C6  UNL     1      21.812   1.250  49.706  1.00  0.00     0.011 C 
HETATM    8  C7  UNL     1      21.013   0.637  50.714  1.00  0.00     0.297 A 
HETATM    9  N2  UNL     1      21.747   0.080  51.944  1.00  0.00    -0.057 NA
HETATM   10  C8  UNL     1      23.002   0.735  52.202  1.00  0.00     0.173 A 
HETATM   11  C11 UNL     1      24.393   1.606  52.069  1.00  0.00     0.112 A 
HETATM   12  C12 UNL     1      24.812   2.531  51.314  1.00  0.00    -0.015 A 
HETATM   13  C13 UNL     1      25.743   2.139  52.421  1.00  0.00     0.097 A 
HETATM   14  S1  UNL     1      24.640   0.780  53.179  1.00  0.00    -0.142 SA
HETATM   15  C14 UNL     1      23.334   0.999  52.012  1.00  0.00     0.255 A 
HETATM   16  N4  UNL     1      22.138   0.833  51.319  1.00  0.00     0.054 N 
HETATM   17  H16 UNL     1      22.091   1.828  50.966  1.00  0.00     0.308 HD
ENDROOT
BRANCH  10  18
HETATM   18  N3  UNL     1      22.660   0.364  53.697  1.00  0.00    -0.389 N 
HETATM   19  H9  UNL     1      23.425   0.715  54.423  1.00  0.00     0.156 HD
BRANCH  18  20
HETATM   20  C9  UNL     1      21.618  -0.278  54.531  1.00  0.00     0.142 C 
BRANCH  20  21
HETATM   21  C10 UNL     1      21.951  -1.745  54.740  1.00  0.00     0.183 C 
BRANCH  21  22
HETATM   22  O1  UNL     1      22.883  -1.771  55.764  1.00  0.00    -0.399 OA
HETATM   23  H14 UNL     1      23.704  -1.244  55.522  1.00  0.00     0.209 HD
ENDBRANCH  21  22
ENDBRANCH  20  21
ENDBRANCH  18  20
ENDBRANCH  10  18
TORSDOF 7
ENDMDL
MODEL 9
REMARK VINA RESULT:      -6.4      3.686      6.300
REMARK  7 active torsions:
REMARK  status: ('A' for Active; 'I' for Inactive)
REMARK    1  A    between atoms: C8_10  and  N3_11 
REMARK    2  A    between atoms: C8_10  and  S1_18 
REMARK    3  A    between atoms: N3_11  and  C9_12 
REMARK    4  A    between atoms: C9_12  and  C10_13 
REMARK    5  A    between atoms: C10_13  and  O1_14 
REMARK    6  A    between atoms: S1_18  and  C14_19 
REMARK    7  A    between atoms: C14_19  and  N4_20 
ROOT
HETATM    1  C1  UNL     1      26.982   1.230  52.510  1.00  0.00     0.039 C 
HETATM    2  C2  UNL     1      25.843   1.974  51.813  1.00  0.00     0.135 A 
HETATM    3  C3  UNL     1      24.465   1.807  51.816  1.00  0.00     0.040 A 
HETATM    4  N1  UNL     1      24.760   2.803  51.002  1.00  0.00    -0.351 N 
HETATM    5  C4  UNL     1      24.550   3.383  49.913  1.00  0.00     0.089 C 
HETATM    6  C5  UNL     1      23.478   2.784  48.987  1.00  0.00     0.054 C 
HETATM    7  C6  UNL     1      22.451   1.932  49.721  1.00  0.00     0.011 C 
HETATM    8  C7  UNL     1      21.056   1.735  49.932  1.00  0.00     0.297 A 
HETATM    9  N2  UNL     1      20.646   0.602  50.886  1.00  0.00    -0.057 NA
HETATM   10  C8  UNL     1      21.659   0.285  51.859  1.00  0.00     0.173 A 
HETATM   11  C11 UNL     1      23.079   0.134  52.678  1.00  0.00     0.112 A 
HETATM   12  C12 UNL     1      24.186   0.746  52.689  1.00  0.00    -0.015 A 
HETATM   13  C13 UNL     1      24.055  -0.354  53.698  1.00  0.00     0.097 A 
HETATM   14  S1  UNL     1      22.282  -0.884  53.231  1.00  0.00    -0.142 SA
HETATM   15  C14 UNL     1      22.111   0.326  51.958  1.00  0.00     0.255 A 
HETATM   16  N4  UNL     1      21.590   1.073  50.905  1.00  0.00     0.054 N 
HETATM   17  H16 UNL     1      22.163   1.937  51.106  1.00  0.00     0.308 HD
ENDROOT
BRANCH  10  18
HETATM   18  N3  UNL     1      20.407  -0.108  52.737  1.00  0.00    -0.389 N 
HETATM   19  H9  UNL     1      20.670  -0.365  53.786  1.00  0.00     0.156 HD
BRANCH  18  20
HETATM   20  C9  UNL     1      18.932  -0.224  52.681  1.00  0.00     0.142 C 
BRANCH  20  21
HETATM   21  C10 UNL     1      18.488  -1.523  53.329  1.00  0.00     0.183 C 
BRANCH  21  22
HETATM   22  O1  UNL     1      17.351  -1.207  54.054  1.00  0.00    -0.399 OA
HETATM   23  H14 UNL     1      17.588  -0.780  54.933  1.00  0.00     0.209 HD
ENDBRANCH  21  22
ENDBRANCH  20  21
ENDBRANCH  18  20
ENDBRANCH  10  18
TORSDOF 7
ENDMDL
