MODEL 1
REMARK VINA RESULT:      -8.1      0.000      0.000
REMARK  3 active torsions:
REMARK  status: ('A' for Active; 'I' for Inactive)
REMARK    1  A    between atoms: C2_2  and  C3_3 
REMARK       I    between atoms: C3_3  and  N1_5 
REMARK    2  A    between atoms: C13_18  and  C14_19 
REMARK    3  A    between atoms: C15_20  and  C16_21 
ROOT
HETATM    1  C3  UNL     1      28.444   0.671  53.482  1.00  0.00     0.220 C 
HETATM    2  O1  UNL     1      28.700   1.877  53.138  1.00  0.00    -0.273 OA
HETATM    3  N1  UNL     1      27.068   0.807  53.854  1.00  0.00    -0.347 N 
HETATM    4  C4  UNL     1      26.519   2.117  53.736  1.00  0.00     0.132 C 
HETATM    5  C5  UNL     1      25.473   2.180  52.612  1.00  0.00     0.078 C 
HETATM    6  C6  UNL     1      24.339   1.270  52.939  1.00  0.00     0.031 A 
HETATM    7  C7  UNL     1      24.724   0.269  53.751  1.00  0.00     0.027 A 
HETATM    8  C8  UNL     1      26.006  -0.084  54.351  1.00  0.00     0.174 C 
HETATM    9  S1  UNL     1      23.286  -0.783  54.103  1.00  0.00    -0.053 SA
HETATM   10  C9  UNL     1      22.209   0.223  53.086  1.00  0.00     0.175 A 
HETATM   11  N2  UNL     1      20.979  -0.161  53.011  1.00  0.00    -0.218 NA
HETATM   12  C10 UNL     1      19.779   0.262  52.371  1.00  0.00     0.229 C 
HETATM   13  N3  UNL     1      19.481   1.239  51.586  1.00  0.00    -0.283 NA
HETATM   14  C11 UNL     1      20.212   2.343  50.996  1.00  0.00     0.152 C 
HETATM   15  C12 UNL     1      21.237   2.901  51.968  1.00  0.00     0.051 C 
HETATM   16  C13 UNL     1      22.618   2.376  51.684  1.00  0.00     0.116 C 
HETATM   17  N4  UNL     1      23.000   1.282  52.561  1.00  0.00    -0.320 N 
ENDROOT
BRANCH  16  18
HETATM   18  C14 UNL     1      22.745   1.967  50.265  1.00  0.00    -0.001 C 
HETATM   19  C15 UNL     1      23.393   2.698  49.373  1.00  0.00    -0.002 C 
BRANCH  19  20
HETATM   20  C16 UNL     1      24.022   3.952  49.727  1.00  0.00    -0.005 C 
HETATM   21  C17 UNL     1      25.219   4.286  49.240  1.00  0.00    -0.031 C 
HETATM   22  C18 UNL     1      25.964   5.518  49.518  1.00  0.00     0.036 C 
ENDBRANCH  19  20
ENDBRANCH  16  18
BRANCH   1  23
HETATM   23  C2  UNL     1      29.528  -0.292  53.380  1.00  0.00     0.061 C 
HETATM   24  C1  UNL     1      29.404  -1.632  53.353  1.00  0.00     0.051 C 
ENDBRANCH   1  23
TORSDOF 3
ENDMDL
MODEL 2
REMARK VINA RESULT:      -7.8      2.262      5.700
REMARK  3 active torsions:
REMARK  status: ('A' for Active; 'I' for Inactive)
REMARK    1  A    between atoms: C2_2  and  C3_3 
REMARK       I    between atoms: C3_3  and  N1_5 
REMARK    2  A    between atoms: C13_18  and  C14_19 
REMARK    3  A    between atoms: C15_20  and  C16_21 
ROOT
HETATM    1  C3  UNL     1      26.763   5.356  48.993  1.00  0.00     0.220 C 
HETATM    2  O1  UNL     1      27.886   4.745  48.939  1.00  0.00    -0.273 OA
HETATM    3  N1  UNL     1      25.895   4.255  49.279  1.00  0.00    -0.347 N 
HETATM    4  C4  UNL     1      26.523   2.979  49.381  1.00  0.00     0.132 C 
HETATM    5  C5  UNL     1      26.479   2.455  50.825  1.00  0.00     0.078 C 
HETATM    6  C6  UNL     1      25.061   2.266  51.240  1.00  0.00     0.031 A 
HETATM    7  C7  UNL     1      24.231   3.071  50.554  1.00  0.00     0.027 A 
HETATM    8  C8  UNL     1      24.453   4.067  49.511  1.00  0.00     0.174 C 
HETATM    9  S1  UNL     1      22.529   2.773  51.116  1.00  0.00    -0.053 SA
HETATM   10  C9  UNL     1      23.060   1.538  52.299  1.00  0.00     0.175 A 
HETATM   11  N2  UNL     1      22.126   0.993  53.006  1.00  0.00    -0.218 NA
HETATM   12  C10 UNL     1      22.017   0.011  54.031  1.00  0.00     0.229 C 
HETATM   13  N3  UNL     1      22.868  -0.724  54.659  1.00  0.00    -0.283 NA
HETATM   14  C11 UNL     1      24.307  -0.893  54.619  1.00  0.00     0.152 C 
HETATM   15  C12 UNL     1      24.830  -0.791  53.197  1.00  0.00     0.051 C 
HETATM   16  C13 UNL     1      25.397   0.572  52.908  1.00  0.00     0.116 C 
HETATM   17  N4  UNL     1      24.472   1.429  52.184  1.00  0.00    -0.320 N 
ENDROOT
BRANCH  16  18
HETATM   18  C14 UNL     1      25.842   1.235  54.157  1.00  0.00    -0.001 C 
HETATM   19  C15 UNL     1      27.114   1.287  54.516  1.00  0.00    -0.002 C 
BRANCH  19  20
HETATM   20  C16 UNL     1      28.159   0.697  53.708  1.00  0.00    -0.005 C 
HETATM   21  C17 UNL     1      28.857  -0.355  54.140  1.00  0.00    -0.031 C 
HETATM   22  C18 UNL     1      29.935  -1.044  53.425  1.00  0.00     0.036 C 
ENDBRANCH  19  20
ENDBRANCH  16  18
BRANCH   1  23
HETATM   23  C2  UNL     1      26.779   6.792  48.767  1.00  0.00     0.061 C 
HETATM   24  C1  UNL     1      27.386   7.431  47.750  1.00  0.00     0.051 C 
ENDBRANCH   1  23
TORSDOF 3
ENDMDL
MODEL 3
REMARK VINA RESULT:      -7.3      2.354      4.330
REMARK  3 active torsions:
REMARK  status: ('A' for Active; 'I' for Inactive)
REMARK    1  A    between atoms: C2_2  and  C3_3 
REMARK       I    between atoms: C3_3  and  N1_5 
REMARK    2  A    between atoms: C13_18  and  C14_19 
REMARK    3  A    between atoms: C15_20  and  C16_21 
ROOT
HETATM    1  C3  UNL     1      27.608   0.458  54.000  1.00  0.00     0.220 C 
HETATM    2  O1  UNL     1      27.004  -0.619  54.338  1.00  0.00    -0.273 OA
HETATM    3  N1  UNL     1      26.924   0.753  52.778  1.00  0.00    -0.347 N 
HETATM    4  C4  UNL     1      25.913  -0.176  52.393  1.00  0.00     0.132 C 
HETATM    5  C5  UNL     1      24.516   0.457  52.486  1.00  0.00     0.078 C 
HETATM    6  C6  UNL     1      24.426   1.602  51.537  1.00  0.00     0.031 A 
HETATM    7  C7  UNL     1      25.635   2.134  51.285  1.00  0.00     0.027 A 
HETATM    8  C8  UNL     1      26.979   1.809  51.754  1.00  0.00     0.174 C 
HETATM    9  S1  UNL     1      25.437   3.513  50.120  1.00  0.00    -0.053 SA
HETATM   10  C9  UNL     1      23.662   3.290  50.047  1.00  0.00     0.175 A 
HETATM   11  N2  UNL     1      23.019   4.111  49.286  1.00  0.00    -0.218 NA
HETATM   12  C10 UNL     1      21.671   4.352  48.896  1.00  0.00     0.229 C 
HETATM   13  N3  UNL     1      20.543   3.803  49.190  1.00  0.00    -0.283 NA
HETATM   14  C11 UNL     1      20.125   2.704  50.038  1.00  0.00     0.152 C 
HETATM   15  C12 UNL     1      21.132   1.568  49.997  1.00  0.00     0.051 C 
HETATM   16  C13 UNL     1      22.052   1.594  51.187  1.00  0.00     0.116 C 
HETATM   17  N4  UNL     1      23.343   2.192  50.893  1.00  0.00    -0.320 N 
ENDROOT
BRANCH  16  18
HETATM   18  C14 UNL     1      21.413   2.286  52.332  1.00  0.00    -0.001 C 
HETATM   19  C15 UNL     1      20.912   1.630  53.365  1.00  0.00    -0.002 C 
BRANCH  19  20
HETATM   20  C16 UNL     1      20.955   0.186  53.444  1.00  0.00    -0.005 C 
HETATM   21  C17 UNL     1      21.548  -0.433  54.467  1.00  0.00    -0.031 C 
HETATM   22  C18 UNL     1      21.662  -1.881  54.667  1.00  0.00     0.036 C 
ENDBRANCH  19  20
ENDBRANCH  16  18
BRANCH   1  23
HETATM   23  C2  UNL     1      28.657   0.936  54.887  1.00  0.00     0.061 C 
HETATM   24  C1  UNL     1      29.495   1.961  54.649  1.00  0.00     0.051 C 
ENDBRANCH   1  23
TORSDOF 3
ENDMDL
MODEL 4
REMARK VINA RESULT:      -7.3      2.886      6.550
REMARK  3 active torsions:
REMARK  status: ('A' for Active; 'I' for Inactive)
REMARK    1  A    between atoms: C2_2  and  C3_3 
REMARK       I    between atoms: C3_3  and  N1_5 
REMARK    2  A    between atoms: C13_18  and  C14_19 
REMARK    3  A    between atoms: C15_20  and  C16_21 
ROOT
HETATM    1  C3  UNL     1      18.361   1.842  50.432  1.00  0.00     0.220 C 
HETATM    2  O1  UNL     1      19.045   2.264  49.435  1.00  0.00    -0.273 OA
HETATM    3  N1  UNL     1      19.266   0.863  50.955  1.00  0.00    -0.347 N 
HETATM    4  C4  UNL     1      20.491   0.705  50.242  1.00  0.00     0.132 C 
HETATM    5  C5  UNL     1      21.683   1.201  51.075  1.00  0.00     0.078 C 
HETATM    6  C6  UNL     1      21.800   0.378  52.312  1.00  0.00     0.031 A 
HETATM    7  C7  UNL     1      20.618  -0.153  52.669  1.00  0.00     0.027 A 
HETATM    8  C8  UNL     1      19.281  -0.076  52.090  1.00  0.00     0.174 C 
HETATM    9  S1  UNL     1      20.851  -1.142  54.174  1.00  0.00    -0.053 SA
HETATM   10  C9  UNL     1      22.598  -0.756  54.243  1.00  0.00     0.175 A 
HETATM   11  N2  UNL     1      23.253  -1.271  55.230  1.00  0.00    -0.218 NA
HETATM   12  C10 UNL     1      24.590  -1.276  55.720  1.00  0.00     0.229 C 
HETATM   13  N3  UNL     1      25.688  -0.727  55.328  1.00  0.00    -0.283 NA
HETATM   14  C11 UNL     1      26.070   0.137  54.228  1.00  0.00     0.152 C 
HETATM   15  C12 UNL     1      25.326  -0.236  52.957  1.00  0.00     0.051 C 
HETATM   16  C13 UNL     1      24.149   0.668  52.715  1.00  0.00     0.116 C 
HETATM   17  N4  UNL     1      22.886   0.078  53.129  1.00  0.00    -0.320 N 
ENDROOT
BRANCH  16  18
HETATM   18  C14 UNL     1      24.345   1.980  53.377  1.00  0.00    -0.001 C 
HETATM   19  C15 UNL     1      24.729   3.057  52.714  1.00  0.00    -0.002 C 
BRANCH  19  20
HETATM   20  C16 UNL     1      24.983   3.026  51.290  1.00  0.00    -0.005 C 
HETATM   21  C17 UNL     1      26.201   3.261  50.800  1.00  0.00    -0.031 C 
HETATM   22  C18 UNL     1      26.592   3.260  49.386  1.00  0.00     0.036 C 
ENDBRANCH  19  20
ENDBRANCH  16  18
BRANCH   1  23
HETATM   23  C2  UNL     1      17.056   2.446  50.644  1.00  0.00     0.061 C 
HETATM   24  C1  UNL     1      16.737   3.335  51.603  1.00  0.00     0.051 C 
ENDBRANCH   1  23
TORSDOF 3
ENDMDL
MODEL 5
REMARK VINA RESULT:      -6.9      3.112      5.861
REMARK  3 active torsions:
REMARK  status: ('A' for Active; 'I' for Inactive)
REMARK    1  A    between atoms: C2_2  and  C3_3 
REMARK       I    between atoms: C3_3  and  N1_5 
REMARK    2  A    between atoms: C13_18  and  C14_19 
REMARK    3  A    between atoms: C15_20  and  C16_21 
ROOT
HETATM    1  C3  UNL     1      28.357   6.203  48.626  1.00  0.00     0.220 C 
HETATM    2  O1  UNL     1      29.107   5.168  48.694  1.00  0.00    -0.273 OA
HETATM    3  N1  UNL     1      27.070   5.575  48.620  1.00  0.00    -0.347 N 
HETATM    4  C4  UNL     1      27.073   4.151  48.673  1.00  0.00     0.132 C 
HETATM    5  C5  UNL     1      26.514   3.645  50.013  1.00  0.00     0.078 C 
HETATM    6  C6  UNL     1      25.093   4.074  50.150  1.00  0.00     0.031 A 
HETATM    7  C7  UNL     1      24.838   5.183  49.434  1.00  0.00     0.027 A 
HETATM    8  C8  UNL     1      25.667   6.021  48.574  1.00  0.00     0.174 C 
HETATM    9  S1  UNL     1      23.091   5.631  49.651  1.00  0.00    -0.053 SA
HETATM   10  C9  UNL     1      22.799   4.245  50.748  1.00  0.00     0.175 A 
HETATM   11  N2  UNL     1      21.598   4.133  51.210  1.00  0.00    -0.218 NA
HETATM   12  C10 UNL     1      20.878   3.259  52.073  1.00  0.00     0.229 C 
HETATM   13  N3  UNL     1      21.193   2.206  52.745  1.00  0.00    -0.283 NA
HETATM   14  C11 UNL     1      22.405   1.433  52.935  1.00  0.00     0.152 C 
HETATM   15  C12 UNL     1      23.207   1.350  51.648  1.00  0.00     0.051 C 
HETATM   16  C13 UNL     1      24.337   2.342  51.630  1.00  0.00     0.116 C 
HETATM   17  N4  UNL     1      24.027   3.540  50.867  1.00  0.00    -0.320 N 
ENDROOT
BRANCH  16  18
HETATM   18  C14 UNL     1      24.746   2.702  53.009  1.00  0.00    -0.001 C 
HETATM   19  C15 UNL     1      25.755   2.110  53.626  1.00  0.00    -0.002 C 
BRANCH  19  20
HETATM   20  C16 UNL     1      26.529   1.066  52.990  1.00  0.00    -0.005 C 
HETATM   21  C17 UNL     1      26.329  -0.220  53.284  1.00  0.00    -0.031 C 
HETATM   22  C18 UNL     1      27.041  -1.369  52.716  1.00  0.00     0.036 C 
ENDBRANCH  19  20
ENDBRANCH  16  18
BRANCH   1  23
HETATM   23  C2  UNL     1      29.016   7.497  48.583  1.00  0.00     0.061 C 
HETATM   24  C1  UNL     1      28.421   8.699  48.702  1.00  0.00     0.051 C 
ENDBRANCH   1  23
TORSDOF 3
ENDMDL
MODEL 6
REMARK VINA RESULT:      -6.3      2.804      5.657
REMARK  3 active torsions:
REMARK  status: ('A' for Active; 'I' for Inactive)
REMARK    1  A    between atoms: C2_2  and  C3_3 
REMARK       I    between atoms: C3_3  and  N1_5 
REMARK    2  A    between atoms: C13_18  and  C14_19 
REMARK    3  A    between atoms: C15_20  and  C16_21 
ROOT
HETATM    1  C3  UNL     1      25.887   6.308  49.301  1.00  0.00     0.220 C 
HETATM    2  O1  UNL     1      26.792   5.403  49.264  1.00  0.00    -0.273 OA
HETATM    3  N1  UNL     1      24.721   5.501  49.105  1.00  0.00    -0.347 N 
HETATM    4  C4  UNL     1      24.953   4.104  48.939  1.00  0.00     0.132 C 
HETATM    5  C5  UNL     1      24.420   3.308  50.140  1.00  0.00     0.078 C 
HETATM    6  C6  UNL     1      22.944   3.486  50.236  1.00  0.00     0.031 A 
HETATM    7  C7  UNL     1      22.546   4.644  49.682  1.00  0.00     0.027 A 
HETATM    8  C8  UNL     1      23.268   5.728  49.024  1.00  0.00     0.174 C 
HETATM    9  S1  UNL     1      20.741   4.778  49.836  1.00  0.00    -0.053 SA
HETATM   10  C9  UNL     1      20.626   3.204  50.683  1.00  0.00     0.175 A 
HETATM   11  N2  UNL     1      19.438   2.836  51.033  1.00  0.00    -0.218 NA
HETATM   12  C10 UNL     1      18.829   1.733  51.697  1.00  0.00     0.229 C 
HETATM   13  N3  UNL     1      19.279   0.645  52.220  1.00  0.00    -0.283 NA
HETATM   14  C11 UNL     1      20.590   0.046  52.378  1.00  0.00     0.152 C 
HETATM   15  C12 UNL     1      21.456   0.297  51.156  1.00  0.00     0.051 C 
HETATM   16  C13 UNL     1      22.409   1.441  51.374  1.00  0.00     0.116 C 
HETATM   17  N4  UNL     1      21.945   2.685  50.783  1.00  0.00    -0.320 N 
ENDROOT
BRANCH  16  18
HETATM   18  C14 UNL     1      22.686   1.629  52.818  1.00  0.00    -0.001 C 
HETATM   19  C15 UNL     1      23.830   1.265  53.372  1.00  0.00    -0.002 C 
BRANCH  19  20
HETATM   20  C16 UNL     1      24.891   0.655  52.600  1.00  0.00    -0.005 C 
HETATM   21  C17 UNL     1      25.539  -0.423  53.046  1.00  0.00    -0.031 C 
HETATM   22  C18 UNL     1      26.627  -1.133  52.367  1.00  0.00     0.036 C 
ENDBRANCH  19  20
ENDBRANCH  16  18
BRANCH   1  23
HETATM   23  C2  UNL     1      26.328   7.678  49.506  1.00  0.00     0.061 C 
HETATM   24  C1  UNL     1      25.610   8.671  50.063  1.00  0.00     0.051 C 
ENDBRANCH   1  23
TORSDOF 3
ENDMDL
MODEL 7
REMARK VINA RESULT:      -6.1      3.036      6.778
REMARK  3 active torsions:
REMARK  status: ('A' for Active; 'I' for Inactive)
REMARK    1  A    between atoms: C2_2  and  C3_3 
REMARK       I    between atoms: C3_3  and  N1_5 
REMARK    2  A    between atoms: C13_18  and  C14_19 
REMARK    3  A    between atoms: C15_20  and  C16_21 
ROOT
HETATM    1  C3  UNL     1      17.543   2.343  51.249  1.00  0.00     0.220 C 
HETATM    2  O1  UNL     1      17.961   3.043  50.262  1.00  0.00    -0.273 OA
HETATM    3  N1  UNL     1      18.640   1.434  51.390  1.00  0.00    -0.347 N 
HETATM    4  C4  UNL     1      19.708   1.600  50.460  1.00  0.00     0.132 C 
HETATM    5  C5  UNL     1      20.977   2.109  51.161  1.00  0.00     0.078 C 
HETATM    6  C6  UNL     1      21.432   1.098  52.157  1.00  0.00     0.031 A 
HETATM    7  C7  UNL     1      20.414   0.336  52.592  1.00  0.00     0.027 A 
HETATM    8  C8  UNL     1      18.988   0.314  52.281  1.00  0.00     0.174 C 
HETATM    9  S1  UNL     1      21.054  -0.868  53.791  1.00  0.00    -0.053 SA
HETATM   10  C9  UNL     1      22.724  -0.240  53.638  1.00  0.00     0.175 A 
HETATM   11  N2  UNL     1      23.617  -0.823  54.366  1.00  0.00    -0.218 NA
HETATM   12  C10 UNL     1      25.017  -0.714  54.607  1.00  0.00     0.229 C 
HETATM   13  N3  UNL     1      25.944   0.059  54.157  1.00  0.00    -0.283 NA
HETATM   14  C11 UNL     1      25.997   1.160  53.215  1.00  0.00     0.152 C 
HETATM   15  C12 UNL     1      25.063   0.921  52.042  1.00  0.00     0.051 C 
HETATM   16  C13 UNL     1      23.765   1.664  52.203  1.00  0.00     0.116 C 
HETATM   17  N4  UNL     1      22.686   0.821  52.693  1.00  0.00    -0.320 N 
ENDROOT
BRANCH  16  18
HETATM   18  C14 UNL     1      23.937   2.844  53.083  1.00  0.00    -0.001 C 
HETATM   19  C15 UNL     1      23.988   4.078  52.612  1.00  0.00    -0.002 C 
BRANCH  19  20
HETATM   20  C16 UNL     1      23.878   4.358  51.196  1.00  0.00    -0.005 C 
HETATM   21  C17 UNL     1      23.141   5.376  50.749  1.00  0.00    -0.031 C 
HETATM   22  C18 UNL     1      22.946   5.767  49.349  1.00  0.00     0.036 C 
ENDBRANCH  19  20
ENDBRANCH  16  18
BRANCH   1  23
HETATM   23  C2  UNL     1      16.246   2.691  51.805  1.00  0.00     0.061 C 
HETATM   24  C1  UNL     1      15.078   2.072  51.550  1.00  0.00     0.051 C 
ENDBRANCH   1  23
TORSDOF 3
ENDMDL
MODEL 8
REMARK VINA RESULT:      -6.0     22.898     26.212
REMARK  3 active torsions:
REMARK  status: ('A' for Active; 'I' for Inactive)
REMARK    1  A    between atoms: C2_2  and  C3_3 
REMARK       I    between atoms: C3_3  and  N1_5 
REMARK    2  A    between atoms: C13_18  and  C14_19 
REMARK    3  A    between atoms: C15_20  and  C16_21 
ROOT
HETATM    1  C3  UNL     1      41.845   0.799  68.287  1.00  0.00     0.220 C 
HETATM    2  O1  UNL     1      42.682   0.615  67.335  1.00  0.00    -0.273 OA
HETATM    3  N1  UNL     1      42.614   1.663  69.130  1.00  0.00    -0.347 N 
HETATM    4  C4  UNL     1      43.925   1.977  68.667  1.00  0.00     0.132 C 
HETATM    5  C5  UNL     1      44.032   3.458  68.271  1.00  0.00     0.078 C 
HETATM    6  C6  UNL     1      43.787   4.310  69.470  1.00  0.00     0.031 A 
HETATM    7  C7  UNL     1      43.026   3.679  70.380  1.00  0.00     0.027 A 
HETATM    8  C8  UNL     1      42.411   2.356  70.414  1.00  0.00     0.174 C 
HETATM    9  S1  UNL     1      42.783   4.779  71.804  1.00  0.00    -0.053 SA
HETATM   10  C9  UNL     1      43.754   6.084  71.053  1.00  0.00     0.175 A 
HETATM   11  N2  UNL     1      43.875   7.169  71.742  1.00  0.00    -0.218 NA
HETATM   12  C10 UNL     1      44.506   8.438  71.609  1.00  0.00     0.229 C 
HETATM   13  N3  UNL     1      45.222   8.988  70.690  1.00  0.00    -0.283 NA
HETATM   14  C11 UNL     1      45.709   8.583  69.386  1.00  0.00     0.152 C 
HETATM   15  C12 UNL     1      46.100   7.116  69.381  1.00  0.00     0.051 C 
HETATM   16  C13 UNL     1      45.020   6.253  68.787  1.00  0.00     0.116 C 
HETATM   17  N4  UNL     1      44.198   5.600  69.792  1.00  0.00    -0.320 N 
ENDROOT
BRANCH  16  18
HETATM   18  C14 UNL     1      44.170   7.037  67.858  1.00  0.00    -0.001 C 
HETATM   19  C15 UNL     1      44.248   6.905  66.545  1.00  0.00    -0.002 C 
BRANCH  19  20
HETATM   20  C16 UNL     1      45.173   5.981  65.926  1.00  0.00    -0.005 C 
HETATM   21  C17 UNL     1      44.844   5.310  64.820  1.00  0.00    -0.031 C 
HETATM   22  C18 UNL     1      45.684   4.350  64.096  1.00  0.00     0.036 C 
ENDBRANCH  19  20
ENDBRANCH  16  18
BRANCH   1  23
HETATM   23  C2  UNL     1      40.558   0.132  68.174  1.00  0.00     0.061 C 
HETATM   24  C1  UNL     1      40.056  -0.447  67.067  1.00  0.00     0.051 C 
ENDBRANCH   1  23
TORSDOF 3
ENDMDL
MODEL 9
REMARK VINA RESULT:      -5.9      3.548      6.590
REMARK  3 active torsions:
REMARK  status: ('A' for Active; 'I' for Inactive)
REMARK    1  A    between atoms: C2_2  and  C3_3 
REMARK       I    between atoms: C3_3  and  N1_5 
REMARK    2  A    between atoms: C13_18  and  C14_19 
REMARK    3  A    between atoms: C15_20  and  C16_21 
ROOT
HETATM    1  C3  UNL     1      21.232   7.166  48.821  1.00  0.00     0.220 C 
HETATM    2  O1  UNL     1      22.327   6.937  48.199  1.00  0.00    -0.273 OA
HETATM    3  N1  UNL     1      20.858   5.828  49.167  1.00  0.00    -0.347 N 
HETATM    4  C4  UNL     1      21.747   4.802  48.728  1.00  0.00     0.132 C 
HETATM    5  C5  UNL     1      22.461   4.142  49.918  1.00  0.00     0.078 C 
HETATM    6  C6  UNL     1      21.453   3.486  50.798  1.00  0.00     0.031 A 
HETATM    7  C7  UNL     1      20.245   4.066  50.688  1.00  0.00     0.027 A 
HETATM    8  C8  UNL     1      19.750   5.184  49.892  1.00  0.00     0.174 C 
HETATM    9  S1  UNL     1      19.081   3.205  51.784  1.00  0.00    -0.053 SA
HETATM   10  C9  UNL     1      20.346   2.074  52.358  1.00  0.00     0.175 A 
HETATM   11  N2  UNL     1      19.970   1.200  53.231  1.00  0.00    -0.218 NA
HETATM   12  C10 UNL     1      20.551   0.130  53.970  1.00  0.00     0.229 C 
HETATM   13  N3  UNL     1      21.736  -0.371  54.036  1.00  0.00    -0.283 NA
HETATM   14  C11 UNL     1      23.009  -0.086  53.402  1.00  0.00     0.152 C 
HETATM   15  C12 UNL     1      22.819   0.319  51.951  1.00  0.00     0.051 C 
HETATM   16  C13 UNL     1      22.868   1.812  51.777  1.00  0.00     0.116 C 
HETATM   17  N4  UNL     1      21.549   2.416  51.682  1.00  0.00    -0.320 N 
ENDROOT
BRANCH  16  18
HETATM   18  C14 UNL     1      23.646   2.445  52.869  1.00  0.00    -0.001 C 
HETATM   19  C15 UNL     1      24.917   2.780  52.731  1.00  0.00    -0.002 C 
BRANCH  19  20
HETATM   20  C16 UNL     1      25.636   2.548  51.497  1.00  0.00    -0.005 C 
HETATM   21  C17 UNL     1      25.943   3.555  50.676  1.00  0.00    -0.031 C 
HETATM   22  C18 UNL     1      26.664   3.458  49.403  1.00  0.00     0.036 C 
ENDBRANCH  19  20
ENDBRANCH  16  18
BRANCH   1  23
HETATM   23  C2  UNL     1      20.812   8.553  48.934  1.00  0.00     0.061 C 
HETATM   24  C1  UNL     1      19.952   9.053  49.841  1.00  0.00     0.051 C 
ENDBRANCH   1  23
TORSDOF 3
ENDMDL
