MODEL 1
REMARK VINA RESULT:      -8.0      0.000      0.000
REMARK  6 active torsions:
REMARK  status: ('A' for Active; 'I' for Inactive)
REMARK    1  A    between atoms: C13_14  and  C14_15 
REMARK    2  A    between atoms: C14_15  and  O3_17 
REMARK    3  A    between atoms: C16_19  and  O4_20 
REMARK    4  A    between atoms: O4_20  and  C17_21 
REMARK    5  A    between atoms: C17_21  and  C18_22 
REMARK    6  A    between atoms: C18_22  and  N1_23 
ROOT
HETATM    1  C1  UNL     1      28.350   1.695  52.988  1.00  0.00     0.023 C 
HETATM    2  C2  UNL     1      27.095   2.020  52.803  1.00  0.00    -0.046 A 
HETATM    3  C3  UNL     1      26.512   1.799  51.481  1.00  0.00     0.008 A 
HETATM    4  C4  UNL     1      25.238   2.156  51.422  1.00  0.00    -0.003 A 
HETATM    5  C5  UNL     1      24.318   2.722  52.418  1.00  0.00     0.066 A 
HETATM    6  C6  UNL     1      24.974   2.921  53.735  1.00  0.00    -0.003 A 
HETATM    7  C7  UNL     1      26.266   2.581  53.868  1.00  0.00     0.008 A 
HETATM    8  C8  UNL     1      23.644   3.904  51.899  1.00  0.00     0.192 C 
HETATM    9  O1  UNL     1      23.951   5.150  51.643  1.00  0.00    -0.385 OA
HETATM   10  C9  UNL     1      22.665   5.656  51.251  1.00  0.00     0.211 C 
HETATM   11  C10 UNL     1      22.107   4.962  50.044  1.00  0.00     0.026 A 
HETATM   12  C11 UNL     1      21.567   3.960  50.447  1.00  0.00    -0.004 A 
HETATM   13  C12 UNL     1      20.959   2.788  51.105  1.00  0.00     0.089 C 
HETATM   14  C13 UNL     1      21.837   1.986  52.005  1.00  0.00     0.052 C 
HETATM   15  C16 UNL     1      23.070   1.831  52.580  1.00  0.00     0.077 C 
HETATM   16  C20 UNL     1      21.227   3.481  48.995  1.00  0.00     0.125 A 
HETATM   17  O5  UNL     1      20.590   2.374  48.635  1.00  0.00    -0.191 OA
HETATM   18  C21 UNL     1      21.496   4.082  47.635  1.00  0.00     0.015 A 
HETATM   19  C22 UNL     1      21.148   3.548  46.385  1.00  0.00     0.015 A 
HETATM   20  C23 UNL     1      21.508   4.275  45.270  1.00  0.00     0.001 A 
HETATM   21  C24 UNL     1      22.174   5.472  45.282  1.00  0.00     0.001 A 
HETATM   22  C25 UNL     1      22.502   5.969  46.500  1.00  0.00     0.016 A 
HETATM   23  C26 UNL     1      22.161   5.278  47.617  1.00  0.00     0.028 A 
HETATM   24  C27 UNL     1      22.508   5.782  48.939  1.00  0.00     0.192 A 
HETATM   25  O6  UNL     1      23.119   6.877  48.973  1.00  0.00    -0.287 OA
ENDROOT
BRANCH  15  26
HETATM   26  O4  UNL     1      23.433   0.842  53.427  1.00  0.00    -0.351 OA
BRANCH  26  27
HETATM   27  C17 UNL     1      24.063  -0.354  53.135  1.00  0.00     0.205 C 
BRANCH  27  28
HETATM   28  C18 UNL     1      24.850  -0.805  54.379  1.00  0.00     0.295 C 
BRANCH  28  29
HETATM   29  N1  UNL     1      26.213  -1.113  54.074  1.00  0.00     0.081 N 
HETATM   30  C19 UNL     1      26.482  -1.594  52.762  1.00  0.00     0.306 C 
HETATM   31  H20 UNL     1      26.827  -0.315  54.296  1.00  0.00     0.315 HD
ENDBRANCH  28  29
ENDBRANCH  27  28
ENDBRANCH  26  27
ENDBRANCH  15  26
BRANCH  14  32
HETATM   32  C14 UNL     1      21.038   0.885  52.500  1.00  0.00     0.291 C 
HETATM   33  O2  UNL     1      20.689  -0.163  51.853  1.00  0.00    -0.260 OA
BRANCH  32  34
HETATM   34  O3  UNL     1      20.344   0.239  53.402  1.00  0.00    -0.323 OA
HETATM   35  C15 UNL     1      20.503  -1.065  53.870  1.00  0.00     0.213 C 
ENDBRANCH  32  34
ENDBRANCH  14  32
TORSDOF 6
ENDMDL
MODEL 2
REMARK VINA RESULT:      -8.0      4.160      7.101
REMARK  6 active torsions:
REMARK  status: ('A' for Active; 'I' for Inactive)
REMARK    1  A    between atoms: C13_14  and  C14_15 
REMARK    2  A    between atoms: C14_15  and  O3_17 
REMARK    3  A    between atoms: C16_19  and  O4_20 
REMARK    4  A    between atoms: O4_20  and  C17_21 
REMARK    5  A    between atoms: C17_21  and  C18_22 
REMARK    6  A    between atoms: C18_22  and  N1_23 
ROOT
HETATM    1  C1  UNL     1      22.749  -1.225  55.121  1.00  0.00     0.023 C 
HETATM    2  C2  UNL     1      22.049  -0.597  54.209  1.00  0.00    -0.046 A 
HETATM    3  C3  UNL     1      21.010   0.331  54.655  1.00  0.00     0.008 A 
HETATM    4  C4  UNL     1      20.382   0.910  53.645  1.00  0.00    -0.003 A 
HETATM    5  C5  UNL     1      20.528   0.798  52.187  1.00  0.00     0.066 A 
HETATM    6  C6  UNL     1      21.597  -0.159  51.805  1.00  0.00    -0.003 A 
HETATM    7  C7  UNL     1      22.278  -0.785  52.779  1.00  0.00     0.008 A 
HETATM    8  C8  UNL     1      19.244   0.549  51.547  1.00  0.00     0.192 C 
HETATM    9  O1  UNL     1      18.409  -0.451  51.425  1.00  0.00    -0.385 OA
HETATM   10  C9  UNL     1      17.437   0.131  50.542  1.00  0.00     0.211 C 
HETATM   11  C10 UNL     1      16.771   1.343  51.123  1.00  0.00     0.026 A 
HETATM   12  C11 UNL     1      17.504   2.275  50.898  1.00  0.00    -0.004 A 
HETATM   13  C12 UNL     1      18.510   3.295  50.543  1.00  0.00     0.089 C 
HETATM   14  C13 UNL     1      19.918   3.029  50.956  1.00  0.00     0.052 C 
HETATM   15  C16 UNL     1      20.806   2.178  51.557  1.00  0.00     0.077 C 
HETATM   16  C20 UNL     1      16.591   3.269  51.693  1.00  0.00     0.125 A 
HETATM   17  O5  UNL     1      16.782   4.568  51.887  1.00  0.00    -0.191 OA
HETATM   18  C21 UNL     1      15.292   3.082  52.443  1.00  0.00     0.015 A 
HETATM   19  C22 UNL     1      14.562   4.059  53.135  1.00  0.00     0.015 A 
HETATM   20  C23 UNL     1      13.400   3.651  53.757  1.00  0.00     0.001 A 
HETATM   21  C24 UNL     1      12.902   2.375  53.753  1.00  0.00     0.001 A 
HETATM   22  C25 UNL     1      13.625   1.446  53.078  1.00  0.00     0.016 A 
HETATM   23  C26 UNL     1      14.773   1.816  52.455  1.00  0.00     0.028 A 
HETATM   24  C27 UNL     1      15.575   0.839  51.731  1.00  0.00     0.192 A 
HETATM   25  O6  UNL     1      15.138  -0.336  51.715  1.00  0.00    -0.287 OA
ENDROOT
BRANCH  15  26
HETATM   26  O4  UNL     1      22.132   2.390  51.709  1.00  0.00    -0.351 OA
BRANCH  26  27
HETATM   27  C17 UNL     1      22.789   3.020  52.748  1.00  0.00     0.205 C 
BRANCH  27  28
HETATM   28  C18 UNL     1      23.879   3.931  52.153  1.00  0.00     0.295 C 
BRANCH  28  29
HETATM   29  N1  UNL     1      23.593   5.318  52.350  1.00  0.00     0.081 N 
HETATM   30  C19 UNL     1      24.172   6.228  51.422  1.00  0.00     0.306 C 
HETATM   31  H20 UNL     1      22.577   5.475  52.420  1.00  0.00     0.315 HD
ENDBRANCH  28  29
ENDBRANCH  27  28
ENDBRANCH  26  27
ENDBRANCH  15  26
BRANCH  14  32
HETATM   32  C14 UNL     1      20.702   4.170  50.532  1.00  0.00     0.291 C 
HETATM   33  O2  UNL     1      20.757   5.318  51.097  1.00  0.00    -0.260 OA
BRANCH  32  34
HETATM   34  O3  UNL     1      21.540   4.805  49.754  1.00  0.00    -0.323 OA
HETATM   35  C15 UNL     1      22.332   4.309  48.718  1.00  0.00     0.213 C 
ENDBRANCH  32  34
ENDBRANCH  14  32
TORSDOF 6
ENDMDL
MODEL 3
REMARK VINA RESULT:      -7.7      2.923      7.820
REMARK  6 active torsions:
REMARK  status: ('A' for Active; 'I' for Inactive)
REMARK    1  A    between atoms: C13_14  and  C14_15 
REMARK    2  A    between atoms: C14_15  and  O3_17 
REMARK    3  A    between atoms: C16_19  and  O4_20 
REMARK    4  A    between atoms: O4_20  and  C17_21 
REMARK    5  A    between atoms: C17_21  and  C18_22 
REMARK    6  A    between atoms: C18_22  and  N1_23 
ROOT
HETATM    1  C1  UNL     1      20.851   3.970  44.437  1.00  0.00     0.023 C 
HETATM    2  C2  UNL     1      21.245   4.265  45.651  1.00  0.00    -0.046 A 
HETATM    3  C3  UNL     1      22.007   3.260  46.391  1.00  0.00     0.008 A 
HETATM    4  C4  UNL     1      22.357   3.678  47.597  1.00  0.00    -0.003 A 
HETATM    5  C5  UNL     1      22.127   4.937  48.319  1.00  0.00     0.066 A 
HETATM    6  C6  UNL     1      21.349   5.909  47.511  1.00  0.00    -0.003 A 
HETATM    7  C7  UNL     1      20.959   5.554  46.276  1.00  0.00     0.008 A 
HETATM    8  C8  UNL     1      21.585   4.691  49.648  1.00  0.00     0.192 C 
HETATM    9  O1  UNL     1      20.441   4.320  50.164  1.00  0.00    -0.385 OA
HETATM   10  C9  UNL     1      20.744   4.431  51.564  1.00  0.00     0.211 C 
HETATM   11  C10 UNL     1      21.865   3.531  51.992  1.00  0.00     0.026 A 
HETATM   12  C11 UNL     1      22.889   4.121  51.746  1.00  0.00    -0.004 A 
HETATM   13  C12 UNL     1      24.035   4.977  51.381  1.00  0.00     0.089 C 
HETATM   14  C13 UNL     1      24.074   5.494  49.983  1.00  0.00     0.052 C 
HETATM   15  C16 UNL     1      23.464   5.567  48.759  1.00  0.00     0.077 C 
HETATM   16  C20 UNL     1      23.774   2.910  52.196  1.00  0.00     0.125 A 
HETATM   17  O5  UNL     1      25.098   2.831  52.202  1.00  0.00    -0.191 OA
HETATM   18  C21 UNL     1      23.428   1.539  52.730  1.00  0.00     0.015 A 
HETATM   19  C22 UNL     1      24.319   0.519  53.095  1.00  0.00     0.015 A 
HETATM   20  C23 UNL     1      23.769  -0.660  53.552  1.00  0.00     0.001 A 
HETATM   21  C24 UNL     1      22.430  -0.917  53.679  1.00  0.00     0.001 A 
HETATM   22  C25 UNL     1      21.586   0.083  53.320  1.00  0.00     0.016 A 
HETATM   23  C26 UNL     1      22.096   1.256  52.867  1.00  0.00     0.028 A 
HETATM   24  C27 UNL     1      21.215   2.344  52.465  1.00  0.00     0.192 A 
HETATM   25  O6  UNL     1      19.983   2.131  52.572  1.00  0.00    -0.287 OA
ENDROOT
BRANCH  15  26
HETATM   26  O4  UNL     1      23.930   6.232  47.677  1.00  0.00    -0.351 OA
BRANCH  26  27
HETATM   27  C17 UNL     1      23.782   7.569  47.360  1.00  0.00     0.205 C 
BRANCH  27  28
HETATM   28  C18 UNL     1      25.057   8.039  46.634  1.00  0.00     0.295 C 
BRANCH  28  29
HETATM   29  N1  UNL     1      25.900   8.829  47.478  1.00  0.00     0.081 N 
HETATM   30  C19 UNL     1      27.211   9.099  46.998  1.00  0.00     0.306 C 
HETATM   31  H20 UNL     1      25.429   9.706  47.747  1.00  0.00     0.315 HD
ENDBRANCH  28  29
ENDBRANCH  27  28
ENDBRANCH  26  27
ENDBRANCH  15  26
BRANCH  14  32
HETATM   32  C14 UNL     1      25.291   6.269  49.855  1.00  0.00     0.291 C 
HETATM   33  O2  UNL     1      25.536   7.407  50.389  1.00  0.00    -0.260 OA
BRANCH  32  34
HETATM   34  O3  UNL     1      26.503   6.504  49.423  1.00  0.00    -0.323 OA
HETATM   35  C15 UNL     1      27.325   5.709  48.626  1.00  0.00     0.213 C 
ENDBRANCH  32  34
ENDBRANCH  14  32
TORSDOF 6
ENDMDL
MODEL 4
REMARK VINA RESULT:      -7.3      2.019      2.866
REMARK  6 active torsions:
REMARK  status: ('A' for Active; 'I' for Inactive)
REMARK    1  A    between atoms: C13_14  and  C14_15 
REMARK    2  A    between atoms: C14_15  and  O3_17 
REMARK    3  A    between atoms: C16_19  and  O4_20 
REMARK    4  A    between atoms: O4_20  and  C17_21 
REMARK    5  A    between atoms: C17_21  and  C18_22 
REMARK    6  A    between atoms: C18_22  and  N1_23 
ROOT
HETATM    1  C1  UNL     1      27.050   1.036  52.614  1.00  0.00     0.023 C 
HETATM    2  C2  UNL     1      26.040   1.830  52.363  1.00  0.00    -0.046 A 
HETATM    3  C3  UNL     1      25.624   1.998  50.971  1.00  0.00     0.008 A 
HETATM    4  C4  UNL     1      24.589   2.814  50.847  1.00  0.00    -0.003 A 
HETATM    5  C5  UNL     1      23.795   3.569  51.826  1.00  0.00     0.066 A 
HETATM    6  C6  UNL     1      24.271   3.354  53.216  1.00  0.00    -0.003 A 
HETATM    7  C7  UNL     1      25.318   2.537  53.418  1.00  0.00     0.008 A 
HETATM    8  C8  UNL     1      23.679   4.968  51.442  1.00  0.00     0.192 C 
HETATM    9  O1  UNL     1      24.449   6.026  51.423  1.00  0.00    -0.385 OA
HETATM   10  C9  UNL     1      23.506   7.022  50.994  1.00  0.00     0.211 C 
HETATM   11  C10 UNL     1      22.926   6.733  49.642  1.00  0.00     0.026 A 
HETATM   12  C11 UNL     1      22.007   5.971  49.821  1.00  0.00    -0.004 A 
HETATM   13  C12 UNL     1      20.925   5.048  50.218  1.00  0.00     0.089 C 
HETATM   14  C13 UNL     1      21.309   3.877  51.058  1.00  0.00     0.052 C 
HETATM   15  C16 UNL     1      22.301   3.203  51.718  1.00  0.00     0.077 C 
HETATM   16  C20 UNL     1      21.741   5.824  48.285  1.00  0.00     0.125 A 
HETATM   17  O5  UNL     1      20.811   5.089  47.689  1.00  0.00    -0.191 OA
HETATM   18  C21 UNL     1      22.411   6.430  47.073  1.00  0.00     0.015 A 
HETATM   19  C22 UNL     1      22.088   6.213  45.725  1.00  0.00     0.015 A 
HETATM   20  C23 UNL     1      22.850   6.872  44.783  1.00  0.00     0.001 A 
HETATM   21  C24 UNL     1      23.892   7.718  45.054  1.00  0.00     0.001 A 
HETATM   22  C25 UNL     1      24.188   7.913  46.364  1.00  0.00     0.016 A 
HETATM   23  C26 UNL     1      23.457   7.279  47.315  1.00  0.00     0.028 A 
HETATM   24  C27 UNL     1      23.757   7.461  48.729  1.00  0.00     0.192 A 
HETATM   25  O6  UNL     1      24.709   8.231  49.000  1.00  0.00    -0.287 OA
ENDROOT
BRANCH  15  26
HETATM   26  O4  UNL     1      22.151   2.060  52.425  1.00  0.00    -0.351 OA
BRANCH  26  27
HETATM   27  C17 UNL     1      22.235   0.755  51.979  1.00  0.00     0.205 C 
BRANCH  27  28
HETATM   28  C18 UNL     1      21.484  -0.148  52.975  1.00  0.00     0.295 C 
BRANCH  28  29
HETATM   29  N1  UNL     1      20.141   0.289  53.197  1.00  0.00     0.081 N 
HETATM   30  C19 UNL     1      19.146  -0.723  53.289  1.00  0.00     0.306 C 
HETATM   31  H20 UNL     1      20.091   0.916  54.014  1.00  0.00     0.315 HD
ENDBRANCH  28  29
ENDBRANCH  27  28
ENDBRANCH  26  27
ENDBRANCH  15  26
BRANCH  14  32
HETATM   32  C14 UNL     1      20.101   3.111  51.287  1.00  0.00     0.291 C 
HETATM   33  O2  UNL     1      19.293   3.228  52.273  1.00  0.00    -0.260 OA
BRANCH  32  34
HETATM   34  O3  UNL     1      19.208   2.200  51.002  1.00  0.00    -0.323 OA
HETATM   35  C15 UNL     1      17.835   2.203  51.246  1.00  0.00     0.213 C 
ENDBRANCH  32  34
ENDBRANCH  14  32
TORSDOF 6
ENDMDL
MODEL 5
REMARK VINA RESULT:      -7.3      9.036     11.329
REMARK  6 active torsions:
REMARK  status: ('A' for Active; 'I' for Inactive)
REMARK    1  A    between atoms: C13_14  and  C14_15 
REMARK    2  A    between atoms: C14_15  and  O3_17 
REMARK    3  A    between atoms: C16_19  and  O4_20 
REMARK    4  A    between atoms: O4_20  and  C17_21 
REMARK    5  A    between atoms: C17_21  and  C18_22 
REMARK    6  A    between atoms: C18_22  and  N1_23 
ROOT
HETATM    1  C1  UNL     1      33.438   9.367  42.129  1.00  0.00     0.023 C 
HETATM    2  C2  UNL     1      33.170   8.818  43.288  1.00  0.00    -0.046 A 
HETATM    3  C3  UNL     1      31.827   8.281  43.503  1.00  0.00     0.008 A 
HETATM    4  C4  UNL     1      31.683   7.745  44.705  1.00  0.00    -0.003 A 
HETATM    5  C5  UNL     1      32.601   7.590  45.842  1.00  0.00     0.066 A 
HETATM    6  C6  UNL     1      33.943   8.157  45.556  1.00  0.00    -0.003 A 
HETATM    7  C7  UNL     1      34.163   8.718  44.356  1.00  0.00     0.008 A 
HETATM    8  C8  UNL     1      31.997   8.074  47.075  1.00  0.00     0.192 C 
HETATM    9  O1  UNL     1      31.707   9.230  47.614  1.00  0.00    -0.385 OA
HETATM   10  C9  UNL     1      31.223   8.802  48.897  1.00  0.00     0.211 C 
HETATM   11  C10 UNL     1      30.016   7.917  48.800  1.00  0.00     0.026 A 
HETATM   12  C11 UNL     1      30.429   6.799  48.606  1.00  0.00    -0.004 A 
HETATM   13  C12 UNL     1      31.100   5.505  48.373  1.00  0.00     0.089 C 
HETATM   14  C13 UNL     1      32.080   5.444  47.251  1.00  0.00     0.052 C 
HETATM   15  C16 UNL     1      32.729   6.108  46.245  1.00  0.00     0.077 C 
HETATM   16  C20 UNL     1      28.981   6.218  48.461  1.00  0.00     0.125 A 
HETATM   17  O5  UNL     1      28.631   4.961  48.222  1.00  0.00    -0.191 OA
HETATM   18  C21 UNL     1      27.614   6.859  48.542  1.00  0.00     0.015 A 
HETATM   19  C22 UNL     1      26.370   6.231  48.383  1.00  0.00     0.015 A 
HETATM   20  C23 UNL     1      25.248   7.024  48.491  1.00  0.00     0.001 A 
HETATM   21  C24 UNL     1      25.248   8.371  48.741  1.00  0.00     0.001 A 
HETATM   22  C25 UNL     1      26.462   8.959  48.891  1.00  0.00     0.016 A 
HETATM   23  C26 UNL     1      27.585   8.204  48.790  1.00  0.00     0.028 A 
HETATM   24  C27 UNL     1      28.902   8.809  48.937  1.00  0.00     0.192 A 
HETATM   25  O6  UNL     1      28.926  10.041  49.165  1.00  0.00    -0.287 OA
ENDROOT
BRANCH  15  26
HETATM   26  O4  UNL     1      33.635   5.574  45.395  1.00  0.00    -0.351 OA
BRANCH  26  27
HETATM   27  C17 UNL     1      33.411   4.912  44.203  1.00  0.00     0.205 C 
BRANCH  27  28
HETATM   28  C18 UNL     1      34.587   5.211  43.253  1.00  0.00     0.295 C 
BRANCH  28  29
HETATM   29  N1  UNL     1      34.146   5.677  41.976  1.00  0.00     0.081 N 
HETATM   30  C19 UNL     1      32.849   5.266  41.558  1.00  0.00     0.306 C 
HETATM   31  H20 UNL     1      34.235   6.702  41.909  1.00  0.00     0.315 HD
ENDBRANCH  28  29
ENDBRANCH  27  28
ENDBRANCH  26  27
ENDBRANCH  15  26
BRANCH  14  32
HETATM   32  C14 UNL     1      32.574   4.083  47.199  1.00  0.00     0.291 C 
HETATM   33  O2  UNL     1      31.982   3.069  46.689  1.00  0.00    -0.260 OA
BRANCH  32  34
HETATM   34  O3  UNL     1      33.445   3.133  47.421  1.00  0.00    -0.323 OA
HETATM   35  C15 UNL     1      34.808   3.233  47.701  1.00  0.00     0.213 C 
ENDBRANCH  32  34
ENDBRANCH  14  32
TORSDOF 6
ENDMDL
MODEL 6
REMARK VINA RESULT:      -7.1      8.912     12.442
REMARK  6 active torsions:
REMARK  status: ('A' for Active; 'I' for Inactive)
REMARK    1  A    between atoms: C13_14  and  C14_15 
REMARK    2  A    between atoms: C14_15  and  O3_17 
REMARK    3  A    between atoms: C16_19  and  O4_20 
REMARK    4  A    between atoms: O4_20  and  C17_21 
REMARK    5  A    between atoms: C17_21  and  C18_22 
REMARK    6  A    between atoms: C18_22  and  N1_23 
ROOT
HETATM    1  C1  UNL     1      25.660   6.894  49.417  1.00  0.00     0.023 C 
HETATM    2  C2  UNL     1      26.816   7.393  49.054  1.00  0.00    -0.046 A 
HETATM    3  C3  UNL     1      27.552   6.719  47.985  1.00  0.00     0.008 A 
HETATM    4  C4  UNL     1      28.696   7.322  47.701  1.00  0.00    -0.003 A 
HETATM    5  C5  UNL     1      29.352   8.517  48.247  1.00  0.00     0.066 A 
HETATM    6  C6  UNL     1      28.552   9.149  49.326  1.00  0.00    -0.003 A 
HETATM    7  C7  UNL     1      27.380   8.592  49.668  1.00  0.00     0.008 A 
HETATM    8  C8  UNL     1      30.735   8.239  48.610  1.00  0.00     0.192 C 
HETATM    9  O1  UNL     1      31.368   7.598  49.559  1.00  0.00    -0.385 OA
HETATM   10  C9  UNL     1      32.728   7.911  49.217  1.00  0.00     0.211 C 
HETATM   11  C10 UNL     1      33.117   7.415  47.856  1.00  0.00     0.026 A 
HETATM   12  C11 UNL     1      32.748   8.254  47.070  1.00  0.00    -0.004 A 
HETATM   13  C12 UNL     1      32.234   9.370  46.252  1.00  0.00     0.089 C 
HETATM   14  C13 UNL     1      30.808   9.755  46.453  1.00  0.00     0.052 C 
HETATM   15  C16 UNL     1      29.637   9.543  47.132  1.00  0.00     0.077 C 
HETATM   16  C20 UNL     1      33.199   7.394  45.841  1.00  0.00     0.125 A 
HETATM   17  O5  UNL     1      33.098   7.702  44.554  1.00  0.00    -0.191 OA
HETATM   18  C21 UNL     1      33.846   6.032  45.732  1.00  0.00     0.015 A 
HETATM   19  C22 UNL     1      34.199   5.349  44.559  1.00  0.00     0.015 A 
HETATM   20  C23 UNL     1      34.775   4.105  44.707  1.00  0.00     0.001 A 
HETATM   21  C24 UNL     1      35.030   3.483  45.900  1.00  0.00     0.001 A 
HETATM   22  C25 UNL     1      34.680   4.161  47.022  1.00  0.00     0.016 A 
HETATM   23  C26 UNL     1      34.112   5.388  46.910  1.00  0.00     0.028 A 
HETATM   24  C27 UNL     1      33.717   6.136  48.097  1.00  0.00     0.192 A 
HETATM   25  O6  UNL     1      33.941   5.585  49.201  1.00  0.00    -0.287 OA
ENDROOT
BRANCH  15  26
HETATM   26  O4  UNL     1      28.480  10.219  46.950  1.00  0.00    -0.351 OA
BRANCH  26  27
HETATM   27  C17 UNL     1      27.457   9.949  46.061  1.00  0.00     0.205 C 
BRANCH  27  28
HETATM   28  C18 UNL     1      26.647  11.241  45.847  1.00  0.00     0.295 C 
BRANCH  28  29
HETATM   29  N1  UNL     1      27.487  12.390  45.703  1.00  0.00     0.081 N 
HETATM   30  C19 UNL     1      27.222  13.241  44.595  1.00  0.00     0.306 C 
HETATM   31  H20 UNL     1      27.511  12.936  46.577  1.00  0.00     0.315 HD
ENDBRANCH  28  29
ENDBRANCH  27  28
ENDBRANCH  26  27
ENDBRANCH  15  26
BRANCH  14  32
HETATM   32  C14 UNL     1      30.530  10.835  45.530  1.00  0.00     0.291 C 
HETATM   33  O2  UNL     1      30.606  12.090  45.771  1.00  0.00    -0.260 OA
BRANCH  32  34
HETATM   34  O3  UNL     1      30.181  11.344  44.377  1.00  0.00    -0.323 OA
HETATM   35  C15 UNL     1      29.730  10.697  43.227  1.00  0.00     0.213 C 
ENDBRANCH  32  34
ENDBRANCH  14  32
TORSDOF 6
ENDMDL
MODEL 7
REMARK VINA RESULT:      -7.0      9.858     12.436
REMARK  6 active torsions:
REMARK  status: ('A' for Active; 'I' for Inactive)
REMARK    1  A    between atoms: C13_14  and  C14_15 
REMARK    2  A    between atoms: C14_15  and  O3_17 
REMARK    3  A    between atoms: C16_19  and  O4_20 
REMARK    4  A    between atoms: O4_20  and  C17_21 
REMARK    5  A    between atoms: C17_21  and  C18_22 
REMARK    6  A    between atoms: C18_22  and  N1_23 
ROOT
HETATM    1  C1  UNL     1      32.334  11.839  42.485  1.00  0.00     0.023 C 
HETATM    2  C2  UNL     1      32.349  11.185  43.620  1.00  0.00    -0.046 A 
HETATM    3  C3  UNL     1      31.413  10.074  43.788  1.00  0.00     0.008 A 
HETATM    4  C4  UNL     1      31.531   9.487  44.968  1.00  0.00    -0.003 A 
HETATM    5  C5  UNL     1      32.408   9.738  46.120  1.00  0.00     0.066 A 
HETATM    6  C6  UNL     1      33.330  10.877  45.882  1.00  0.00    -0.003 A 
HETATM    7  C7  UNL     1      33.267  11.521  44.705  1.00  0.00     0.008 A 
HETATM    8  C8  UNL     1      31.642   9.834  47.354  1.00  0.00     0.192 C 
HETATM    9  O1  UNL     1      30.841  10.699  47.922  1.00  0.00    -0.385 OA
HETATM   10  C9  UNL     1      30.608  10.046  49.180  1.00  0.00     0.211 C 
HETATM   11  C10 UNL     1      29.958   8.703  49.029  1.00  0.00     0.026 A 
HETATM   12  C11 UNL     1      30.847   7.916  48.809  1.00  0.00    -0.004 A 
HETATM   13  C12 UNL     1      32.047   7.097  48.551  1.00  0.00     0.089 C 
HETATM   14  C13 UNL     1      32.947   7.545  47.450  1.00  0.00     0.052 C 
HETATM   15  C16 UNL     1      33.214   8.473  46.479  1.00  0.00     0.077 C 
HETATM   16  C20 UNL     1      29.841   6.732  48.614  1.00  0.00     0.125 A 
HETATM   17  O5  UNL     1      30.122   5.467  48.328  1.00  0.00    -0.191 OA
HETATM   18  C21 UNL     1      28.333   6.654  48.685  1.00  0.00     0.015 A 
HETATM   19  C22 UNL     1      27.529   5.523  48.478  1.00  0.00     0.015 A 
HETATM   20  C23 UNL     1      26.165   5.694  48.586  1.00  0.00     0.001 A 
HETATM   21  C24 UNL     1      25.533   6.873  48.878  1.00  0.00     0.001 A 
HETATM   22  C25 UNL     1      26.329   7.955  49.073  1.00  0.00     0.016 A 
HETATM   23  C26 UNL     1      27.675   7.818  48.974  1.00  0.00     0.028 A 
HETATM   24  C27 UNL     1      28.555   8.963  49.169  1.00  0.00     0.192 A 
HETATM   25  O6  UNL     1      27.996  10.054  49.436  1.00  0.00    -0.287 OA
ENDROOT
BRANCH  15  26
HETATM   26  O4  UNL     1      34.270   8.458  45.634  1.00  0.00    -0.351 OA
BRANCH  26  27
HETATM   27  C17 UNL     1      34.345   7.926  44.361  1.00  0.00     0.205 C 
BRANCH  27  28
HETATM   28  C18 UNL     1      35.365   8.746  43.551  1.00  0.00     0.295 C 
BRANCH  28  29
HETATM   29  N1  UNL     1      36.375   9.326  44.381  1.00  0.00     0.081 N 
HETATM   30  C19 UNL     1      37.225  10.291  43.773  1.00  0.00     0.306 C 
HETATM   31  H20 UNL     1      35.963   9.706  45.246  1.00  0.00     0.315 HD
ENDBRANCH  28  29
ENDBRANCH  27  28
ENDBRANCH  26  27
ENDBRANCH  15  26
BRANCH  14  32
HETATM   32  C14 UNL     1      34.022   6.577  47.366  1.00  0.00     0.291 C 
HETATM   33  O2  UNL     1      35.133   6.607  48.002  1.00  0.00    -0.260 OA
BRANCH  32  34
HETATM   34  O3  UNL     1      34.603   5.492  46.926  1.00  0.00    -0.323 OA
HETATM   35  C15 UNL     1      34.196   4.619  45.918  1.00  0.00     0.213 C 
ENDBRANCH  32  34
ENDBRANCH  14  32
TORSDOF 6
ENDMDL
MODEL 8
REMARK VINA RESULT:      -6.7      3.752      5.948
REMARK  6 active torsions:
REMARK  status: ('A' for Active; 'I' for Inactive)
REMARK    1  A    between atoms: C13_14  and  C14_15 
REMARK    2  A    between atoms: C14_15  and  O3_17 
REMARK    3  A    between atoms: C16_19  and  O4_20 
REMARK    4  A    between atoms: O4_20  and  C17_21 
REMARK    5  A    between atoms: C17_21  and  C18_22 
REMARK    6  A    between atoms: C18_22  and  N1_23 
ROOT
HETATM    1  C1  UNL     1      26.348   1.357  51.745  1.00  0.00     0.023 C 
HETATM    2  C2  UNL     1      25.739   2.367  51.177  1.00  0.00    -0.046 A 
HETATM    3  C3  UNL     1      26.417   3.051  50.077  1.00  0.00     0.008 A 
HETATM    4  C4  UNL     1      25.699   4.046  49.580  1.00  0.00    -0.003 A 
HETATM    5  C5  UNL     1      24.373   4.582  49.919  1.00  0.00     0.066 A 
HETATM    6  C6  UNL     1      23.743   3.843  51.042  1.00  0.00    -0.003 A 
HETATM    7  C7  UNL     1      24.415   2.821  51.597  1.00  0.00     0.008 A 
HETATM    8  C8  UNL     1      24.420   6.025  50.103  1.00  0.00     0.192 C 
HETATM    9  O1  UNL     1      24.863   6.865  51.003  1.00  0.00    -0.385 OA
HETATM   10  C9  UNL     1      24.407   8.107  50.443  1.00  0.00     0.211 C 
HETATM   11  C10 UNL     1      24.989   8.386  49.090  1.00  0.00     0.026 A 
HETATM   12  C11 UNL     1      24.299   7.797  48.293  1.00  0.00    -0.004 A 
HETATM   13  C12 UNL     1      23.357   7.021  47.464  1.00  0.00     0.089 C 
HETATM   14  C13 UNL     1      23.150   5.591  47.833  1.00  0.00     0.052 C 
HETATM   15  C16 UNL     1      23.444   4.563  48.688  1.00  0.00     0.077 C 
HETATM   16  C20 UNL     1      25.216   8.208  47.093  1.00  0.00     0.125 A 
HETATM   17  O5  UNL     1      25.064   7.897  45.812  1.00  0.00    -0.191 OA
HETATM   18  C21 UNL     1      26.481   9.032  47.013  1.00  0.00     0.015 A 
HETATM   19  C22 UNL     1      27.232   9.328  45.866  1.00  0.00     0.015 A 
HETATM   20  C23 UNL     1      28.364  10.097  46.038  1.00  0.00     0.001 A 
HETATM   21  C24 UNL     1      28.813  10.595  47.233  1.00  0.00     0.001 A 
HETATM   22  C25 UNL     1      28.072  10.296  48.329  1.00  0.00     0.016 A 
HETATM   23  C26 UNL     1      26.952   9.541  48.193  1.00  0.00     0.028 A 
HETATM   24  C27 UNL     1      26.142   9.196  49.353  1.00  0.00     0.192 A 
HETATM   25  O6  UNL     1      26.536   9.641  50.458  1.00  0.00    -0.287 OA
ENDROOT
BRANCH  15  26
HETATM   26  O4  UNL     1      22.956   3.305  48.616  1.00  0.00    -0.351 OA
BRANCH  26  27
HETATM   27  C17 UNL     1      21.726   2.834  49.037  1.00  0.00     0.205 C 
BRANCH  27  28
HETATM   28  C18 UNL     1      21.699   1.306  48.846  1.00  0.00     0.295 C 
BRANCH  28  29
HETATM   29  N1  UNL     1      21.543   0.608  50.084  1.00  0.00     0.081 N 
HETATM   30  C19 UNL     1      20.470   1.024  50.921  1.00  0.00     0.306 C 
HETATM   31  H20 UNL     1      21.500  -0.410  49.926  1.00  0.00     0.315 HD
ENDBRANCH  28  29
ENDBRANCH  27  28
ENDBRANCH  26  27
ENDBRANCH  15  26
BRANCH  14  32
HETATM   32  C14 UNL     1      22.223   5.038  46.867  1.00  0.00     0.291 C 
HETATM   33  O2  UNL     1      20.967   5.275  46.785  1.00  0.00    -0.260 OA
BRANCH  32  34
HETATM   34  O3  UNL     1      21.884   4.296  45.845  1.00  0.00    -0.323 OA
HETATM   35  C15 UNL     1      20.616   4.033  45.328  1.00  0.00     0.213 C 
ENDBRANCH  32  34
ENDBRANCH  14  32
TORSDOF 6
ENDMDL
MODEL 9
REMARK VINA RESULT:      -6.3      7.533     11.689
REMARK  6 active torsions:
REMARK  status: ('A' for Active; 'I' for Inactive)
REMARK    1  A    between atoms: C13_14  and  C14_15 
REMARK    2  A    between atoms: C14_15  and  O3_17 
REMARK    3  A    between atoms: C16_19  and  O4_20 
REMARK    4  A    between atoms: O4_20  and  C17_21 
REMARK    5  A    between atoms: C17_21  and  C18_22 
REMARK    6  A    between atoms: C18_22  and  N1_23 
ROOT
HETATM    1  C1  UNL     1      23.665   8.476  42.738  1.00  0.00     0.023 C 
HETATM    2  C2  UNL     1      24.363   8.651  43.833  1.00  0.00    -0.046 A 
HETATM    3  C3  UNL     1      25.817   8.521  43.751  1.00  0.00     0.008 A 
HETATM    4  C4  UNL     1      26.411   8.729  44.915  1.00  0.00    -0.003 A 
HETATM    5  C5  UNL     1      25.892   9.059  46.250  1.00  0.00     0.066 A 
HETATM    6  C6  UNL     1      24.412   9.175  46.261  1.00  0.00    -0.003 A 
HETATM    7  C7  UNL     1      23.743   8.976  45.115  1.00  0.00     0.008 A 
HETATM    8  C8  UNL     1      26.431   8.161  47.261  1.00  0.00     0.192 C 
HETATM    9  O1  UNL     1      26.261   6.916  47.629  1.00  0.00    -0.385 OA
HETATM   10  C9  UNL     1      27.117   6.870  48.782  1.00  0.00     0.211 C 
HETATM   11  C10 UNL     1      28.552   7.162  48.457  1.00  0.00     0.026 A 
HETATM   12  C11 UNL     1      28.662   8.365  48.449  1.00  0.00    -0.004 A 
HETATM   13  C12 UNL     1      28.618   9.839  48.480  1.00  0.00     0.089 C 
HETATM   14  C13 UNL     1      27.582  10.503  47.639  1.00  0.00     0.052 C 
HETATM   15  C16 UNL     1      26.527  10.362  46.777  1.00  0.00     0.077 C 
HETATM   16  C20 UNL     1      30.159   8.292  47.997  1.00  0.00     0.125 A 
HETATM   17  O5  UNL     1      30.988   9.302  47.769  1.00  0.00    -0.191 OA
HETATM   18  C21 UNL     1      31.077   7.129  47.696  1.00  0.00     0.015 A 
HETATM   19  C22 UNL     1      32.416   7.187  47.283  1.00  0.00     0.015 A 
HETATM   20  C23 UNL     1      33.056   5.986  47.057  1.00  0.00     0.001 A 
HETATM   21  C24 UNL     1      32.493   4.746  47.202  1.00  0.00     0.001 A 
HETATM   22  C25 UNL     1      31.197   4.713  47.602  1.00  0.00     0.016 A 
HETATM   23  C26 UNL     1      30.540   5.877  47.833  1.00  0.00     0.028 A 
HETATM   24  C27 UNL     1      29.145   5.873  48.253  1.00  0.00     0.192 A 
HETATM   25  O6  UNL     1      28.610   4.748  48.392  1.00  0.00    -0.287 OA
ENDROOT
BRANCH  15  26
HETATM   26  O4  UNL     1      25.819  11.368  46.215  1.00  0.00    -0.351 OA
BRANCH  26  27
HETATM   27  C17 UNL     1      26.067  12.037  45.032  1.00  0.00     0.205 C 
BRANCH  27  28
HETATM   28  C18 UNL     1      25.552  13.482  45.174  1.00  0.00     0.295 C 
BRANCH  28  29
HETATM   29  N1  UNL     1      25.268  13.824  46.532  1.00  0.00     0.081 N 
HETATM   30  C19 UNL     1      25.438  15.189  46.897  1.00  0.00     0.306 C 
HETATM   31  H20 UNL     1      24.328  13.496  46.803  1.00  0.00     0.315 HD
ENDBRANCH  28  29
ENDBRANCH  27  28
ENDBRANCH  26  27
ENDBRANCH  15  26
BRANCH  14  32
HETATM   32  C14 UNL     1      27.756  11.931  47.806  1.00  0.00     0.291 C 
HETATM   33  O2  UNL     1      27.270  12.660  48.740  1.00  0.00    -0.260 OA
BRANCH  32  34
HETATM   34  O3  UNL     1      28.214  13.112  47.482  1.00  0.00    -0.323 OA
HETATM   35  C15 UNL     1      29.525  13.508  47.215  1.00  0.00     0.213 C 
ENDBRANCH  32  34
ENDBRANCH  14  32
TORSDOF 6
ENDMDL
