MODEL 1
REMARK VINA RESULT:      -8.2      0.000      0.000
REMARK  4 active torsions:
REMARK  status: ('A' for Active; 'I' for Inactive)
REMARK    1  A    between atoms: O1_2  and  C2_3 
REMARK    2  A    between atoms: C6_9  and  C7_10 
REMARK    3  A    between atoms: C7_10  and  N3_11 
REMARK    4  A    between atoms: C16_21  and  O2_22 
ROOT
HETATM    1  C2  UNL     1      19.747  -0.102  52.352  1.00  0.00     0.103 C 
HETATM    2  C3  UNL     1      19.958  -0.601  53.563  1.00  0.00     0.068 C 
HETATM    3  C4  UNL     1      21.380  -0.607  53.885  1.00  0.00     0.052 C 
HETATM    4  N1  UNL     1      21.715  -1.275  54.960  1.00  0.00    -0.245 NA
HETATM    5  C5  UNL     1      23.052  -1.420  55.409  1.00  0.00     0.233 C 
HETATM    6  N2  UNL     1      24.016  -0.903  54.725  1.00  0.00    -0.244 NA
HETATM    7  C6  UNL     1      23.750  -0.203  53.517  1.00  0.00     0.067 C 
HETATM    8  C14 UNL     1      22.408   0.167  53.189  1.00  0.00     0.117 C 
HETATM    9  C15 UNL     1      22.032   0.585  51.851  1.00  0.00     0.030 C 
HETATM   10  C16 UNL     1      20.754   0.470  51.467  1.00  0.00     0.098 C 
ENDROOT
BRANCH   7  11
HETATM   11  C7  UNL     1      24.797   0.060  52.768  1.00  0.00     0.145 C 
BRANCH  11  12
HETATM   12  N3  UNL     1      25.868   0.891  53.232  1.00  0.00    -0.257 NA
HETATM   13  C8  UNL     1      27.087   0.462  53.364  1.00  0.00     0.084 A 
HETATM   14  C9  UNL     1      28.150   1.366  53.848  1.00  0.00     0.034 A 
HETATM   15  C13 UNL     1      27.496  -0.906  53.055  1.00  0.00     0.076 A 
HETATM   16  C10 UNL     1      29.397   0.926  53.983  1.00  0.00     0.002 A 
HETATM   17  C11 UNL     1      29.799  -0.440  53.672  1.00  0.00     0.002 A 
HETATM   18  C12 UNL     1      28.904  -1.306  53.235  1.00  0.00     0.033 A 
HETATM   19  N4  UNL     1      26.574  -1.699  52.632  1.00  0.00    -0.298 NA
HETATM   20  H11 UNL     1      26.831  -2.676  52.405  1.00  0.00     0.187 HD
ENDBRANCH  11  12
ENDBRANCH   7  11
BRANCH  10  21
HETATM   21  O2  UNL     1      20.525   0.941  50.181  1.00  0.00    -0.353 OA
HETATM   22  C17 UNL     1      21.533   1.007  49.218  1.00  0.00     0.210 C 
ENDBRANCH  10  21
BRANCH   1  23
HETATM   23  O1  UNL     1      18.479  -0.020  51.781  1.00  0.00    -0.353 OA
HETATM   24  C1  UNL     1      17.475  -0.833  52.385  1.00  0.00     0.210 C 
ENDBRANCH   1  23
TORSDOF 4
ENDMDL
MODEL 2
REMARK VINA RESULT:      -8.1      0.646      1.393
REMARK  4 active torsions:
REMARK  status: ('A' for Active; 'I' for Inactive)
REMARK    1  A    between atoms: O1_2  and  C2_3 
REMARK    2  A    between atoms: C6_9  and  C7_10 
REMARK    3  A    between atoms: C7_10  and  N3_11 
REMARK    4  A    between atoms: C16_21  and  O2_22 
ROOT
HETATM    1  C2  UNL     1      19.818  -0.161  52.433  1.00  0.00     0.103 C 
HETATM    2  C3  UNL     1      20.000  -0.697  53.632  1.00  0.00     0.068 C 
HETATM    3  C4  UNL     1      21.410  -0.683  54.002  1.00  0.00     0.052 C 
HETATM    4  N1  UNL     1      21.725  -1.381  55.064  1.00  0.00    -0.245 NA
HETATM    5  C5  UNL     1      23.050  -1.512  55.552  1.00  0.00     0.233 C 
HETATM    6  N2  UNL     1      24.024  -0.950  54.919  1.00  0.00    -0.244 NA
HETATM    7  C6  UNL     1      23.782  -0.215  53.727  1.00  0.00     0.067 C 
HETATM    8  C14 UNL     1      22.443   0.137  53.367  1.00  0.00     0.117 C 
HETATM    9  C15 UNL     1      22.101   0.593  52.033  1.00  0.00     0.030 C 
HETATM   10  C16 UNL     1      20.839   0.463  51.602  1.00  0.00     0.098 C 
ENDROOT
BRANCH   7  11
HETATM   11  C7  UNL     1      24.846   0.097  53.023  1.00  0.00     0.145 C 
BRANCH  11  12
HETATM   12  N3  UNL     1      25.868  -0.866  52.733  1.00  0.00    -0.257 NA
HETATM   13  C8  UNL     1      27.087  -0.752  53.167  1.00  0.00     0.084 A 
HETATM   14  C9  UNL     1      28.097  -1.777  52.834  1.00  0.00     0.034 A 
HETATM   15  C13 UNL     1      27.546   0.362  53.992  1.00  0.00     0.076 A 
HETATM   16  C10 UNL     1      29.345  -1.659  53.278  1.00  0.00     0.002 A 
HETATM   17  C11 UNL     1      29.797  -0.545  54.102  1.00  0.00     0.002 A 
HETATM   18  C12 UNL     1      28.950   0.410  54.440  1.00  0.00     0.033 A 
HETATM   19  N4  UNL     1      26.670   1.258  54.285  1.00  0.00    -0.298 NA
HETATM   20  H11 UNL     1      26.964   2.062  54.869  1.00  0.00     0.187 HD
ENDBRANCH  11  12
ENDBRANCH   7  11
BRANCH  10  21
HETATM   21  O2  UNL     1      20.642   0.974  50.326  1.00  0.00    -0.353 OA
HETATM   22  C17 UNL     1      20.911   2.306  50.004  1.00  0.00     0.210 C 
ENDBRANCH  10  21
BRANCH   1  23
HETATM   23  O1  UNL     1      18.567  -0.087  51.823  1.00  0.00    -0.353 OA
HETATM   24  C1  UNL     1      17.537  -0.865  52.428  1.00  0.00     0.210 C 
ENDBRANCH   1  23
TORSDOF 4
ENDMDL
MODEL 3
REMARK VINA RESULT:      -8.0      2.117      3.483
REMARK  4 active torsions:
REMARK  status: ('A' for Active; 'I' for Inactive)
REMARK    1  A    between atoms: O1_2  and  C2_3 
REMARK    2  A    between atoms: C6_9  and  C7_10 
REMARK    3  A    between atoms: C7_10  and  N3_11 
REMARK    4  A    between atoms: C16_21  and  O2_22 
ROOT
HETATM    1  C2  UNL     1      23.019   2.069  50.231  1.00  0.00     0.103 C 
HETATM    2  C3  UNL     1      22.006   1.336  50.674  1.00  0.00     0.068 C 
HETATM    3  C4  UNL     1      22.374   0.617  51.888  1.00  0.00     0.052 C 
HETATM    4  N1  UNL     1      21.526  -0.299  52.283  1.00  0.00    -0.245 NA
HETATM    5  C5  UNL     1      21.732  -1.121  53.420  1.00  0.00     0.233 C 
HETATM    6  N2  UNL     1      22.820  -1.004  54.105  1.00  0.00    -0.244 NA
HETATM    7  C6  UNL     1      23.819  -0.071  53.720  1.00  0.00     0.067 C 
HETATM    8  C14 UNL     1      23.521   0.929  52.741  1.00  0.00     0.117 C 
HETATM    9  C15 UNL     1      24.563   1.691  52.079  1.00  0.00     0.030 C 
HETATM   10  C16 UNL     1      24.308   2.247  50.887  1.00  0.00     0.098 C 
ENDROOT
BRANCH   7  11
HETATM   11  C7  UNL     1      24.982  -0.203  54.315  1.00  0.00     0.145 C 
BRANCH  11  12
HETATM   12  N3  UNL     1      26.012  -1.046  53.782  1.00  0.00    -0.257 NA
HETATM   13  C8  UNL     1      27.263  -0.699  53.753  1.00  0.00     0.084 A 
HETATM   14  C9  UNL     1      28.279  -1.611  53.190  1.00  0.00     0.034 A 
HETATM   15  C13 UNL     1      27.754   0.582  54.256  1.00  0.00     0.076 A 
HETATM   16  C10 UNL     1      29.560  -1.254  53.160  1.00  0.00     0.002 A 
HETATM   17  C11 UNL     1      30.044   0.025  53.665  1.00  0.00     0.002 A 
HETATM   18  C12 UNL     1      29.194   0.893  54.182  1.00  0.00     0.033 A 
HETATM   19  N4  UNL     1      26.873   1.381  54.748  1.00  0.00    -0.298 NA
HETATM   20  H11 UNL     1      27.189   2.298  55.113  1.00  0.00     0.187 HD
ENDBRANCH  11  12
ENDBRANCH   7  11
BRANCH  10  21
HETATM   21  O2  UNL     1      25.376   2.978  50.385  1.00  0.00    -0.353 OA
HETATM   22  C17 UNL     1      26.676   2.837  50.876  1.00  0.00     0.210 C 
ENDBRANCH  10  21
BRANCH   1  23
HETATM   23  O1  UNL     1      22.948   2.825  49.062  1.00  0.00    -0.353 OA
HETATM   24  C1  UNL     1      22.309   2.192  47.955  1.00  0.00     0.210 C 
ENDBRANCH   1  23
TORSDOF 4
ENDMDL
MODEL 4
REMARK VINA RESULT:      -7.7      1.895      3.348
REMARK  4 active torsions:
REMARK  status: ('A' for Active; 'I' for Inactive)
REMARK    1  A    between atoms: O1_2  and  C2_3 
REMARK    2  A    between atoms: C6_9  and  C7_10 
REMARK    3  A    between atoms: C7_10  and  N3_11 
REMARK    4  A    between atoms: C16_21  and  O2_22 
ROOT
HETATM    1  C2  UNL     1      20.217   0.106  52.889  1.00  0.00     0.103 C 
HETATM    2  C3  UNL     1      20.226   0.861  51.799  1.00  0.00     0.068 C 
HETATM    3  C4  UNL     1      21.575   1.323  51.495  1.00  0.00     0.052 C 
HETATM    4  N1  UNL     1      21.664   2.247  50.571  1.00  0.00    -0.245 NA
HETATM    5  C5  UNL     1      22.887   2.840  50.170  1.00  0.00     0.233 C 
HETATM    6  N2  UNL     1      23.987   2.492  50.748  1.00  0.00    -0.244 NA
HETATM    7  C6  UNL     1      23.980   1.532  51.796  1.00  0.00     0.067 C 
HETATM    8  C14 UNL     1      22.808   0.749  52.036  1.00  0.00     0.117 C 
HETATM    9  C15 UNL     1      22.623  -0.001  53.264  1.00  0.00     0.030 C 
HETATM   10  C16 UNL     1      21.382  -0.319  53.655  1.00  0.00     0.098 C 
ENDROOT
BRANCH   7  11
HETATM   11  C7  UNL     1      25.093   1.435  52.487  1.00  0.00     0.145 C 
BRANCH  11  12
HETATM   12  N3  UNL     1      25.905   0.254  52.449  1.00  0.00    -0.257 NA
HETATM   13  C8  UNL     1      27.103   0.206  52.949  1.00  0.00     0.084 A 
HETATM   14  C9  UNL     1      27.893  -1.040  52.878  1.00  0.00     0.034 A 
HETATM   15  C13 UNL     1      27.748   1.343  53.601  1.00  0.00     0.076 A 
HETATM   16  C10 UNL     1      29.119  -1.087  53.390  1.00  0.00     0.002 A 
HETATM   17  C11 UNL     1      29.758   0.049  54.040  1.00  0.00     0.002 A 
HETATM   18  C12 UNL     1      29.113   1.198  54.140  1.00  0.00     0.033 A 
HETATM   19  N4  UNL     1      27.065   2.431  53.666  1.00  0.00    -0.298 NA
HETATM   20  H11 UNL     1      27.494   3.257  54.122  1.00  0.00     0.187 HD
ENDBRANCH  11  12
ENDBRANCH   7  11
BRANCH  10  21
HETATM   21  O2  UNL     1      21.352  -1.069  54.823  1.00  0.00    -0.353 OA
HETATM   22  C17 UNL     1      22.492  -1.675  55.353  1.00  0.00     0.210 C 
ENDBRANCH  10  21
BRANCH   1  23
HETATM   23  O1  UNL     1      19.048  -0.432  53.424  1.00  0.00    -0.353 OA
HETATM   24  C1  UNL     1      18.067  -0.845  52.475  1.00  0.00     0.210 C 
ENDBRANCH   1  23
TORSDOF 4
ENDMDL
MODEL 5
REMARK VINA RESULT:      -7.7      2.578      7.174
REMARK  4 active torsions:
REMARK  status: ('A' for Active; 'I' for Inactive)
REMARK    1  A    between atoms: O1_2  and  C2_3 
REMARK    2  A    between atoms: C6_9  and  C7_10 
REMARK    3  A    between atoms: C7_10  and  N3_11 
REMARK    4  A    between atoms: C16_21  and  O2_22 
ROOT
HETATM    1  C2  UNL     1      26.586   0.801  53.065  1.00  0.00     0.103 C 
HETATM    2  C3  UNL     1      26.543  -0.112  54.025  1.00  0.00     0.068 C 
HETATM    3  C4  UNL     1      25.166  -0.487  54.327  1.00  0.00     0.052 C 
HETATM    4  N1  UNL     1      25.000  -1.215  55.403  1.00  0.00    -0.245 NA
HETATM    5  C5  UNL     1      23.732  -1.643  55.872  1.00  0.00     0.233 C 
HETATM    6  N2  UNL     1      22.663  -1.286  55.243  1.00  0.00    -0.244 NA
HETATM    7  C6  UNL     1      22.745  -0.454  54.094  1.00  0.00     0.067 C 
HETATM    8  C14 UNL     1      24.011  -0.227  53.468  1.00  0.00     0.117 C 
HETATM    9  C15 UNL     1      24.213   0.845  52.510  1.00  0.00     0.030 C 
HETATM   10  C16 UNL     1      25.450   1.317  52.311  1.00  0.00     0.098 C 
ENDROOT
BRANCH   7  11
HETATM   11  C7  UNL     1      21.609   0.061  53.681  1.00  0.00     0.145 C 
BRANCH  11  12
HETATM   12  N3  UNL     1      20.359  -0.611  53.880  1.00  0.00    -0.257 NA
HETATM   13  C8  UNL     1      19.378  -0.541  53.032  1.00  0.00     0.084 A 
HETATM   14  C9  UNL     1      18.112  -1.255  53.292  1.00  0.00     0.034 A 
HETATM   15  C13 UNL     1      19.442   0.225  51.789  1.00  0.00     0.076 A 
HETATM   16  C10 UNL     1      17.108  -1.183  52.423  1.00  0.00     0.002 A 
HETATM   17  C11 UNL     1      17.178  -0.418  51.185  1.00  0.00     0.002 A 
HETATM   18  C12 UNL     1      18.279   0.248  50.884  1.00  0.00     0.033 A 
HETATM   19  N4  UNL     1      20.543   0.849  51.557  1.00  0.00    -0.298 NA
HETATM   20  H11 UNL     1      20.622   1.402  50.684  1.00  0.00     0.187 HD
ENDBRANCH  11  12
ENDBRANCH   7  11
BRANCH  10  21
HETATM   21  O2  UNL     1      25.507   2.311  51.343  1.00  0.00    -0.353 OA
HETATM   22  C17 UNL     1      24.374   3.007  50.918  1.00  0.00     0.210 C 
ENDBRANCH  10  21
BRANCH   1  23
HETATM   23  O1  UNL     1      27.779   1.362  52.612  1.00  0.00    -0.353 OA
HETATM   24  C1  UNL     1      28.354   2.357  53.458  1.00  0.00     0.210 C 
ENDBRANCH   1  23
TORSDOF 4
ENDMDL
MODEL 6
REMARK VINA RESULT:      -7.7      4.400      5.661
REMARK  4 active torsions:
REMARK  status: ('A' for Active; 'I' for Inactive)
REMARK    1  A    between atoms: O1_2  and  C2_3 
REMARK    2  A    between atoms: C6_9  and  C7_10 
REMARK    3  A    between atoms: C7_10  and  N3_11 
REMARK    4  A    between atoms: C16_21  and  O2_22 
ROOT
HETATM    1  C2  UNL     1      22.900   0.147  52.787  1.00  0.00     0.103 C 
HETATM    2  C3  UNL     1      24.035   0.116  53.472  1.00  0.00     0.068 C 
HETATM    3  C4  UNL     1      25.046   0.960  52.847  1.00  0.00     0.052 C 
HETATM    4  N1  UNL     1      26.261   0.830  53.317  1.00  0.00    -0.245 NA
HETATM    5  C5  UNL     1      27.378   1.542  52.809  1.00  0.00     0.233 C 
HETATM    6  N2  UNL     1      27.225   2.345  51.811  1.00  0.00    -0.244 NA
HETATM    7  C6  UNL     1      25.951   2.509  51.204  1.00  0.00     0.067 C 
HETATM    8  C14 UNL     1      24.782   2.002  51.855  1.00  0.00     0.117 C 
HETATM    9  C15 UNL     1      23.519   1.851  51.157  1.00  0.00     0.030 C 
HETATM   10  C16 UNL     1      22.618   0.975  51.620  1.00  0.00     0.098 C 
ENDROOT
BRANCH   7  11
HETATM   11  C7  UNL     1      25.945   3.138  50.051  1.00  0.00     0.145 C 
BRANCH  11  12
HETATM   12  N3  UNL     1      27.146   3.664  49.471  1.00  0.00    -0.257 NA
HETATM   13  C8  UNL     1      27.208   4.842  48.928  1.00  0.00     0.084 A 
HETATM   14  C9  UNL     1      28.475   5.329  48.345  1.00  0.00     0.034 A 
HETATM   15  C13 UNL     1      26.069   5.753  48.848  1.00  0.00     0.076 A 
HETATM   16  C10 UNL     1      28.538   6.535  47.789  1.00  0.00     0.002 A 
HETATM   17  C11 UNL     1      27.398   7.440  47.713  1.00  0.00     0.002 A 
HETATM   18  C12 UNL     1      26.232   7.073  48.212  1.00  0.00     0.033 A 
HETATM   19  N4  UNL     1      24.963   5.333  49.354  1.00  0.00    -0.298 NA
HETATM   20  H11 UNL     1      24.135   5.955  49.314  1.00  0.00     0.187 HD
ENDBRANCH  11  12
ENDBRANCH   7  11
BRANCH  10  21
HETATM   21  O2  UNL     1      21.441   0.959  50.883  1.00  0.00    -0.353 OA
HETATM   22  C17 UNL     1      21.434   0.949  49.487  1.00  0.00     0.210 C 
ENDBRANCH  10  21
BRANCH   1  23
HETATM   23  O1  UNL     1      21.781  -0.603  53.145  1.00  0.00    -0.353 OA
HETATM   24  C1  UNL     1      21.452  -0.598  54.533  1.00  0.00     0.210 C 
ENDBRANCH   1  23
TORSDOF 4
ENDMDL
MODEL 7
REMARK VINA RESULT:      -7.6      3.108      6.753
REMARK  4 active torsions:
REMARK  status: ('A' for Active; 'I' for Inactive)
REMARK    1  A    between atoms: O1_2  and  C2_3 
REMARK    2  A    between atoms: C6_9  and  C7_10 
REMARK    3  A    between atoms: C7_10  and  N3_11 
REMARK    4  A    between atoms: C16_21  and  O2_22 
ROOT
HETATM    1  C2  UNL     1      27.607   0.644  53.538  1.00  0.00     0.103 C 
HETATM    2  C3  UNL     1      27.145  -0.268  54.382  1.00  0.00     0.068 C 
HETATM    3  C4  UNL     1      25.694  -0.372  54.296  1.00  0.00     0.052 C 
HETATM    4  N1  UNL     1      25.119  -1.082  55.234  1.00  0.00    -0.245 NA
HETATM    5  C5  UNL     1      23.716  -1.264  55.331  1.00  0.00     0.233 C 
HETATM    6  N2  UNL     1      22.935  -0.687  54.481  1.00  0.00    -0.244 NA
HETATM    7  C6  UNL     1      23.468   0.144  53.459  1.00  0.00     0.067 C 
HETATM    8  C14 UNL     1      24.874   0.134  53.194  1.00  0.00     0.117 C 
HETATM    9  C15 UNL     1      25.514   1.170  52.405  1.00  0.00     0.030 C 
HETATM   10  C16 UNL     1      26.825   1.395  52.564  1.00  0.00     0.098 C 
ENDROOT
BRANCH   7  11
HETATM   11  C7  UNL     1      22.596   0.883  52.813  1.00  0.00     0.145 C 
BRANCH  11  12
HETATM   12  N3  UNL     1      22.113   0.519  51.513  1.00  0.00    -0.257 NA
HETATM   13  C8  UNL     1      22.029   1.364  50.530  1.00  0.00     0.084 A 
HETATM   14  C9  UNL     1      21.522   0.930  49.213  1.00  0.00     0.034 A 
HETATM   15  C13 UNL     1      22.413   2.769  50.642  1.00  0.00     0.076 A 
HETATM   16  C10 UNL     1      21.435   1.796  48.208  1.00  0.00     0.002 A 
HETATM   17  C11 UNL     1      21.821   3.196  48.325  1.00  0.00     0.002 A 
HETATM   18  C12 UNL     1      22.283   3.658  49.473  1.00  0.00     0.033 A 
HETATM   19  N4  UNL     1      22.855   3.153  51.788  1.00  0.00    -0.298 NA
HETATM   20  H11 UNL     1      23.136   4.144  51.901  1.00  0.00     0.187 HD
ENDBRANCH  11  12
ENDBRANCH   7  11
BRANCH  10  21
HETATM   21  O2  UNL     1      27.316   2.383  51.722  1.00  0.00    -0.353 OA
HETATM   22  C17 UNL     1      26.537   2.970  50.723  1.00  0.00     0.210 C 
ENDBRANCH  10  21
BRANCH   1  23
HETATM   23  O1  UNL     1      28.959   0.972  53.448  1.00  0.00    -0.353 OA
HETATM   24  C1  UNL     1      29.869  -0.118  53.579  1.00  0.00     0.210 C 
ENDBRANCH   1  23
TORSDOF 4
ENDMDL
MODEL 8
REMARK VINA RESULT:      -7.4      4.571      7.160
REMARK  4 active torsions:
REMARK  status: ('A' for Active; 'I' for Inactive)
REMARK    1  A    between atoms: O1_2  and  C2_3 
REMARK    2  A    between atoms: C6_9  and  C7_10 
REMARK    3  A    between atoms: C7_10  and  N3_11 
REMARK    4  A    between atoms: C16_21  and  O2_22 
ROOT
HETATM    1  C2  UNL     1      27.038  -0.379  53.482  1.00  0.00     0.103 C 
HETATM    2  C3  UNL     1      25.820  -0.898  53.559  1.00  0.00     0.068 C 
HETATM    3  C4  UNL     1      24.814   0.063  53.124  1.00  0.00     0.052 C 
HETATM    4  N1  UNL     1      23.570  -0.269  53.365  1.00  0.00    -0.245 NA
HETATM    5  C5  UNL     1      22.462   0.556  53.045  1.00  0.00     0.233 C 
HETATM    6  N2  UNL     1      22.659   1.715  52.514  1.00  0.00    -0.244 NA
HETATM    7  C6  UNL     1      23.978   2.180  52.263  1.00  0.00     0.067 C 
HETATM    8  C14 UNL     1      25.080   1.271  52.342  1.00  0.00     0.117 C 
HETATM    9  C15 UNL     1      26.454   1.734  52.416  1.00  0.00     0.030 C 
HETATM   10  C16 UNL     1      27.386   0.931  52.946  1.00  0.00     0.098 C 
ENDROOT
BRANCH   7  11
HETATM   11  C7  UNL     1      24.087   3.455  51.967  1.00  0.00     0.145 C 
BRANCH  11  12
HETATM   12  N3  UNL     1      24.171   3.910  50.610  1.00  0.00    -0.257 NA
HETATM   13  C8  UNL     1      24.138   5.166  50.284  1.00  0.00     0.084 A 
HETATM   14  C9  UNL     1      24.228   5.575  48.868  1.00  0.00     0.034 A 
HETATM   15  C13 UNL     1      24.011   6.247  51.260  1.00  0.00     0.076 A 
HETATM   16  C10 UNL     1      24.193   6.862  48.536  1.00  0.00     0.002 A 
HETATM   17  C11 UNL     1      24.067   7.935  49.514  1.00  0.00     0.002 A 
HETATM   18  C12 UNL     1      23.981   7.647  50.800  1.00  0.00     0.033 A 
HETATM   19  N4  UNL     1      23.932   5.897  52.496  1.00  0.00    -0.298 NA
HETATM   20  H11 UNL     1      23.841   6.639  53.213  1.00  0.00     0.187 HD
ENDBRANCH  11  12
ENDBRANCH   7  11
BRANCH  10  21
HETATM   21  O2  UNL     1      28.661   1.480  52.919  1.00  0.00    -0.353 OA
HETATM   22  C17 UNL     1      29.074   2.457  53.827  1.00  0.00     0.210 C 
ENDBRANCH  10  21
BRANCH   1  23
HETATM   23  O1  UNL     1      28.179  -1.074  53.877  1.00  0.00    -0.353 OA
HETATM   24  C1  UNL     1      28.583  -2.139  53.019  1.00  0.00     0.210 C 
ENDBRANCH   1  23
TORSDOF 4
ENDMDL
MODEL 9
REMARK VINA RESULT:      -7.4      3.189      7.523
REMARK  4 active torsions:
REMARK  status: ('A' for Active; 'I' for Inactive)
REMARK    1  A    between atoms: O1_2  and  C2_3 
REMARK    2  A    between atoms: C6_9  and  C7_10 
REMARK    3  A    between atoms: C7_10  and  N3_11 
REMARK    4  A    between atoms: C16_21  and  O2_22 
ROOT
HETATM    1  C2  UNL     1      27.379   0.046  53.604  1.00  0.00     0.103 C 
HETATM    2  C3  UNL     1      27.790   0.942  52.717  1.00  0.00     0.068 C 
HETATM    3  C4  UNL     1      26.677   1.752  52.238  1.00  0.00     0.052 C 
HETATM    4  N1  UNL     1      26.934   2.514  51.205  1.00  0.00    -0.245 NA
HETATM    5  C5  UNL     1      25.966   3.342  50.581  1.00  0.00     0.233 C 
HETATM    6  N2  UNL     1      24.750   3.342  51.013  1.00  0.00    -0.244 NA
HETATM    7  C6  UNL     1      24.368   2.508  52.098  1.00  0.00     0.067 C 
HETATM    8  C14 UNL     1      25.372   1.867  52.890  1.00  0.00     0.117 C 
HETATM    9  C15 UNL     1      25.059   0.771  53.788  1.00  0.00     0.030 C 
HETATM   10  C16 UNL     1      26.029  -0.084  54.138  1.00  0.00     0.098 C 
ENDROOT
BRANCH   7  11
HETATM   11  C7  UNL     1      23.076   2.385  52.296  1.00  0.00     0.145 C 
BRANCH  11  12
HETATM   12  N3  UNL     1      22.148   2.319  51.206  1.00  0.00    -0.257 NA
HETATM   13  C8  UNL     1      21.057   1.615  51.250  1.00  0.00     0.084 A 
HETATM   14  C9  UNL     1      20.139   1.586  50.094  1.00  0.00     0.034 A 
HETATM   15  C13 UNL     1      20.661   0.818  52.408  1.00  0.00     0.076 A 
HETATM   16  C10 UNL     1      19.023   0.864  50.140  1.00  0.00     0.002 A 
HETATM   17  C11 UNL     1      18.632   0.072  51.299  1.00  0.00     0.002 A 
HETATM   18  C12 UNL     1      19.404   0.048  52.370  1.00  0.00     0.033 A 
HETATM   19  N4  UNL     1      21.457   0.840  53.419  1.00  0.00    -0.298 NA
HETATM   20  H11 UNL     1      21.205   0.285  54.257  1.00  0.00     0.187 HD
ENDBRANCH  11  12
ENDBRANCH   7  11
BRANCH  10  21
HETATM   21  O2  UNL     1      25.603  -1.060  55.029  1.00  0.00    -0.353 OA
HETATM   22  C17 UNL     1      24.251  -1.301  55.284  1.00  0.00     0.210 C 
ENDBRANCH  10  21
BRANCH   1  23
HETATM   23  O1  UNL     1      28.237  -0.883  54.191  1.00  0.00    -0.353 OA
HETATM   24  C1  UNL     1      29.505  -1.038  53.558  1.00  0.00     0.210 C 
ENDBRANCH   1  23
TORSDOF 4
ENDMDL
