MODEL 1
REMARK VINA RESULT:      -7.8      0.000      0.000
REMARK  10 active torsions:
REMARK  status: ('A' for Active; 'I' for Inactive)
REMARK    1  A    between atoms: C2_2  and  N1_4 
REMARK    2  A    between atoms: C2_2  and  C4_5 
REMARK    3  A    between atoms: C5_6  and  C6_7 
REMARK    4  A    between atoms: C10_11  and  C11_12 
REMARK    5  A    between atoms: C11_12  and  C12_14 
REMARK    6  A    between atoms: C12_14  and  C13_15 
REMARK    7  A    between atoms: C14_16  and  C15_18 
REMARK    8  A    between atoms: C15_18  and  C16_19 
REMARK    9  A    between atoms: C16_19  and  N2_20 
REMARK   10  A    between atoms: N2_20  and  C17_21 
ROOT
HETATM    1  C11 UNL     1      20.034   1.730  52.258  1.00  0.00     0.163 C 
HETATM    2  O1  UNL     1      20.029   2.870  52.825  1.00  0.00    -0.292 OA
ENDROOT
BRANCH   1   3
HETATM    3  C10 UNL     1      20.785   0.685  52.943  1.00  0.00     0.011 A 
HETATM    4  C9  UNL     1      20.094  -0.321  53.590  1.00  0.00     0.015 A 
HETATM    5  C8  UNL     1      20.772  -1.343  54.258  1.00  0.00     0.002 A 
HETATM    6  C7  UNL     1      22.154  -1.374  54.291  1.00  0.00     0.020 A 
HETATM    7  C6  UNL     1      22.839  -0.362  53.640  1.00  0.00     0.018 A 
HETATM    8  C23 UNL     1      22.158   0.641  52.983  1.00  0.00     0.035 A 
BRANCH   7   9
HETATM    9  C5  UNL     1      24.276  -0.322  53.627  1.00  0.00    -0.064 C 
HETATM   10  C4  UNL     1      25.493  -0.307  53.608  1.00  0.00    -0.060 C 
BRANCH  10  11
HETATM   11  C2  UNL     1      26.956  -0.311  53.573  1.00  0.00     0.210 C 
HETATM   12  C1  UNL     1      27.446  -1.551  52.851  1.00  0.00     0.063 C 
HETATM   13  C3  UNL     1      27.501   0.891  52.832  1.00  0.00     0.063 C 
BRANCH  11  14
HETATM   14  N1  UNL     1      27.387  -0.303  54.970  1.00  0.00     0.099 N 
HETATM   15  H7  UNL     1      27.306  -1.266  55.365  1.00  0.00     0.315 HD
HETATM   16  H8  UNL     1      28.394  -0.028  55.008  1.00  0.00     0.315 HD
ENDBRANCH  11  14
ENDBRANCH  10  11
ENDBRANCH   7   9
ENDBRANCH   1   3
BRANCH   1  17
HETATM   17  C12 UNL     1      19.331   1.444  50.979  1.00  0.00     0.114 C 
BRANCH  17  18
HETATM   18  C13 UNL     1      20.298   0.973  49.967  1.00  0.00     0.018 C 
HETATM   19  C14 UNL     1      20.894   1.454  48.870  1.00  0.00     0.092 C 
HETATM   20  F1  UNL     1      21.763   0.619  48.214  1.00  0.00    -0.211 F 
BRANCH  19  21
HETATM   21  C15 UNL     1      20.620   2.783  48.356  1.00  0.00     0.089 C 
BRANCH  21  22
HETATM   22  C16 UNL     1      21.778   3.620  47.955  1.00  0.00     0.126 C 
BRANCH  22  23
HETATM   23  N2  UNL     1      22.385   4.440  48.953  1.00  0.00    -0.390 N 
HETATM   24  H19 UNL     1      22.368   5.483  48.771  1.00  0.00     0.159 HD
BRANCH  23  25
HETATM   25  C17 UNL     1      23.019   4.078  50.165  1.00  0.00     0.028 A 
HETATM   26  C18 UNL     1      22.751   4.610  51.420  1.00  0.00     0.032 A 
HETATM   27  C19 UNL     1      23.334   4.290  52.608  1.00  0.00     0.044 A 
HETATM   28  C20 UNL     1      24.313   3.320  52.577  1.00  0.00     0.116 A 
HETATM   29  F2  UNL     1      24.919   2.971  53.731  1.00  0.00    -0.206 F 
HETATM   30  C21 UNL     1      24.639   2.742  51.371  1.00  0.00     0.044 A 
HETATM   31  C22 UNL     1      24.002   3.120  50.212  1.00  0.00     0.032 A 
ENDBRANCH  23  25
ENDBRANCH  22  23
ENDBRANCH  21  22
ENDBRANCH  19  21
ENDBRANCH  17  18
ENDBRANCH   1  17
TORSDOF 10
ENDMDL
MODEL 2
REMARK VINA RESULT:      -7.7      5.278      8.051
REMARK  10 active torsions:
REMARK  status: ('A' for Active; 'I' for Inactive)
REMARK    1  A    between atoms: C2_2  and  N1_4 
REMARK    2  A    between atoms: C2_2  and  C4_5 
REMARK    3  A    between atoms: C5_6  and  C6_7 
REMARK    4  A    between atoms: C10_11  and  C11_12 
REMARK    5  A    between atoms: C11_12  and  C12_14 
REMARK    6  A    between atoms: C12_14  and  C13_15 
REMARK    7  A    between atoms: C14_16  and  C15_18 
REMARK    8  A    between atoms: C15_18  and  C16_19 
REMARK    9  A    between atoms: C16_19  and  N2_20 
REMARK   10  A    between atoms: N2_20  and  C17_21 
ROOT
HETATM    1  C11 UNL     1      25.961   3.896  49.467  1.00  0.00     0.163 C 
HETATM    2  O1  UNL     1      26.577   2.931  50.025  1.00  0.00    -0.292 OA
ENDROOT
BRANCH   1   3
HETATM    3  C10 UNL     1      26.804   4.946  48.907  1.00  0.00     0.011 A 
HETATM    4  C9  UNL     1      26.253   6.191  48.672  1.00  0.00     0.015 A 
HETATM    5  C8  UNL     1      27.023   7.227  48.138  1.00  0.00     0.002 A 
HETATM    6  C7  UNL     1      28.357   7.033  47.829  1.00  0.00     0.020 A 
HETATM    7  C6  UNL     1      28.901   5.783  48.067  1.00  0.00     0.018 A 
HETATM    8  C23 UNL     1      28.130   4.768  48.596  1.00  0.00     0.035 A 
BRANCH   7   9
HETATM    9  C5  UNL     1      30.279   5.500  47.774  1.00  0.00    -0.064 C 
HETATM   10  C4  UNL     1      31.441   5.245  47.514  1.00  0.00    -0.060 C 
BRANCH  10  11
HETATM   11  C2  UNL     1      32.829   4.923  47.182  1.00  0.00     0.210 C 
HETATM   12  C1  UNL     1      32.868   4.029  45.958  1.00  0.00     0.063 C 
HETATM   13  C3  UNL     1      33.631   6.166  46.862  1.00  0.00     0.063 C 
BRANCH  11  14
HETATM   14  N1  UNL     1      33.370   4.240  48.357  1.00  0.00     0.099 N 
HETATM   15  H7  UNL     1      34.404   4.386  48.399  1.00  0.00     0.315 HD
HETATM   16  H8  UNL     1      32.954   4.667  49.214  1.00  0.00     0.315 HD
ENDBRANCH  11  14
ENDBRANCH  10  11
ENDBRANCH   7   9
ENDBRANCH   1   3
BRANCH   1  17
HETATM   17  C12 UNL     1      24.480   3.982  49.372  1.00  0.00     0.114 C 
BRANCH  17  18
HETATM   18  C13 UNL     1      23.864   2.804  50.014  1.00  0.00     0.018 C 
HETATM   19  C14 UNL     1      23.545   2.404  51.250  1.00  0.00     0.092 C 
HETATM   20  F1  UNL     1      22.958   1.171  51.377  1.00  0.00    -0.211 F 
BRANCH  19  21
HETATM   21  C15 UNL     1      23.833   3.207  52.425  1.00  0.00     0.089 C 
BRANCH  21  22
HETATM   22  C16 UNL     1      24.808   2.670  53.405  1.00  0.00     0.126 C 
BRANCH  22  23
HETATM   23  N2  UNL     1      26.181   2.619  53.020  1.00  0.00    -0.390 N 
HETATM   24  H19 UNL     1      26.557   3.476  52.523  1.00  0.00     0.159 HD
BRANCH  23  25
HETATM   25  C17 UNL     1      27.137   1.590  53.193  1.00  0.00     0.028 A 
HETATM   26  C18 UNL     1      26.956   0.245  52.900  1.00  0.00     0.032 A 
HETATM   27  C19 UNL     1      27.846  -0.774  53.050  1.00  0.00     0.044 A 
HETATM   28  C20 UNL     1      29.086  -0.444  53.552  1.00  0.00     0.116 A 
HETATM   29  F2  UNL     1      30.002  -1.421  53.718  1.00  0.00    -0.206 F 
HETATM   30  C21 UNL     1      29.348   0.870  53.869  1.00  0.00     0.044 A 
HETATM   31  C22 UNL     1      28.394   1.843  53.689  1.00  0.00     0.032 A 
ENDBRANCH  23  25
ENDBRANCH  22  23
ENDBRANCH  21  22
ENDBRANCH  19  21
ENDBRANCH  17  18
ENDBRANCH   1  17
TORSDOF 10
ENDMDL
MODEL 3
REMARK VINA RESULT:      -7.5      1.754      2.121
REMARK  10 active torsions:
REMARK  status: ('A' for Active; 'I' for Inactive)
REMARK    1  A    between atoms: C2_2  and  N1_4 
REMARK    2  A    between atoms: C2_2  and  C4_5 
REMARK    3  A    between atoms: C5_6  and  C6_7 
REMARK    4  A    between atoms: C10_11  and  C11_12 
REMARK    5  A    between atoms: C11_12  and  C12_14 
REMARK    6  A    between atoms: C12_14  and  C13_15 
REMARK    7  A    between atoms: C14_16  and  C15_18 
REMARK    8  A    between atoms: C15_18  and  C16_19 
REMARK    9  A    between atoms: C16_19  and  N2_20 
REMARK   10  A    between atoms: N2_20  and  C17_21 
ROOT
HETATM    1  C11 UNL     1      20.075   1.810  52.108  1.00  0.00     0.163 C 
HETATM    2  O1  UNL     1      19.963   2.923  52.717  1.00  0.00    -0.292 OA
ENDROOT
BRANCH   1   3
HETATM    3  C10 UNL     1      20.805   0.769  52.820  1.00  0.00     0.011 A 
HETATM    4  C9  UNL     1      20.093  -0.213  53.483  1.00  0.00     0.015 A 
HETATM    5  C8  UNL     1      20.750  -1.231  54.178  1.00  0.00     0.002 A 
HETATM    6  C7  UNL     1      22.132  -1.282  54.222  1.00  0.00     0.020 A 
HETATM    7  C6  UNL     1      22.838  -0.295  53.556  1.00  0.00     0.018 A 
HETATM    8  C23 UNL     1      22.176   0.705  52.873  1.00  0.00     0.035 A 
BRANCH   7   9
HETATM    9  C5  UNL     1      24.275  -0.277  53.553  1.00  0.00    -0.064 C 
HETATM   10  C4  UNL     1      25.491  -0.242  53.557  1.00  0.00    -0.060 C 
BRANCH  10  11
HETATM   11  C2  UNL     1      26.953  -0.179  53.577  1.00  0.00     0.210 C 
HETATM   12  C1  UNL     1      27.526  -1.354  52.810  1.00  0.00     0.063 C 
HETATM   13  C3  UNL     1      27.468   1.085  52.922  1.00  0.00     0.063 C 
BRANCH  11  14
HETATM   14  N1  UNL     1      27.334  -0.227  54.988  1.00  0.00     0.099 N 
HETATM   15  H7  UNL     1      27.544  -1.214  55.258  1.00  0.00     0.315 HD
HETATM   16  H8  UNL     1      28.207   0.331  55.119  1.00  0.00     0.315 HD
ENDBRANCH  11  14
ENDBRANCH  10  11
ENDBRANCH   7   9
ENDBRANCH   1   3
BRANCH   1  17
HETATM   17  C12 UNL     1      19.512   1.552  50.756  1.00  0.00     0.114 C 
BRANCH  17  18
HETATM   18  C13 UNL     1      20.605   1.309  49.793  1.00  0.00     0.018 C 
HETATM   19  C14 UNL     1      21.379   2.028  48.972  1.00  0.00     0.092 C 
HETATM   20  F1  UNL     1      22.307   1.344  48.230  1.00  0.00    -0.211 F 
BRANCH  19  21
HETATM   21  C15 UNL     1      21.233   3.465  48.829  1.00  0.00     0.089 C 
BRANCH  21  22
HETATM   22  C16 UNL     1      21.709   4.320  49.944  1.00  0.00     0.126 C 
BRANCH  22  23
HETATM   23  N2  UNL     1      22.966   4.002  50.539  1.00  0.00    -0.390 N 
HETATM   24  H19 UNL     1      22.928   3.589  51.513  1.00  0.00     0.159 HD
BRANCH  23  25
HETATM   25  C17 UNL     1      24.278   4.155  50.031  1.00  0.00     0.028 A 
HETATM   26  C18 UNL     1      25.267   3.180  50.011  1.00  0.00     0.032 A 
HETATM   27  C19 UNL     1      26.536   3.284  49.531  1.00  0.00     0.044 A 
HETATM   28  C20 UNL     1      26.899   4.500  48.995  1.00  0.00     0.116 A 
HETATM   29  F2  UNL     1      28.149   4.650  48.507  1.00  0.00    -0.206 F 
HETATM   30  C21 UNL     1      25.975   5.522  48.976  1.00  0.00     0.044 A 
HETATM   31  C22 UNL     1      24.710   5.337  49.481  1.00  0.00     0.032 A 
ENDBRANCH  23  25
ENDBRANCH  22  23
ENDBRANCH  21  22
ENDBRANCH  19  21
ENDBRANCH  17  18
ENDBRANCH   1  17
TORSDOF 10
ENDMDL
MODEL 4
REMARK VINA RESULT:      -7.4      4.502      7.926
REMARK  10 active torsions:
REMARK  status: ('A' for Active; 'I' for Inactive)
REMARK    1  A    between atoms: C2_2  and  N1_4 
REMARK    2  A    between atoms: C2_2  and  C4_5 
REMARK    3  A    between atoms: C5_6  and  C6_7 
REMARK    4  A    between atoms: C10_11  and  C11_12 
REMARK    5  A    between atoms: C11_12  and  C12_14 
REMARK    6  A    between atoms: C12_14  and  C13_15 
REMARK    7  A    between atoms: C14_16  and  C15_18 
REMARK    8  A    between atoms: C15_18  and  C16_19 
REMARK    9  A    between atoms: C16_19  and  N2_20 
REMARK   10  A    between atoms: N2_20  and  C17_21 
ROOT
HETATM    1  C11 UNL     1      25.342   3.098  50.379  1.00  0.00     0.163 C 
HETATM    2  O1  UNL     1      24.082   3.114  50.562  1.00  0.00    -0.292 OA
ENDROOT
BRANCH   1   3
HETATM    3  C10 UNL     1      25.891   4.237  49.652  1.00  0.00     0.011 A 
HETATM    4  C9  UNL     1      25.062   5.300  49.349  1.00  0.00     0.015 A 
HETATM    5  C8  UNL     1      25.545   6.412  48.655  1.00  0.00     0.002 A 
HETATM    6  C7  UNL     1      26.866   6.477  48.251  1.00  0.00     0.020 A 
HETATM    7  C6  UNL     1      27.690   5.408  48.558  1.00  0.00     0.018 A 
HETATM    8  C23 UNL     1      27.201   4.316  49.245  1.00  0.00     0.035 A 
BRANCH   7   9
HETATM    9  C5  UNL     1      29.075   5.399  48.175  1.00  0.00    -0.064 C 
HETATM   10  C4  UNL     1      30.253   5.398  47.869  1.00  0.00    -0.060 C 
BRANCH  10  11
HETATM   11  C2  UNL     1      31.675   5.401  47.526  1.00  0.00     0.210 C 
HETATM   12  C1  UNL     1      32.054   4.071  46.905  1.00  0.00     0.063 C 
HETATM   13  C3  UNL     1      32.007   6.482  46.519  1.00  0.00     0.063 C 
BRANCH  11  14
HETATM   14  N1  UNL     1      32.387   5.622  48.784  1.00  0.00     0.099 N 
HETATM   15  H7  UNL     1      31.716   5.963  49.508  1.00  0.00     0.315 HD
HETATM   16  H8  UNL     1      32.776   4.711  49.114  1.00  0.00     0.315 HD
ENDBRANCH  11  14
ENDBRANCH  10  11
ENDBRANCH   7   9
ENDBRANCH   1   3
BRANCH   1  17
HETATM   17  C12 UNL     1      26.230   2.007  50.860  1.00  0.00     0.114 C 
BRANCH  17  18
HETATM   18  C13 UNL     1      27.011   2.469  52.024  1.00  0.00     0.018 C 
HETATM   19  C14 UNL     1      27.652   1.925  53.065  1.00  0.00     0.092 C 
HETATM   20  F1  UNL     1      28.270   2.783  53.938  1.00  0.00    -0.211 F 
BRANCH  19  21
HETATM   21  C15 UNL     1      27.671   0.493  53.302  1.00  0.00     0.089 C 
BRANCH  21  22
HETATM   22  C16 UNL     1      26.923  -0.021  54.476  1.00  0.00     0.126 C 
BRANCH  22  23
HETATM   23  N2  UNL     1      25.804  -0.873  54.233  1.00  0.00    -0.390 N 
HETATM   24  H19 UNL     1      26.024  -1.897  54.074  1.00  0.00     0.159 HD
BRANCH  23  25
HETATM   25  C17 UNL     1      24.424  -0.566  54.166  1.00  0.00     0.028 A 
HETATM   26  C18 UNL     1      23.424  -1.112  54.960  1.00  0.00     0.032 A 
HETATM   27  C19 UNL     1      22.090  -0.843  54.930  1.00  0.00     0.044 A 
HETATM   28  C20 UNL     1      21.664   0.083  54.003  1.00  0.00     0.116 A 
HETATM   29  F2  UNL     1      20.350   0.381  53.937  1.00  0.00    -0.206 F 
HETATM   30  C21 UNL     1      22.594   0.673  53.175  1.00  0.00     0.044 A 
HETATM   31  C22 UNL     1      23.927   0.347  53.268  1.00  0.00     0.032 A 
ENDBRANCH  23  25
ENDBRANCH  22  23
ENDBRANCH  21  22
ENDBRANCH  19  21
ENDBRANCH  17  18
ENDBRANCH   1  17
TORSDOF 10
ENDMDL
MODEL 5
REMARK VINA RESULT:      -7.3      2.020      4.597
REMARK  10 active torsions:
REMARK  status: ('A' for Active; 'I' for Inactive)
REMARK    1  A    between atoms: C2_2  and  N1_4 
REMARK    2  A    between atoms: C2_2  and  C4_5 
REMARK    3  A    between atoms: C5_6  and  C6_7 
REMARK    4  A    between atoms: C10_11  and  C11_12 
REMARK    5  A    between atoms: C11_12  and  C12_14 
REMARK    6  A    between atoms: C12_14  and  C13_15 
REMARK    7  A    between atoms: C14_16  and  C15_18 
REMARK    8  A    between atoms: C15_18  and  C16_19 
REMARK    9  A    between atoms: C16_19  and  N2_20 
REMARK   10  A    between atoms: N2_20  and  C17_21 
ROOT
HETATM    1  C11 UNL     1      22.654   4.292  50.804  1.00  0.00     0.163 C 
HETATM    2  O1  UNL     1      22.268   4.318  52.017  1.00  0.00    -0.292 OA
ENDROOT
BRANCH   1   3
HETATM    3  C10 UNL     1      24.037   3.886  50.588  1.00  0.00     0.011 A 
HETATM    4  C9  UNL     1      24.800   4.574  49.663  1.00  0.00     0.015 A 
HETATM    5  C8  UNL     1      26.130   4.220  49.424  1.00  0.00     0.002 A 
HETATM    6  C7  UNL     1      26.719   3.171  50.106  1.00  0.00     0.020 A 
HETATM    7  C6  UNL     1      25.948   2.487  51.030  1.00  0.00     0.018 A 
HETATM    8  C23 UNL     1      24.636   2.846  51.258  1.00  0.00     0.035 A 
BRANCH   7   9
HETATM    9  C5  UNL     1      26.485   1.385  51.781  1.00  0.00    -0.064 C 
HETATM   10  C4  UNL     1      26.934   0.461  52.434  1.00  0.00    -0.060 C 
BRANCH  10  11
HETATM   11  C2  UNL     1      27.461  -0.640  53.240  1.00  0.00     0.210 C 
HETATM   12  C1  UNL     1      27.012  -1.964  52.653  1.00  0.00     0.063 C 
HETATM   13  C3  UNL     1      28.975  -0.644  53.262  1.00  0.00     0.063 C 
BRANCH  11  14
HETATM   14  N1  UNL     1      26.920  -0.444  54.584  1.00  0.00     0.099 N 
HETATM   15  H7  UNL     1      27.651  -0.016  55.195  1.00  0.00     0.315 HD
HETATM   16  H8  UNL     1      26.120   0.226  54.529  1.00  0.00     0.315 HD
ENDBRANCH  11  14
ENDBRANCH  10  11
ENDBRANCH   7   9
ENDBRANCH   1   3
BRANCH   1  17
HETATM   17  C12 UNL     1      21.780   4.645  49.654  1.00  0.00     0.114 C 
BRANCH  17  18
HETATM   18  C13 UNL     1      20.466   3.987  49.798  1.00  0.00     0.018 C 
HETATM   19  C14 UNL     1      19.937   2.776  49.589  1.00  0.00     0.092 C 
HETATM   20  F1  UNL     1      18.607   2.616  49.879  1.00  0.00    -0.211 F 
BRANCH  19  21
HETATM   21  C15 UNL     1      20.710   1.676  49.041  1.00  0.00     0.089 C 
BRANCH  21  22
HETATM   22  C16 UNL     1      21.433   0.800  49.996  1.00  0.00     0.126 C 
BRANCH  22  23
HETATM   23  N2  UNL     1      21.005   0.800  51.357  1.00  0.00    -0.390 N 
HETATM   24  H19 UNL     1      20.134   1.365  51.571  1.00  0.00     0.159 HD
BRANCH  23  25
HETATM   25  C17 UNL     1      21.566   0.160  52.488  1.00  0.00     0.028 A 
HETATM   26  C18 UNL     1      22.918   0.073  52.792  1.00  0.00     0.032 A 
HETATM   27  C19 UNL     1      23.498  -0.530  53.866  1.00  0.00     0.044 A 
HETATM   28  C20 UNL     1      22.652  -1.131  54.772  1.00  0.00     0.116 A 
HETATM   29  F2  UNL     1      23.182  -1.741  55.853  1.00  0.00    -0.206 F 
HETATM   30  C21 UNL     1      21.294  -1.089  54.544  1.00  0.00     0.044 A 
HETATM   31  C22 UNL     1      20.785  -0.459  53.433  1.00  0.00     0.032 A 
ENDBRANCH  23  25
ENDBRANCH  22  23
ENDBRANCH  21  22
ENDBRANCH  19  21
ENDBRANCH  17  18
ENDBRANCH   1  17
TORSDOF 10
ENDMDL
MODEL 6
REMARK VINA RESULT:      -7.2      6.398      8.328
REMARK  10 active torsions:
REMARK  status: ('A' for Active; 'I' for Inactive)
REMARK    1  A    between atoms: C2_2  and  N1_4 
REMARK    2  A    between atoms: C2_2  and  C4_5 
REMARK    3  A    between atoms: C5_6  and  C6_7 
REMARK    4  A    between atoms: C10_11  and  C11_12 
REMARK    5  A    between atoms: C11_12  and  C12_14 
REMARK    6  A    between atoms: C12_14  and  C13_15 
REMARK    7  A    between atoms: C14_16  and  C15_18 
REMARK    8  A    between atoms: C15_18  and  C16_19 
REMARK    9  A    between atoms: C16_19  and  N2_20 
REMARK   10  A    between atoms: N2_20  and  C17_21 
ROOT
HETATM    1  C11 UNL     1      27.129   5.171  48.836  1.00  0.00     0.163 C 
HETATM    2  O1  UNL     1      28.258   4.698  48.484  1.00  0.00    -0.292 OA
ENDROOT
BRANCH   1   3
HETATM    3  C10 UNL     1      26.223   4.233  49.486  1.00  0.00     0.011 A 
HETATM    4  C9  UNL     1      24.861   4.383  49.307  1.00  0.00     0.015 A 
HETATM    5  C8  UNL     1      23.956   3.507  49.910  1.00  0.00     0.002 A 
HETATM    6  C7  UNL     1      24.400   2.466  50.704  1.00  0.00     0.020 A 
HETATM    7  C6  UNL     1      25.765   2.321  50.879  1.00  0.00     0.018 A 
HETATM    8  C23 UNL     1      26.649   3.193  50.277  1.00  0.00     0.035 A 
BRANCH   7   9
HETATM    9  C5  UNL     1      26.307   1.265  51.689  1.00  0.00    -0.064 C 
HETATM   10  C4  UNL     1      26.763   0.382  52.391  1.00  0.00    -0.060 C 
BRANCH  10  11
HETATM   11  C2  UNL     1      27.304  -0.667  53.257  1.00  0.00     0.210 C 
HETATM   12  C1  UNL     1      27.062  -2.025  52.627  1.00  0.00     0.063 C 
HETATM   13  C3  UNL     1      28.798  -0.517  53.452  1.00  0.00     0.063 C 
BRANCH  11  14
HETATM   14  N1  UNL     1      26.595  -0.537  54.529  1.00  0.00     0.099 N 
HETATM   15  H7  UNL     1      26.167  -1.454  54.785  1.00  0.00     0.315 HD
HETATM   16  H8  UNL     1      27.286  -0.290  55.274  1.00  0.00     0.315 HD
ENDBRANCH  11  14
ENDBRANCH  10  11
ENDBRANCH   7   9
ENDBRANCH   1   3
BRANCH   1  17
HETATM   17  C12 UNL     1      26.724   6.584  48.613  1.00  0.00     0.114 C 
BRANCH  17  18
HETATM   18  C13 UNL     1      27.559   7.188  47.554  1.00  0.00     0.018 C 
HETATM   19  C14 UNL     1      28.725   7.837  47.463  1.00  0.00     0.092 C 
HETATM   20  F1  UNL     1      29.125   8.229  46.211  1.00  0.00    -0.211 F 
BRANCH  19  21
HETATM   21  C15 UNL     1      29.528   8.158  48.628  1.00  0.00     0.089 C 
BRANCH  21  22
HETATM   22  C16 UNL     1      30.891   7.576  48.707  1.00  0.00     0.126 C 
BRANCH  22  23
HETATM   23  N2  UNL     1      31.016   6.157  48.620  1.00  0.00    -0.390 N 
HETATM   24  H19 UNL     1      30.159   5.597  48.891  1.00  0.00     0.159 HD
BRANCH  23  25
HETATM   25  C17 UNL     1      32.120   5.364  48.228  1.00  0.00     0.028 A 
HETATM   26  C18 UNL     1      32.061   4.166  47.528  1.00  0.00     0.032 A 
HETATM   27  C19 UNL     1      33.094   3.375  47.130  1.00  0.00     0.044 A 
HETATM   28  C20 UNL     1      34.364   3.803  47.454  1.00  0.00     0.116 A 
HETATM   29  F2  UNL     1      35.419   3.051  47.081  1.00  0.00    -0.206 F 
HETATM   30  C21 UNL     1      34.510   4.983  48.149  1.00  0.00     0.044 A 
HETATM   31  C22 UNL     1      33.414   5.727  48.516  1.00  0.00     0.032 A 
ENDBRANCH  23  25
ENDBRANCH  22  23
ENDBRANCH  21  22
ENDBRANCH  19  21
ENDBRANCH  17  18
ENDBRANCH   1  17
TORSDOF 10
ENDMDL
MODEL 7
REMARK VINA RESULT:      -7.0      4.668      7.176
REMARK  10 active torsions:
REMARK  status: ('A' for Active; 'I' for Inactive)
REMARK    1  A    between atoms: C2_2  and  N1_4 
REMARK    2  A    between atoms: C2_2  and  C4_5 
REMARK    3  A    between atoms: C5_6  and  C6_7 
REMARK    4  A    between atoms: C10_11  and  C11_12 
REMARK    5  A    between atoms: C11_12  and  C12_14 
REMARK    6  A    between atoms: C12_14  and  C13_15 
REMARK    7  A    between atoms: C14_16  and  C15_18 
REMARK    8  A    between atoms: C15_18  and  C16_19 
REMARK    9  A    between atoms: C16_19  and  N2_20 
REMARK   10  A    between atoms: N2_20  and  C17_21 
ROOT
HETATM    1  C11 UNL     1      25.277   3.292  50.070  1.00  0.00     0.163 C 
HETATM    2  O1  UNL     1      26.017   2.266  50.218  1.00  0.00    -0.292 OA
ENDROOT
BRANCH   1   3
HETATM    3  C10 UNL     1      25.906   4.438  49.424  1.00  0.00     0.011 A 
HETATM    4  C9  UNL     1      25.138   5.553  49.144  1.00  0.00     0.015 A 
HETATM    5  C8  UNL     1      25.699   6.674  48.527  1.00  0.00     0.002 A 
HETATM    6  C7  UNL     1      27.037   6.697  48.178  1.00  0.00     0.020 A 
HETATM    7  C6  UNL     1      27.799   5.576  48.461  1.00  0.00     0.018 A 
HETATM    8  C23 UNL     1      27.233   4.476  49.072  1.00  0.00     0.035 A 
BRANCH   7   9
HETATM    9  C5  UNL     1      29.196   5.521  48.131  1.00  0.00    -0.064 C 
HETATM   10  C4  UNL     1      30.380   5.494  47.851  1.00  0.00    -0.060 C 
BRANCH  10  11
HETATM   11  C2  UNL     1      31.805   5.487  47.519  1.00  0.00     0.210 C 
HETATM   12  C1  UNL     1      32.103   6.587  46.519  1.00  0.00     0.063 C 
HETATM   13  C3  UNL     1      32.666   5.736  48.739  1.00  0.00     0.063 C 
BRANCH  11  14
HETATM   14  N1  UNL     1      32.074   4.166  46.951  1.00  0.00     0.099 N 
HETATM   15  H7  UNL     1      31.639   3.433  47.554  1.00  0.00     0.315 HD
HETATM   16  H8  UNL     1      31.628   4.108  46.009  1.00  0.00     0.315 HD
ENDBRANCH  11  14
ENDBRANCH  10  11
ENDBRANCH   7   9
ENDBRANCH   1   3
BRANCH   1  17
HETATM   17  C12 UNL     1      23.860   3.357  50.515  1.00  0.00     0.114 C 
BRANCH  17  18
HETATM   18  C13 UNL     1      23.067   2.320  49.825  1.00  0.00     0.018 C 
HETATM   19  C14 UNL     1      22.152   1.398  50.144  1.00  0.00     0.092 C 
HETATM   20  F1  UNL     1      21.667   0.619  49.125  1.00  0.00    -0.211 F 
BRANCH  19  21
HETATM   21  C15 UNL     1      21.708   1.186  51.510  1.00  0.00     0.089 C 
BRANCH  21  22
HETATM   22  C16 UNL     1      22.437   0.183  52.324  1.00  0.00     0.126 C 
BRANCH  22  23
HETATM   23  N2  UNL     1      23.360   0.661  53.302  1.00  0.00    -0.390 N 
HETATM   24  H19 UNL     1      22.940   0.979  54.221  1.00  0.00     0.159 HD
BRANCH  23  25
HETATM   25  C17 UNL     1      24.768   0.784  53.240  1.00  0.00     0.028 A 
HETATM   26  C18 UNL     1      25.657  -0.191  52.806  1.00  0.00     0.032 A 
HETATM   27  C19 UNL     1      27.014  -0.113  52.728  1.00  0.00     0.044 A 
HETATM   28  C20 UNL     1      27.591   1.073  53.127  1.00  0.00     0.116 A 
HETATM   29  F2  UNL     1      28.933   1.195  53.068  1.00  0.00    -0.206 F 
HETATM   30  C21 UNL     1      26.778   2.092  53.572  1.00  0.00     0.044 A 
HETATM   31  C22 UNL     1      25.414   1.936  53.620  1.00  0.00     0.032 A 
ENDBRANCH  23  25
ENDBRANCH  22  23
ENDBRANCH  21  22
ENDBRANCH  19  21
ENDBRANCH  17  18
ENDBRANCH   1  17
TORSDOF 10
ENDMDL
MODEL 8
REMARK VINA RESULT:      -7.0      3.217      6.032
REMARK  10 active torsions:
REMARK  status: ('A' for Active; 'I' for Inactive)
REMARK    1  A    between atoms: C2_2  and  N1_4 
REMARK    2  A    between atoms: C2_2  and  C4_5 
REMARK    3  A    between atoms: C5_6  and  C6_7 
REMARK    4  A    between atoms: C10_11  and  C11_12 
REMARK    5  A    between atoms: C11_12  and  C12_14 
REMARK    6  A    between atoms: C12_14  and  C13_15 
REMARK    7  A    between atoms: C14_16  and  C15_18 
REMARK    8  A    between atoms: C15_18  and  C16_19 
REMARK    9  A    between atoms: C16_19  and  N2_20 
REMARK   10  A    between atoms: N2_20  and  C17_21 
ROOT
HETATM    1  C11 UNL     1      22.326   1.964  52.005  1.00  0.00     0.163 C 
HETATM    2  O1  UNL     1      21.948   3.137  52.324  1.00  0.00    -0.292 OA
ENDROOT
BRANCH   1   3
HETATM    3  C10 UNL     1      21.651   0.871  52.695  1.00  0.00     0.011 A 
HETATM    4  C9  UNL     1      22.364   0.112  53.604  1.00  0.00     0.015 A 
HETATM    5  C8  UNL     1      21.758  -0.943  54.289  1.00  0.00     0.002 A 
HETATM    6  C7  UNL     1      20.429  -1.258  54.074  1.00  0.00     0.020 A 
HETATM    7  C6  UNL     1      19.722  -0.494  53.162  1.00  0.00     0.018 A 
HETATM    8  C23 UNL     1      20.332   0.547  52.493  1.00  0.00     0.035 A 
BRANCH   7   9
HETATM    9  C5  UNL     1      18.337  -0.756  52.883  1.00  0.00    -0.064 C 
HETATM   10  C4  UNL     1      17.168  -0.978  52.626  1.00  0.00    -0.060 C 
BRANCH  10  11
HETATM   11  C2  UNL     1      15.769  -1.251  52.293  1.00  0.00     0.210 C 
HETATM   12  C1  UNL     1      14.887  -0.151  52.848  1.00  0.00     0.063 C 
HETATM   13  C3  UNL     1      15.549  -1.298  50.796  1.00  0.00     0.063 C 
BRANCH  11  14
HETATM   14  N1  UNL     1      15.460  -2.542  52.907  1.00  0.00     0.099 N 
HETATM   15  H7  UNL     1      14.644  -2.435  53.550  1.00  0.00     0.315 HD
HETATM   16  H8  UNL     1      15.185  -3.214  52.155  1.00  0.00     0.315 HD
ENDBRANCH  11  14
ENDBRANCH  10  11
ENDBRANCH   7   9
ENDBRANCH   1   3
BRANCH   1  17
HETATM   17  C12 UNL     1      23.384   1.685  50.999  1.00  0.00     0.114 C 
BRANCH  17  18
HETATM   18  C13 UNL     1      23.308   2.670  49.901  1.00  0.00     0.018 C 
HETATM   19  C14 UNL     1      23.978   3.754  49.495  1.00  0.00     0.092 C 
HETATM   20  F1  UNL     1      23.526   4.382  48.363  1.00  0.00    -0.211 F 
BRANCH  19  21
HETATM   21  C15 UNL     1      25.113   4.285  50.229  1.00  0.00     0.089 C 
BRANCH  21  22
HETATM   22  C16 UNL     1      26.416   3.592  50.077  1.00  0.00     0.126 C 
BRANCH  22  23
HETATM   23  N2  UNL     1      27.043   3.084  51.254  1.00  0.00    -0.390 N 
HETATM   24  H19 UNL     1      27.923   3.584  51.565  1.00  0.00     0.159 HD
BRANCH  23  25
HETATM   25  C17 UNL     1      26.673   2.000  52.086  1.00  0.00     0.028 A 
HETATM   26  C18 UNL     1      26.705   0.655  51.741  1.00  0.00     0.032 A 
HETATM   27  C19 UNL     1      26.362  -0.415  52.509  1.00  0.00     0.044 A 
HETATM   28  C20 UNL     1      25.928  -0.147  53.789  1.00  0.00     0.116 A 
HETATM   29  F2  UNL     1      25.577  -1.177  54.586  1.00  0.00    -0.206 F 
HETATM   30  C21 UNL     1      25.866   1.163  54.210  1.00  0.00     0.044 A 
HETATM   31  C22 UNL     1      26.231   2.191  53.373  1.00  0.00     0.032 A 
ENDBRANCH  23  25
ENDBRANCH  22  23
ENDBRANCH  21  22
ENDBRANCH  19  21
ENDBRANCH  17  18
ENDBRANCH   1  17
TORSDOF 10
ENDMDL
MODEL 9
REMARK VINA RESULT:      -6.9      2.289      5.926
REMARK  10 active torsions:
REMARK  status: ('A' for Active; 'I' for Inactive)
REMARK    1  A    between atoms: C2_2  and  N1_4 
REMARK    2  A    between atoms: C2_2  and  C4_5 
REMARK    3  A    between atoms: C5_6  and  C6_7 
REMARK    4  A    between atoms: C10_11  and  C11_12 
REMARK    5  A    between atoms: C11_12  and  C12_14 
REMARK    6  A    between atoms: C12_14  and  C13_15 
REMARK    7  A    between atoms: C14_16  and  C15_18 
REMARK    8  A    between atoms: C15_18  and  C16_19 
REMARK    9  A    between atoms: C16_19  and  N2_20 
REMARK   10  A    between atoms: N2_20  and  C17_21 
ROOT
HETATM    1  C11 UNL     1      21.650  -0.697  54.112  1.00  0.00     0.163 C 
HETATM    2  O1  UNL     1      21.632  -1.649  54.959  1.00  0.00    -0.292 OA
ENDROOT
BRANCH   1   3
HETATM    3  C10 UNL     1      20.443  -0.541  53.309  1.00  0.00     0.011 A 
HETATM    4  C9  UNL     1      19.315  -1.263  53.649  1.00  0.00     0.015 A 
HETATM    5  C8  UNL     1      18.137  -1.145  52.909  1.00  0.00     0.002 A 
HETATM    6  C7  UNL     1      18.068  -0.303  51.814  1.00  0.00     0.020 A 
HETATM    7  C6  UNL     1      19.202   0.417  51.480  1.00  0.00     0.018 A 
HETATM    8  C23 UNL     1      20.360   0.292  52.220  1.00  0.00     0.035 A 
BRANCH   7   9
HETATM    9  C5  UNL     1      19.214   1.315  50.357  1.00  0.00    -0.064 C 
HETATM   10  C4  UNL     1      19.232   2.060  49.395  1.00  0.00    -0.060 C 
BRANCH  10  11
HETATM   11  C2  UNL     1      19.258   2.935  48.223  1.00  0.00     0.210 C 
HETATM   12  C1  UNL     1      19.060   4.375  48.655  1.00  0.00     0.063 C 
HETATM   13  C3  UNL     1      20.584   2.858  47.496  1.00  0.00     0.063 C 
BRANCH  11  14
HETATM   14  N1  UNL     1      18.165   2.483  47.364  1.00  0.00     0.099 N 
HETATM   15  H7  UNL     1      17.731   3.306  46.889  1.00  0.00     0.315 HD
HETATM   16  H8  UNL     1      18.557   1.859  46.623  1.00  0.00     0.315 HD
ENDBRANCH  11  14
ENDBRANCH  10  11
ENDBRANCH   7   9
ENDBRANCH   1   3
BRANCH   1  17
HETATM   17  C12 UNL     1      22.807   0.216  53.925  1.00  0.00     0.114 C 
BRANCH  17  18
HETATM   18  C13 UNL     1      23.982  -0.547  53.457  1.00  0.00     0.018 C 
HETATM   19  C14 UNL     1      25.311  -0.398  53.426  1.00  0.00     0.092 C 
HETATM   20  F1  UNL     1      26.041  -1.416  52.868  1.00  0.00    -0.211 F 
BRANCH  19  21
HETATM   21  C15 UNL     1      25.970   0.797  53.920  1.00  0.00     0.089 C 
BRANCH  21  22
HETATM   22  C16 UNL     1      26.840   1.543  52.979  1.00  0.00     0.126 C 
BRANCH  22  23
HETATM   23  N2  UNL     1      26.223   2.492  52.110  1.00  0.00    -0.390 N 
HETATM   24  H19 UNL     1      26.872   3.015  51.456  1.00  0.00     0.159 HD
BRANCH  23  25
HETATM   25  C17 UNL     1      24.862   2.856  51.979  1.00  0.00     0.028 A 
HETATM   26  C18 UNL     1      24.167   3.737  52.798  1.00  0.00     0.032 A 
HETATM   27  C19 UNL     1      22.863   4.115  52.707  1.00  0.00     0.044 A 
HETATM   28  C20 UNL     1      22.128   3.563  51.679  1.00  0.00     0.116 A 
HETATM   29  F2  UNL     1      20.830   3.909  51.550  1.00  0.00    -0.206 F 
HETATM   30  C21 UNL     1      22.743   2.679  50.821  1.00  0.00     0.044 A 
HETATM   31  C22 UNL     1      24.067   2.347  50.980  1.00  0.00     0.032 A 
ENDBRANCH  23  25
ENDBRANCH  22  23
ENDBRANCH  21  22
ENDBRANCH  19  21
ENDBRANCH  17  18
ENDBRANCH   1  17
TORSDOF 10
ENDMDL
