MODEL 1
REMARK VINA RESULT:      -7.7      0.000      0.000
REMARK  5 active torsions:
REMARK  status: ('A' for Active; 'I' for Inactive)
REMARK    1  A    between atoms: O1_2  and  C2_3 
REMARK    2  A    between atoms: C5_6  and  O2_7 
REMARK    3  A    between atoms: O2_7  and  C6_8 
REMARK    4  A    between atoms: C9_11  and  O3_12 
REMARK    5  A    between atoms: C11_14  and  O4_15 
ROOT
HETATM    1  C2  UNL     1      24.412  -0.327  53.448  1.00  0.00     0.075 A 
HETATM    2  C3  UNL     1      25.150   0.493  52.616  1.00  0.00     0.055 A 
HETATM    3  C4  UNL     1      26.344   1.095  52.944  1.00  0.00     0.049 A 
HETATM    4  C5  UNL     1      27.016   1.902  52.048  1.00  0.00     0.183 A 
HETATM    5  N1  UNL     1      28.188   2.456  52.453  1.00  0.00    -0.217 NA
HETATM    6  C14 UNL     1      28.652   2.205  53.695  1.00  0.00     0.236 A 
HETATM    7  N2  UNL     1      27.986   1.411  54.567  1.00  0.00    -0.241 NA
HETATM    8  C15 UNL     1      26.820   0.840  54.214  1.00  0.00     0.073 A 
HETATM    9  C16 UNL     1      26.139   0.023  55.115  1.00  0.00     0.042 A 
HETATM   10  C17 UNL     1      24.934  -0.552  54.713  1.00  0.00    -0.026 A 
HETATM   11  C18 UNL     1      24.170  -1.438  55.655  1.00  0.00     0.051 C 
ENDROOT
BRANCH   4  12
HETATM   12  O2  UNL     1      26.471   2.102  50.806  1.00  0.00    -0.291 OA
BRANCH  12  13
HETATM   13  C6  UNL     1      26.085   3.366  50.366  1.00  0.00     0.080 A 
HETATM   14  C7  UNL     1      26.877   3.930  49.387  1.00  0.00     0.040 A 
HETATM   15  C8  UNL     1      26.525   5.186  48.925  1.00  0.00     0.042 A 
HETATM   16  C9  UNL     1      25.399   5.824  49.458  1.00  0.00     0.101 A 
HETATM   17  C11 UNL     1      24.627   5.234  50.437  1.00  0.00     0.104 A 
HETATM   18  C13 UNL     1      24.976   3.982  50.900  1.00  0.00     0.077 A 
BRANCH  16  19
HETATM   19  O3  UNL     1      25.100   7.085  48.950  1.00  0.00    -0.353 OA
HETATM   20  C10 UNL     1      25.784   7.548  47.810  1.00  0.00     0.210 C 
ENDBRANCH  16  19
BRANCH  17  21
HETATM   21  O4  UNL     1      23.543   5.984  50.870  1.00  0.00    -0.353 OA
HETATM   22  C12 UNL     1      22.442   5.418  51.553  1.00  0.00     0.210 C 
ENDBRANCH  17  21
ENDBRANCH  12  13
ENDBRANCH   4  12
BRANCH   1  23
HETATM   23  O1  UNL     1      23.222  -0.903  53.066  1.00  0.00    -0.355 OA
HETATM   24  C1  UNL     1      22.166  -0.065  52.634  1.00  0.00     0.210 C 
ENDBRANCH   1  23
TORSDOF 5
ENDMDL
MODEL 2
REMARK VINA RESULT:      -7.5      0.934      2.116
REMARK  5 active torsions:
REMARK  status: ('A' for Active; 'I' for Inactive)
REMARK    1  A    between atoms: O1_2  and  C2_3 
REMARK    2  A    between atoms: C5_6  and  O2_7 
REMARK    3  A    between atoms: O2_7  and  C6_8 
REMARK    4  A    between atoms: C9_11  and  O3_12 
REMARK    5  A    between atoms: C11_14  and  O4_15 
ROOT
HETATM    1  C2  UNL     1      24.211  -0.256  53.412  1.00  0.00     0.075 A 
HETATM    2  C3  UNL     1      24.945   0.566  52.578  1.00  0.00     0.055 A 
HETATM    3  C4  UNL     1      26.168   1.121  52.880  1.00  0.00     0.049 A 
HETATM    4  C5  UNL     1      26.833   1.935  51.986  1.00  0.00     0.183 A 
HETATM    5  N1  UNL     1      28.036   2.440  52.364  1.00  0.00    -0.217 NA
HETATM    6  C14 UNL     1      28.534   2.137  53.581  1.00  0.00     0.236 A 
HETATM    7  N2  UNL     1      27.875   1.338  54.453  1.00  0.00    -0.241 NA
HETATM    8  C15 UNL     1      26.680   0.813  54.124  1.00  0.00     0.073 A 
HETATM    9  C16 UNL     1      26.005  -0.010  55.025  1.00  0.00     0.042 A 
HETATM   10  C17 UNL     1      24.769  -0.536  54.649  1.00  0.00    -0.026 A 
HETATM   11  C18 UNL     1      24.011  -1.427  55.592  1.00  0.00     0.051 C 
ENDROOT
BRANCH   4  12
HETATM   12  O2  UNL     1      26.251   2.189  50.770  1.00  0.00    -0.291 OA
BRANCH  12  13
HETATM   13  C6  UNL     1      26.054   3.488  50.307  1.00  0.00     0.080 A 
HETATM   14  C7  UNL     1      24.939   4.138  50.795  1.00  0.00     0.040 A 
HETATM   15  C8  UNL     1      24.709   5.430  50.357  1.00  0.00     0.042 A 
HETATM   16  C9  UNL     1      25.600   6.017  49.453  1.00  0.00     0.101 A 
HETATM   17  C11 UNL     1      26.707   5.342  48.982  1.00  0.00     0.104 A 
HETATM   18  C13 UNL     1      26.938   4.053  49.417  1.00  0.00     0.077 A 
BRANCH  16  19
HETATM   19  O3  UNL     1      25.313   7.319  49.052  1.00  0.00    -0.353 OA
HETATM   20  C10 UNL     1      25.505   8.378  49.960  1.00  0.00     0.210 C 
ENDBRANCH  16  19
BRANCH  17  21
HETATM   21  O4  UNL     1      27.501   6.049  48.091  1.00  0.00    -0.353 OA
HETATM   22  C12 UNL     1      28.911   5.964  48.084  1.00  0.00     0.210 C 
ENDBRANCH  17  21
ENDBRANCH  12  13
ENDBRANCH   4  12
BRANCH   1  23
HETATM   23  O1  UNL     1      22.991  -0.783  53.055  1.00  0.00    -0.355 OA
HETATM   24  C1  UNL     1      22.050   0.051  52.404  1.00  0.00     0.210 C 
ENDBRANCH   1  23
TORSDOF 5
ENDMDL
MODEL 3
REMARK VINA RESULT:      -7.4      2.604      5.231
REMARK  5 active torsions:
REMARK  status: ('A' for Active; 'I' for Inactive)
REMARK    1  A    between atoms: O1_2  and  C2_3 
REMARK    2  A    between atoms: C5_6  and  O2_7 
REMARK    3  A    between atoms: O2_7  and  C6_8 
REMARK    4  A    between atoms: C9_11  and  O3_12 
REMARK    5  A    between atoms: C11_14  and  O4_15 
ROOT
HETATM    1  C2  UNL     1      26.857   1.412  52.641  1.00  0.00     0.075 A 
HETATM    2  C3  UNL     1      25.574   0.905  52.562  1.00  0.00     0.055 A 
HETATM    3  C4  UNL     1      24.966   0.123  53.517  1.00  0.00     0.049 A 
HETATM    4  C5  UNL     1      23.676  -0.343  53.356  1.00  0.00     0.183 A 
HETATM    5  N1  UNL     1      23.152  -1.108  54.348  1.00  0.00    -0.217 NA
HETATM    6  C14 UNL     1      23.894  -1.386  55.440  1.00  0.00     0.236 A 
HETATM    7  N2  UNL     1      25.158  -0.925  55.590  1.00  0.00    -0.241 NA
HETATM    8  C15 UNL     1      25.722  -0.163  54.635  1.00  0.00     0.073 A 
HETATM    9  C16 UNL     1      27.024   0.309  54.795  1.00  0.00     0.042 A 
HETATM   10  C17 UNL     1      27.575   1.097  53.784  1.00  0.00    -0.026 A 
HETATM   11  C18 UNL     1      28.975   1.625  53.919  1.00  0.00     0.051 C 
ENDROOT
BRANCH   4  12
HETATM   12  O2  UNL     1      22.996  -0.011  52.213  1.00  0.00    -0.291 OA
BRANCH  12  13
HETATM   13  C6  UNL     1      21.977   0.939  52.213  1.00  0.00     0.080 A 
HETATM   14  C7  UNL     1      20.691   0.442  52.145  1.00  0.00     0.040 A 
HETATM   15  C8  UNL     1      19.652   1.356  52.143  1.00  0.00     0.042 A 
HETATM   16  C9  UNL     1      19.939   2.723  52.210  1.00  0.00     0.101 A 
HETATM   17  C11 UNL     1      21.236   3.190  52.277  1.00  0.00     0.104 A 
HETATM   18  C13 UNL     1      22.274   2.281  52.279  1.00  0.00     0.077 A 
BRANCH  16  19
HETATM   19  O3  UNL     1      18.849   3.590  52.204  1.00  0.00    -0.353 OA
HETATM   20  C10 UNL     1      17.733   3.286  51.401  1.00  0.00     0.210 C 
ENDBRANCH  16  19
BRANCH  17  21
HETATM   21  O4  UNL     1      21.368   4.570  52.338  1.00  0.00    -0.353 OA
HETATM   22  C12 UNL     1      21.559   5.374  51.191  1.00  0.00     0.210 C 
ENDBRANCH  17  21
ENDBRANCH  12  13
ENDBRANCH   4  12
BRANCH   1  23
HETATM   23  O1  UNL     1      27.415   2.191  51.653  1.00  0.00    -0.355 OA
HETATM   24  C1  UNL     1      26.559   2.935  50.806  1.00  0.00     0.210 C 
ENDBRANCH   1  23
TORSDOF 5
ENDMDL
MODEL 4
REMARK VINA RESULT:      -7.2      2.929      5.639
REMARK  5 active torsions:
REMARK  status: ('A' for Active; 'I' for Inactive)
REMARK    1  A    between atoms: O1_2  and  C2_3 
REMARK    2  A    between atoms: C5_6  and  O2_7 
REMARK    3  A    between atoms: O2_7  and  C6_8 
REMARK    4  A    between atoms: C9_11  and  O3_12 
REMARK    5  A    between atoms: C11_14  and  O4_15 
ROOT
HETATM    1  C2  UNL     1      26.772   1.258  52.629  1.00  0.00     0.075 A 
HETATM    2  C3  UNL     1      25.477   0.785  52.536  1.00  0.00     0.055 A 
HETATM    3  C4  UNL     1      24.830   0.039  53.496  1.00  0.00     0.049 A 
HETATM    4  C5  UNL     1      23.531  -0.394  53.321  1.00  0.00     0.183 A 
HETATM    5  N1  UNL     1      22.969  -1.124  54.318  1.00  0.00    -0.217 NA
HETATM    6  C14 UNL     1      23.683  -1.400  55.428  1.00  0.00     0.236 A 
HETATM    7  N2  UNL     1      24.957  -0.972  55.593  1.00  0.00    -0.241 NA
HETATM    8  C15 UNL     1      25.559  -0.245  54.633  1.00  0.00     0.073 A 
HETATM    9  C16 UNL     1      26.871   0.195  54.807  1.00  0.00     0.042 A 
HETATM   10  C17 UNL     1      27.461   0.946  53.791  1.00  0.00    -0.026 A 
HETATM   11  C18 UNL     1      28.872   1.438  53.941  1.00  0.00     0.051 C 
ENDROOT
BRANCH   4  12
HETATM   12  O2  UNL     1      22.881  -0.067  52.159  1.00  0.00    -0.291 OA
BRANCH  12  13
HETATM   13  C6  UNL     1      21.750   0.747  52.153  1.00  0.00     0.080 A 
HETATM   14  C7  UNL     1      21.977   2.095  52.346  1.00  0.00     0.040 A 
HETATM   15  C8  UNL     1      20.878   2.934  52.346  1.00  0.00     0.042 A 
HETATM   16  C9  UNL     1      19.601   2.395  52.154  1.00  0.00     0.101 A 
HETATM   17  C11 UNL     1      19.406   1.043  51.964  1.00  0.00     0.104 A 
HETATM   18  C13 UNL     1      20.501   0.203  51.964  1.00  0.00     0.077 A 
BRANCH  16  19
HETATM   19  O3  UNL     1      18.538   3.294  52.166  1.00  0.00    -0.353 OA
HETATM   20  C10 UNL     1      18.260   4.047  51.009  1.00  0.00     0.210 C 
ENDBRANCH  16  19
BRANCH  17  21
HETATM   21  O4  UNL     1      18.086   0.652  51.787  1.00  0.00    -0.353 OA
HETATM   22  C12 UNL     1      17.578   0.203  50.548  1.00  0.00     0.210 C 
ENDBRANCH  17  21
ENDBRANCH  12  13
ENDBRANCH   4  12
BRANCH   1  23
HETATM   23  O1  UNL     1      27.368   2.001  51.636  1.00  0.00    -0.355 OA
HETATM   24  C1  UNL     1      26.570   2.889  50.875  1.00  0.00     0.210 C 
ENDBRANCH   1  23
TORSDOF 5
ENDMDL
MODEL 5
REMARK VINA RESULT:      -7.2      1.634      1.969
REMARK  5 active torsions:
REMARK  status: ('A' for Active; 'I' for Inactive)
REMARK    1  A    between atoms: O1_2  and  C2_3 
REMARK    2  A    between atoms: C5_6  and  O2_7 
REMARK    3  A    between atoms: O2_7  and  C6_8 
REMARK    4  A    between atoms: C9_11  and  O3_12 
REMARK    5  A    between atoms: C11_14  and  O4_15 
ROOT
HETATM    1  C2  UNL     1      22.861   0.625  52.229  1.00  0.00     0.075 A 
HETATM    2  C3  UNL     1      23.780   1.419  51.570  1.00  0.00     0.055 A 
HETATM    3  C4  UNL     1      25.096   1.589  51.938  1.00  0.00     0.049 A 
HETATM    4  C5  UNL     1      25.948   2.405  51.220  1.00  0.00     0.183 A 
HETATM    5  N1  UNL     1      27.230   2.515  51.652  1.00  0.00    -0.217 NA
HETATM    6  C14 UNL     1      27.627   1.836  52.748  1.00  0.00     0.236 A 
HETATM    7  N2  UNL     1      26.786   1.037  53.446  1.00  0.00    -0.241 NA
HETATM    8  C15 UNL     1      25.504   0.896  53.059  1.00  0.00     0.073 A 
HETATM    9  C16 UNL     1      24.641   0.072  53.781  1.00  0.00     0.042 A 
HETATM   10  C17 UNL     1      23.321  -0.051  53.349  1.00  0.00    -0.026 A 
HETATM   11  C18 UNL     1      22.361  -0.929  54.100  1.00  0.00     0.051 C 
ENDROOT
BRANCH   4  12
HETATM   12  O2  UNL     1      25.459   3.057  50.118  1.00  0.00    -0.291 OA
BRANCH  12  13
HETATM   13  C6  UNL     1      25.878   4.340  49.775  1.00  0.00     0.080 A 
HETATM   14  C7  UNL     1      26.994   4.413  48.966  1.00  0.00     0.040 A 
HETATM   15  C8  UNL     1      27.441   5.671  48.605  1.00  0.00     0.042 A 
HETATM   16  C9  UNL     1      26.757   6.801  49.064  1.00  0.00     0.101 A 
HETATM   17  C11 UNL     1      25.643   6.697  49.872  1.00  0.00     0.104 A 
HETATM   18  C13 UNL     1      25.196   5.443  50.234  1.00  0.00     0.077 A 
BRANCH  16  19
HETATM   19  O3  UNL     1      27.258   8.038  48.665  1.00  0.00    -0.353 OA
HETATM   20  C10 UNL     1      28.361   8.084  47.792  1.00  0.00     0.210 C 
ENDBRANCH  16  19
BRANCH  17  21
HETATM   21  O4  UNL     1      25.069   7.902  50.251  1.00  0.00    -0.353 OA
HETATM   22  C12 UNL     1      23.690   8.041  50.529  1.00  0.00     0.210 C 
ENDBRANCH  17  21
ENDBRANCH  12  13
ENDBRANCH   4  12
BRANCH   1  23
HETATM   23  O1  UNL     1      21.556   0.493  51.815  1.00  0.00    -0.355 OA
HETATM   24  C1  UNL     1      21.258   0.635  50.439  1.00  0.00     0.210 C 
ENDBRANCH   1  23
TORSDOF 5
ENDMDL
MODEL 6
REMARK VINA RESULT:      -7.1      3.329      6.390
REMARK  5 active torsions:
REMARK  status: ('A' for Active; 'I' for Inactive)
REMARK    1  A    between atoms: O1_2  and  C2_3 
REMARK    2  A    between atoms: C5_6  and  O2_7 
REMARK    3  A    between atoms: O2_7  and  C6_8 
REMARK    4  A    between atoms: C9_11  and  O3_12 
REMARK    5  A    between atoms: C11_14  and  O4_15 
ROOT
HETATM    1  C2  UNL     1      20.599   0.083  52.707  1.00  0.00     0.075 A 
HETATM    2  C3  UNL     1      21.860   0.647  52.769  1.00  0.00     0.055 A 
HETATM    3  C4  UNL     1      22.443   1.405  51.779  1.00  0.00     0.049 A 
HETATM    4  C5  UNL     1      23.711   1.931  51.925  1.00  0.00     0.183 A 
HETATM    5  N1  UNL     1      24.211   2.668  50.900  1.00  0.00    -0.217 NA
HETATM    6  C14 UNL     1      23.468   2.860  49.791  1.00  0.00     0.236 A 
HETATM    7  N2  UNL     1      22.225   2.341  49.656  1.00  0.00    -0.241 NA
HETATM    8  C15 UNL     1      21.685   1.603  50.643  1.00  0.00     0.073 A 
HETATM    9  C16 UNL     1      20.405   1.070  50.500  1.00  0.00     0.042 A 
HETATM   10  C17 UNL     1      19.878   0.311  51.545  1.00  0.00    -0.026 A 
HETATM   11  C18 UNL     1      18.502  -0.279  51.428  1.00  0.00     0.051 C 
ENDROOT
BRANCH   4  12
HETATM   12  O2  UNL     1      24.395   1.685  53.088  1.00  0.00    -0.291 OA
BRANCH  12  13
HETATM   13  C6  UNL     1      25.578   0.950  53.105  1.00  0.00     0.080 A 
HETATM   14  C7  UNL     1      25.444  -0.409  52.904  1.00  0.00     0.040 A 
HETATM   15  C8  UNL     1      26.598  -1.173  52.914  1.00  0.00     0.042 A 
HETATM   16  C9  UNL     1      27.833  -0.550  53.122  1.00  0.00     0.101 A 
HETATM   17  C11 UNL     1      27.934   0.812  53.320  1.00  0.00     0.104 A 
HETATM   18  C13 UNL     1      26.785   1.576  53.311  1.00  0.00     0.077 A 
BRANCH  16  19
HETATM   19  O3  UNL     1      28.954  -1.375  53.120  1.00  0.00    -0.353 OA
HETATM   20  C10 UNL     1      28.781  -2.772  53.109  1.00  0.00     0.210 C 
ENDBRANCH  16  19
BRANCH  17  21
HETATM   21  O4  UNL     1      29.222   1.289  53.514  1.00  0.00    -0.353 OA
HETATM   22  C12 UNL     1      29.590   2.072  54.632  1.00  0.00     0.210 C 
ENDBRANCH  17  21
ENDBRANCH  12  13
ENDBRANCH   4  12
BRANCH   1  23
HETATM   23  O1  UNL     1      20.066  -0.667  53.730  1.00  0.00    -0.355 OA
HETATM   24  C1  UNL     1      20.914  -1.542  54.450  1.00  0.00     0.210 C 
ENDBRANCH   1  23
TORSDOF 5
ENDMDL
MODEL 7
REMARK VINA RESULT:      -6.8      4.480      7.868
REMARK  5 active torsions:
REMARK  status: ('A' for Active; 'I' for Inactive)
REMARK    1  A    between atoms: O1_2  and  C2_3 
REMARK    2  A    between atoms: C5_6  and  O2_7 
REMARK    3  A    between atoms: O2_7  and  C6_8 
REMARK    4  A    between atoms: C9_11  and  O3_12 
REMARK    5  A    between atoms: C11_14  and  O4_15 
ROOT
HETATM    1  C2  UNL     1      31.876   5.188  48.245  1.00  0.00     0.075 A 
HETATM    2  C3  UNL     1      30.586   5.673  48.143  1.00  0.00     0.055 A 
HETATM    3  C4  UNL     1      30.185   6.947  48.477  1.00  0.00     0.049 A 
HETATM    4  C5  UNL     1      28.871   7.349  48.344  1.00  0.00     0.183 A 
HETATM    5  N1  UNL     1      28.562   8.624  48.695  1.00  0.00    -0.217 NA
HETATM    6  C14 UNL     1      29.529   9.443  49.156  1.00  0.00     0.236 A 
HETATM    7  N2  UNL     1      30.816   9.041  49.283  1.00  0.00    -0.241 NA
HETATM    8  C15 UNL     1      31.173   7.787  48.949  1.00  0.00     0.073 A 
HETATM    9  C16 UNL     1      32.499   7.378  49.081  1.00  0.00     0.042 A 
HETATM   10  C17 UNL     1      32.832   6.071  48.723  1.00  0.00    -0.026 A 
HETATM   11  C18 UNL     1      34.250   5.593  48.852  1.00  0.00     0.051 C 
ENDROOT
BRANCH   4  12
HETATM   12  O2  UNL     1      27.954   6.448  47.867  1.00  0.00    -0.291 OA
BRANCH  12  13
HETATM   13  C6  UNL     1      27.062   5.790  48.710  1.00  0.00     0.080 A 
HETATM   14  C7  UNL     1      27.267   4.434  48.862  1.00  0.00     0.040 A 
HETATM   15  C8  UNL     1      26.400   3.746  49.692  1.00  0.00     0.042 A 
HETATM   16  C9  UNL     1      25.369   4.438  50.335  1.00  0.00     0.101 A 
HETATM   17  C11 UNL     1      25.189   5.796  50.163  1.00  0.00     0.104 A 
HETATM   18  C13 UNL     1      26.052   6.484  49.335  1.00  0.00     0.077 A 
BRANCH  16  19
HETATM   19  O3  UNL     1      24.532   3.688  51.157  1.00  0.00    -0.353 OA
HETATM   20  C10 UNL     1      23.580   2.832  50.571  1.00  0.00     0.210 C 
ENDBRANCH  16  19
BRANCH  17  21
HETATM   21  O4  UNL     1      24.126   6.347  50.863  1.00  0.00    -0.353 OA
HETATM   22  C12 UNL     1      23.788   7.718  50.791  1.00  0.00     0.210 C 
ENDBRANCH  17  21
ENDBRANCH  12  13
ENDBRANCH   4  12
BRANCH   1  23
HETATM   23  O1  UNL     1      32.220   3.902  47.895  1.00  0.00    -0.355 OA
HETATM   24  C1  UNL     1      32.092   3.505  46.543  1.00  0.00     0.210 C 
ENDBRANCH   1  23
TORSDOF 5
ENDMDL
MODEL 8
REMARK VINA RESULT:      -6.8      3.722      6.515
REMARK  5 active torsions:
REMARK  status: ('A' for Active; 'I' for Inactive)
REMARK    1  A    between atoms: O1_2  and  C2_3 
REMARK    2  A    between atoms: C5_6  and  O2_7 
REMARK    3  A    between atoms: O2_7  and  C6_8 
REMARK    4  A    between atoms: C9_11  and  O3_12 
REMARK    5  A    between atoms: C11_14  and  O4_15 
ROOT
HETATM    1  C2  UNL     1      26.361  -0.372  53.474  1.00  0.00     0.075 A 
HETATM    2  C3  UNL     1      25.050  -0.164  53.090  1.00  0.00     0.055 A 
HETATM    3  C4  UNL     1      24.444   1.064  52.953  1.00  0.00     0.049 A 
HETATM    4  C5  UNL     1      23.125   1.181  52.564  1.00  0.00     0.183 A 
HETATM    5  N1  UNL     1      22.607   2.431  52.453  1.00  0.00    -0.217 NA
HETATM    6  C14 UNL     1      23.382   3.501  52.721  1.00  0.00     0.236 A 
HETATM    7  N2  UNL     1      24.676   3.379  53.102  1.00  0.00    -0.241 NA
HETATM    8  C15 UNL     1      25.235   2.162  53.227  1.00  0.00     0.073 A 
HETATM    9  C16 UNL     1      26.568   2.040  53.619  1.00  0.00     0.042 A 
HETATM   10  C17 UNL     1      27.114   0.762  53.737  1.00  0.00    -0.026 A 
HETATM   11  C18 UNL     1      28.546   0.591  54.156  1.00  0.00     0.051 C 
ENDROOT
BRANCH   4  12
HETATM   12  O2  UNL     1      22.412   0.037  52.311  1.00  0.00    -0.291 OA
BRANCH  12  13
HETATM   13  C6  UNL     1      21.049   0.069  52.025  1.00  0.00     0.080 A 
HETATM   14  C7  UNL     1      20.702   0.625  50.811  1.00  0.00     0.040 A 
HETATM   15  C8  UNL     1      19.357   0.674  50.491  1.00  0.00     0.042 A 
HETATM   16  C9  UNL     1      18.417   0.165  51.394  1.00  0.00     0.101 A 
HETATM   17  C11 UNL     1      18.795  -0.386  52.601  1.00  0.00     0.104 A 
HETATM   18  C13 UNL     1      20.136  -0.436  52.922  1.00  0.00     0.077 A 
BRANCH  16  19
HETATM   19  O3  UNL     1      17.080   0.244  51.012  1.00  0.00    -0.353 OA
HETATM   20  C10 UNL     1      16.678  -0.329  49.791  1.00  0.00     0.210 C 
ENDBRANCH  16  19
BRANCH  17  21
HETATM   21  O4  UNL     1      17.755  -0.850  53.393  1.00  0.00    -0.353 OA
HETATM   22  C12 UNL     1      17.410  -2.217  53.485  1.00  0.00     0.210 C 
ENDBRANCH  17  21
ENDBRANCH  12  13
ENDBRANCH   4  12
BRANCH   1  23
HETATM   23  O1  UNL     1      26.914  -1.626  53.594  1.00  0.00    -0.355 OA
HETATM   24  C1  UNL     1      27.112  -2.400  52.425  1.00  0.00     0.210 C 
ENDBRANCH   1  23
TORSDOF 5
ENDMDL
MODEL 9
REMARK VINA RESULT:      -6.8      2.876      4.045
REMARK  5 active torsions:
REMARK  status: ('A' for Active; 'I' for Inactive)
REMARK    1  A    between atoms: O1_2  and  C2_3 
REMARK    2  A    between atoms: C5_6  and  O2_7 
REMARK    3  A    between atoms: O2_7  and  C6_8 
REMARK    4  A    between atoms: C9_11  and  O3_12 
REMARK    5  A    between atoms: C11_14  and  O4_15 
ROOT
HETATM    1  C2  UNL     1      27.201   1.079  52.833  1.00  0.00     0.075 A 
HETATM    2  C3  UNL     1      25.982   1.719  52.714  1.00  0.00     0.055 A 
HETATM    3  C4  UNL     1      24.751   1.127  52.883  1.00  0.00     0.049 A 
HETATM    4  C5  UNL     1      23.580   1.844  52.744  1.00  0.00     0.183 A 
HETATM    5  N1  UNL     1      22.408   1.182  52.928  1.00  0.00    -0.217 NA
HETATM    6  C14 UNL     1      22.424  -0.131  53.234  1.00  0.00     0.236 A 
HETATM    7  N2  UNL     1      23.578  -0.828  53.368  1.00  0.00    -0.241 NA
HETATM    8  C15 UNL     1      24.765  -0.217  53.196  1.00  0.00     0.073 A 
HETATM    9  C16 UNL     1      25.950  -0.937  53.335  1.00  0.00     0.042 A 
HETATM   10  C17 UNL     1      27.161  -0.270  53.149  1.00  0.00    -0.026 A 
HETATM   11  C18 UNL     1      28.459  -1.012  53.291  1.00  0.00     0.051 C 
ENDROOT
BRANCH   4  12
HETATM   12  O2  UNL     1      23.658   3.177  52.432  1.00  0.00    -0.291 OA
BRANCH  12  13
HETATM   13  C6  UNL     1      23.230   3.671  51.202  1.00  0.00     0.080 A 
HETATM   14  C7  UNL     1      23.621   2.947  50.094  1.00  0.00     0.040 A 
HETATM   15  C8  UNL     1      23.215   3.407  48.854  1.00  0.00     0.042 A 
HETATM   16  C9  UNL     1      22.436   4.565  48.772  1.00  0.00     0.101 A 
HETATM   17  C11 UNL     1      22.059   5.268  49.899  1.00  0.00     0.104 A 
HETATM   18  C13 UNL     1      22.464   4.811  51.136  1.00  0.00     0.077 A 
BRANCH  16  19
HETATM   19  O3  UNL     1      22.060   4.975  47.495  1.00  0.00    -0.353 OA
HETATM   20  C10 UNL     1      21.910   4.011  46.480  1.00  0.00     0.210 C 
ENDBRANCH  16  19
BRANCH  17  21
HETATM   21  O4  UNL     1      21.288   6.397  49.665  1.00  0.00    -0.353 OA
HETATM   22  C12 UNL     1      21.338   7.545  50.487  1.00  0.00     0.210 C 
ENDBRANCH  17  21
ENDBRANCH  12  13
ENDBRANCH   4  12
BRANCH   1  23
HETATM   23  O1  UNL     1      28.404   1.723  52.654  1.00  0.00    -0.355 OA
HETATM   24  C1  UNL     1      28.932   2.492  53.718  1.00  0.00     0.210 C 
ENDBRANCH   1  23
TORSDOF 5
ENDMDL
