MODEL 1
REMARK VINA RESULT:      -6.2      0.000      0.000
REMARK  8 active torsions:
REMARK  status: ('A' for Active; 'I' for Inactive)
REMARK    1  A    between atoms: C1_2  and  C2_3 
REMARK    2  A    between atoms: C1_2  and  C7_10 
REMARK    3  A    between atoms: C2_3  and  C3_4 
REMARK    4  A    between atoms: C7_10  and  O1_11 
REMARK    5  A    between atoms: O1_11  and  C8_12 
REMARK    6  A    between atoms: C8_12  and  C9_13 
REMARK    7  A    between atoms: C9_13  and  C10_14 
REMARK    8  A    between atoms: C10_14  and  N3_15 
ROOT
HETATM    1  C7  UNL     1      25.299   3.734  50.934  1.00  0.00     0.246 C 
ENDROOT
BRANCH   1   2
HETATM    2  C1  UNL     1      26.316   2.715  50.856  1.00  0.00     0.163 C 
HETATM    3  F1  UNL     1      26.857   2.111  49.824  1.00  0.00    -0.199 F 
BRANCH   2   4
HETATM    4  C2  UNL     1      26.859   2.233  51.961  1.00  0.00    -0.078 C 
BRANCH   4   5
HETATM    5  C3  UNL     1      27.487   1.485  52.835  1.00  0.00     0.027 A 
HETATM    6  C4  UNL     1      27.259   0.081  52.893  1.00  0.00     0.135 A 
HETATM    7  N1  UNL     1      27.930  -0.574  53.810  1.00  0.00    -0.253 NA
HETATM    8  C5  UNL     1      28.808   0.214  54.635  1.00  0.00     0.226 A 
HETATM    9  N2  UNL     1      29.017   1.480  54.584  1.00  0.00    -0.278 NA
HETATM   10  C6  UNL     1      28.344   2.355  53.613  1.00  0.00     0.199 A 
ENDBRANCH   4   5
ENDBRANCH   2   4
ENDBRANCH   1   2
BRANCH   1  11
HETATM   11  O1  UNL     1      24.157   3.226  51.554  1.00  0.00    -0.384 OA
BRANCH  11  12
HETATM   12  C8  UNL     1      23.579   2.305  50.696  1.00  0.00     0.169 C 
BRANCH  12  13
HETATM   13  C9  UNL     1      22.674   1.337  51.447  1.00  0.00     0.046 C 
BRANCH  13  14
HETATM   14  C10 UNL     1      23.395   0.923  52.697  1.00  0.00     0.119 C 
BRANCH  14  15
HETATM   15  N3  UNL     1      23.097  -0.392  53.151  1.00  0.00    -0.408 N 
HETATM   16  C11 UNL     1      23.888  -0.883  54.223  1.00  0.00     0.143 C 
HETATM   17  C12 UNL     1      23.145  -1.206  55.481  1.00  0.00     0.187 C 
HETATM   18  O2  UNL     1      22.067  -2.028  55.142  1.00  0.00    -0.388 OA
HETATM   19  C13 UNL     1      21.177  -1.262  54.412  1.00  0.00     0.187 C 
HETATM   20  C14 UNL     1      21.745  -0.810  53.092  1.00  0.00     0.143 C 
ENDBRANCH  14  15
ENDBRANCH  13  14
ENDBRANCH  12  13
ENDBRANCH  11  12
ENDBRANCH   1  11
TORSDOF 8
ENDMDL
MODEL 2
REMARK VINA RESULT:      -5.8      2.750      5.389
REMARK  8 active torsions:
REMARK  status: ('A' for Active; 'I' for Inactive)
REMARK    1  A    between atoms: C1_2  and  C2_3 
REMARK    2  A    between atoms: C1_2  and  C7_10 
REMARK    3  A    between atoms: C2_3  and  C3_4 
REMARK    4  A    between atoms: C7_10  and  O1_11 
REMARK    5  A    between atoms: O1_11  and  C8_12 
REMARK    6  A    between atoms: C8_12  and  C9_13 
REMARK    7  A    between atoms: C9_13  and  C10_14 
REMARK    8  A    between atoms: C10_14  and  N3_15 
ROOT
HETATM    1  C7  UNL     1      23.428   1.709  52.628  1.00  0.00     0.246 C 
ENDROOT
BRANCH   1   2
HETATM    2  C1  UNL     1      24.397   2.607  53.207  1.00  0.00     0.163 C 
HETATM    3  F1  UNL     1      24.281   3.839  53.644  1.00  0.00    -0.199 F 
BRANCH   2   4
HETATM    4  C2  UNL     1      25.652   2.219  53.363  1.00  0.00    -0.078 C 
BRANCH   4   5
HETATM    5  C3  UNL     1      26.749   1.637  53.780  1.00  0.00     0.027 A 
HETATM    6  C4  UNL     1      28.026   2.203  53.509  1.00  0.00     0.135 A 
HETATM    7  N1  UNL     1      29.061   1.535  53.962  1.00  0.00    -0.253 NA
HETATM    8  C5  UNL     1      28.765   0.319  54.674  1.00  0.00     0.226 A 
HETATM    9  N2  UNL     1      27.614  -0.193  54.921  1.00  0.00    -0.278 NA
HETATM   10  C6  UNL     1      26.358   0.432  54.483  1.00  0.00     0.199 A 
ENDBRANCH   4   5
ENDBRANCH   2   4
ENDBRANCH   1   2
BRANCH   1  11
HETATM   11  O1  UNL     1      23.797   1.381  51.324  1.00  0.00    -0.384 OA
BRANCH  11  12
HETATM   12  C8  UNL     1      22.872   1.952  50.463  1.00  0.00     0.169 C 
BRANCH  12  13
HETATM   13  C9  UNL     1      23.527   2.973  49.542  1.00  0.00     0.046 C 
BRANCH  13  14
HETATM   14  C10 UNL     1      23.079   4.335  49.987  1.00  0.00     0.119 C 
BRANCH  14  15
HETATM   15  N3  UNL     1      24.087   5.121  50.611  1.00  0.00    -0.408 N 
HETATM   16  C11 UNL     1      25.388   5.040  50.049  1.00  0.00     0.143 C 
HETATM   17  C12 UNL     1      25.937   6.319  49.499  1.00  0.00     0.187 C 
HETATM   18  O2  UNL     1      25.800   7.302  50.482  1.00  0.00    -0.388 OA
HETATM   19  C13 UNL     1      24.448   7.552  50.631  1.00  0.00     0.187 C 
HETATM   20  C14 UNL     1      23.692   6.364  51.166  1.00  0.00     0.143 C 
ENDBRANCH  14  15
ENDBRANCH  13  14
ENDBRANCH  12  13
ENDBRANCH  11  12
ENDBRANCH   1  11
TORSDOF 8
ENDMDL
MODEL 3
REMARK VINA RESULT:      -5.8      1.762      2.122
REMARK  8 active torsions:
REMARK  status: ('A' for Active; 'I' for Inactive)
REMARK    1  A    between atoms: C1_2  and  C2_3 
REMARK    2  A    between atoms: C1_2  and  C7_10 
REMARK    3  A    between atoms: C2_3  and  C3_4 
REMARK    4  A    between atoms: C7_10  and  O1_11 
REMARK    5  A    between atoms: O1_11  and  C8_12 
REMARK    6  A    between atoms: C8_12  and  C9_13 
REMARK    7  A    between atoms: C9_13  and  C10_14 
REMARK    8  A    between atoms: C10_14  and  N3_15 
ROOT
HETATM    1  C7  UNL     1      24.142   2.870  51.536  1.00  0.00     0.246 C 
ENDROOT
BRANCH   1   2
HETATM    2  C1  UNL     1      24.682   3.045  52.861  1.00  0.00     0.163 C 
HETATM    3  F1  UNL     1      24.259   3.757  53.880  1.00  0.00    -0.199 F 
BRANCH   2   4
HETATM    4  C2  UNL     1      25.798   2.428  53.210  1.00  0.00    -0.078 C 
BRANCH   4   5
HETATM    5  C3  UNL     1      26.671   1.577  53.690  1.00  0.00     0.027 A 
HETATM    6  C4  UNL     1      26.257   0.485  54.503  1.00  0.00     0.135 A 
HETATM    7  N1  UNL     1      27.210  -0.302  54.942  1.00  0.00    -0.253 NA
HETATM    8  C5  UNL     1      28.549   0.044  54.541  1.00  0.00     0.226 A 
HETATM    9  N2  UNL     1      28.926   1.028  53.807  1.00  0.00    -0.278 NA
HETATM   10  C6  UNL     1      27.981   1.999  53.238  1.00  0.00     0.199 A 
ENDBRANCH   4   5
ENDBRANCH   2   4
ENDBRANCH   1   2
BRANCH   1  11
HETATM   11  O1  UNL     1      22.796   3.236  51.513  1.00  0.00    -0.384 OA
BRANCH  11  12
HETATM   12  C8  UNL     1      22.158   2.456  50.562  1.00  0.00     0.169 C 
BRANCH  12  13
HETATM   13  C9  UNL     1      22.336   0.971  50.849  1.00  0.00     0.046 C 
BRANCH  13  14
HETATM   14  C10 UNL     1      21.080   0.486  51.512  1.00  0.00     0.119 C 
BRANCH  14  15
HETATM   15  N3  UNL     1      21.165   0.350  52.926  1.00  0.00    -0.408 N 
HETATM   16  C11 UNL     1      20.140  -0.410  53.549  1.00  0.00     0.143 C 
HETATM   17  C12 UNL     1      20.593  -1.645  54.264  1.00  0.00     0.187 C 
HETATM   18  O2  UNL     1      21.639  -1.286  55.118  1.00  0.00    -0.388 OA
HETATM   19  C13 UNL     1      22.718  -0.939  54.327  1.00  0.00     0.187 C 
HETATM   20  C14 UNL     1      22.460   0.292  53.497  1.00  0.00     0.143 C 
ENDBRANCH  14  15
ENDBRANCH  13  14
ENDBRANCH  12  13
ENDBRANCH  11  12
ENDBRANCH   1  11
TORSDOF 8
ENDMDL
MODEL 4
REMARK VINA RESULT:      -5.7      2.201      5.564
REMARK  8 active torsions:
REMARK  status: ('A' for Active; 'I' for Inactive)
REMARK    1  A    between atoms: C1_2  and  C2_3 
REMARK    2  A    between atoms: C1_2  and  C7_10 
REMARK    3  A    between atoms: C2_3  and  C3_4 
REMARK    4  A    between atoms: C7_10  and  O1_11 
REMARK    5  A    between atoms: O1_11  and  C8_12 
REMARK    6  A    between atoms: C8_12  and  C9_13 
REMARK    7  A    between atoms: C9_13  and  C10_14 
REMARK    8  A    between atoms: C10_14  and  N3_15 
ROOT
HETATM    1  C7  UNL     1      23.714   3.096  52.483  1.00  0.00     0.246 C 
ENDROOT
BRANCH   1   2
HETATM    2  C1  UNL     1      23.169   2.010  51.707  1.00  0.00     0.163 C 
HETATM    3  F1  UNL     1      23.050   1.850  50.409  1.00  0.00    -0.199 F 
BRANCH   2   4
HETATM    4  C2  UNL     1      22.671   0.945  52.312  1.00  0.00    -0.078 C 
BRANCH   4   5
HETATM    5  C3  UNL     1      21.887   0.102  52.938  1.00  0.00     0.027 A 
HETATM    6  C4  UNL     1      20.471   0.204  52.833  1.00  0.00     0.135 A 
HETATM    7  N1  UNL     1      19.778  -0.682  53.506  1.00  0.00    -0.253 NA
HETATM    8  C5  UNL     1      20.542  -1.641  54.261  1.00  0.00     0.226 A 
HETATM    9  N2  UNL     1      21.818  -1.737  54.357  1.00  0.00    -0.278 NA
HETATM   10  C6  UNL     1      22.735  -0.822  53.664  1.00  0.00     0.199 A 
ENDBRANCH   4   5
ENDBRANCH   2   4
ENDBRANCH   1   2
BRANCH   1  11
HETATM   11  O1  UNL     1      24.979   2.757  52.962  1.00  0.00    -0.384 OA
BRANCH  11  12
HETATM   12  C8  UNL     1      25.774   2.432  51.875  1.00  0.00     0.169 C 
BRANCH  12  13
HETATM   13  C9  UNL     1      27.166   1.995  52.315  1.00  0.00     0.046 C 
BRANCH  13  14
HETATM   14  C10 UNL     1      27.097   1.680  53.781  1.00  0.00     0.119 C 
BRANCH  14  15
HETATM   15  N3  UNL     1      27.310   0.312  54.109  1.00  0.00    -0.408 N 
HETATM   16  C11 UNL     1      26.388  -0.619  53.561  1.00  0.00     0.143 C 
HETATM   17  C12 UNL     1      26.972  -1.639  52.635  1.00  0.00     0.187 C 
HETATM   18  O2  UNL     1      28.064  -2.227  53.278  1.00  0.00    -0.388 OA
HETATM   19  C13 UNL     1      29.050  -1.264  53.382  1.00  0.00     0.187 C 
HETATM   20  C14 UNL     1      28.650  -0.116  54.273  1.00  0.00     0.143 C 
ENDBRANCH  14  15
ENDBRANCH  13  14
ENDBRANCH  12  13
ENDBRANCH  11  12
ENDBRANCH   1  11
TORSDOF 8
ENDMDL
MODEL 5
REMARK VINA RESULT:      -5.6      2.364      5.457
REMARK  8 active torsions:
REMARK  status: ('A' for Active; 'I' for Inactive)
REMARK    1  A    between atoms: C1_2  and  C2_3 
REMARK    2  A    between atoms: C1_2  and  C7_10 
REMARK    3  A    between atoms: C2_3  and  C3_4 
REMARK    4  A    between atoms: C7_10  and  O1_11 
REMARK    5  A    between atoms: O1_11  and  C8_12 
REMARK    6  A    between atoms: C8_12  and  C9_13 
REMARK    7  A    between atoms: C9_13  and  C10_14 
REMARK    8  A    between atoms: C10_14  and  N3_15 
ROOT
HETATM    1  C7  UNL     1      23.490   3.794  51.392  1.00  0.00     0.246 C 
ENDROOT
BRANCH   1   2
HETATM    2  C1  UNL     1      23.656   3.018  52.596  1.00  0.00     0.163 C 
HETATM    3  F1  UNL     1      24.374   3.236  53.673  1.00  0.00    -0.199 F 
BRANCH   2   4
HETATM    4  C2  UNL     1      23.022   1.866  52.736  1.00  0.00    -0.078 C 
BRANCH   4   5
HETATM    5  C3  UNL     1      22.396   0.822  53.222  1.00  0.00     0.027 A 
HETATM    6  C4  UNL     1      23.119  -0.303  53.707  1.00  0.00     0.135 A 
HETATM    7  N1  UNL     1      22.398  -1.300  54.163  1.00  0.00    -0.253 NA
HETATM    8  C5  UNL     1      20.970  -1.120  54.111  1.00  0.00     0.226 A 
HETATM    9  N2  UNL     1      20.315  -0.106  53.675  1.00  0.00    -0.278 NA
HETATM   10  C6  UNL     1      20.975   1.090  53.133  1.00  0.00     0.199 A 
ENDBRANCH   4   5
ENDBRANCH   2   4
ENDBRANCH   1   2
BRANCH   1  11
HETATM   11  O1  UNL     1      24.733   4.193  50.902  1.00  0.00    -0.384 OA
BRANCH  11  12
HETATM   12  C8  UNL     1      25.318   3.101  50.281  1.00  0.00     0.169 C 
BRANCH  12  13
HETATM   13  C9  UNL     1      26.649   2.740  50.929  1.00  0.00     0.046 C 
BRANCH  13  14
HETATM   14  C10 UNL     1      26.538   1.330  51.431  1.00  0.00     0.119 C 
BRANCH  14  15
HETATM   15  N3  UNL     1      26.932   1.145  52.786  1.00  0.00    -0.408 N 
HETATM   16  C11 UNL     1      27.306  -0.173  53.160  1.00  0.00     0.143 C 
HETATM   17  C12 UNL     1      28.719  -0.337  53.625  1.00  0.00     0.187 C 
HETATM   18  O2  UNL     1      28.962   0.626  54.607  1.00  0.00    -0.388 OA
HETATM   19  C13 UNL     1      28.953   1.861  53.985  1.00  0.00     0.187 C 
HETATM   20  C14 UNL     1      27.603   2.219  53.420  1.00  0.00     0.143 C 
ENDBRANCH  14  15
ENDBRANCH  13  14
ENDBRANCH  12  13
ENDBRANCH  11  12
ENDBRANCH   1  11
TORSDOF 8
ENDMDL
MODEL 6
REMARK VINA RESULT:      -5.6      1.844      2.329
REMARK  8 active torsions:
REMARK  status: ('A' for Active; 'I' for Inactive)
REMARK    1  A    between atoms: C1_2  and  C2_3 
REMARK    2  A    between atoms: C1_2  and  C7_10 
REMARK    3  A    between atoms: C2_3  and  C3_4 
REMARK    4  A    between atoms: C7_10  and  O1_11 
REMARK    5  A    between atoms: O1_11  and  C8_12 
REMARK    6  A    between atoms: C8_12  and  C9_13 
REMARK    7  A    between atoms: C9_13  and  C10_14 
REMARK    8  A    between atoms: C10_14  and  N3_15 
ROOT
HETATM    1  C7  UNL     1      24.650   1.640  52.142  1.00  0.00     0.246 C 
ENDROOT
BRANCH   1   2
HETATM    2  C1  UNL     1      25.701   1.806  53.115  1.00  0.00     0.163 C 
HETATM    3  F1  UNL     1      25.791   2.587  54.166  1.00  0.00    -0.199 F 
BRANCH   2   4
HETATM    4  C2  UNL     1      26.815   1.100  53.016  1.00  0.00    -0.078 C 
BRANCH   4   5
HETATM    5  C3  UNL     1      27.760   0.207  53.180  1.00  0.00     0.027 A 
HETATM    6  C4  UNL     1      29.091   0.601  53.498  1.00  0.00     0.135 A 
HETATM    7  N1  UNL     1      29.963  -0.369  53.630  1.00  0.00    -0.253 NA
HETATM    8  C5  UNL     1      29.458  -1.703  53.436  1.00  0.00     0.226 A 
HETATM    9  N2  UNL     1      28.259  -2.062  53.150  1.00  0.00    -0.278 NA
HETATM   10  C6  UNL     1      27.166  -1.097  52.970  1.00  0.00     0.199 A 
ENDBRANCH   4   5
ENDBRANCH   2   4
ENDBRANCH   1   2
BRANCH   1  11
HETATM   11  O1  UNL     1      23.473   2.232  52.601  1.00  0.00    -0.384 OA
BRANCH  11  12
HETATM   12  C8  UNL     1      22.703   2.561  51.498  1.00  0.00     0.169 C 
BRANCH  12  13
HETATM   13  C9  UNL     1      21.318   1.932  51.579  1.00  0.00     0.046 C 
BRANCH  13  14
HETATM   14  C10 UNL     1      21.477   0.458  51.339  1.00  0.00     0.119 C 
BRANCH  14  15
HETATM   15  N3  UNL     1      21.224  -0.363  52.473  1.00  0.00    -0.408 N 
HETATM   16  C11 UNL     1      22.327  -1.102  52.976  1.00  0.00     0.143 C 
HETATM   17  C12 UNL     1      22.740  -0.776  54.377  1.00  0.00     0.187 C 
HETATM   18  O2  UNL     1      21.600  -0.831  55.183  1.00  0.00    -0.388 OA
HETATM   19  C13 UNL     1      20.785   0.224  54.818  1.00  0.00     0.187 C 
HETATM   20  C14 UNL     1      20.266   0.099  53.410  1.00  0.00     0.143 C 
ENDBRANCH  14  15
ENDBRANCH  13  14
ENDBRANCH  12  13
ENDBRANCH  11  12
ENDBRANCH   1  11
TORSDOF 8
ENDMDL
MODEL 7
REMARK VINA RESULT:      -5.6      2.494      4.390
REMARK  8 active torsions:
REMARK  status: ('A' for Active; 'I' for Inactive)
REMARK    1  A    between atoms: C1_2  and  C2_3 
REMARK    2  A    between atoms: C1_2  and  C7_10 
REMARK    3  A    between atoms: C2_3  and  C3_4 
REMARK    4  A    between atoms: C7_10  and  O1_11 
REMARK    5  A    between atoms: O1_11  and  C8_12 
REMARK    6  A    between atoms: C8_12  and  C9_13 
REMARK    7  A    between atoms: C9_13  and  C10_14 
REMARK    8  A    between atoms: C10_14  and  N3_15 
ROOT
HETATM    1  C7  UNL     1      22.355  -0.897  53.355  1.00  0.00     0.246 C 
ENDROOT
BRANCH   1   2
HETATM    2  C1  UNL     1      23.312  -0.998  54.429  1.00  0.00     0.163 C 
HETATM    3  F1  UNL     1      23.195  -1.467  55.650  1.00  0.00    -0.199 F 
BRANCH   2   4
HETATM    4  C2  UNL     1      24.550  -0.565  54.259  1.00  0.00    -0.078 C 
BRANCH   4   5
HETATM    5  C3  UNL     1      25.845  -0.490  54.073  1.00  0.00     0.027 A 
HETATM    6  C4  UNL     1      26.479  -1.233  53.039  1.00  0.00     0.135 A 
HETATM    7  N1  UNL     1      27.780  -1.096  52.944  1.00  0.00    -0.253 NA
HETATM    8  C5  UNL     1      28.392  -0.209  53.900  1.00  0.00     0.226 A 
HETATM    9  N2  UNL     1      27.823   0.463  54.833  1.00  0.00    -0.278 NA
HETATM   10  C6  UNL     1      26.373   0.419  55.070  1.00  0.00     0.199 A 
ENDBRANCH   4   5
ENDBRANCH   2   4
ENDBRANCH   1   2
BRANCH   1  11
HETATM   11  O1  UNL     1      21.080  -0.663  53.868  1.00  0.00    -0.384 OA
BRANCH  11  12
HETATM   12  C8  UNL     1      20.728   0.642  53.560  1.00  0.00     0.169 C 
BRANCH  12  13
HETATM   13  C9  UNL     1      20.831   0.906  52.063  1.00  0.00     0.046 C 
BRANCH  13  14
HETATM   14  C10 UNL     1      20.965   2.389  51.875  1.00  0.00     0.119 C 
BRANCH  14  15
HETATM   15  N3  UNL     1      22.268   2.830  51.512  1.00  0.00    -0.408 N 
HETATM   16  C11 UNL     1      22.924   3.685  52.436  1.00  0.00     0.143 C 
HETATM   17  C12 UNL     1      24.198   3.156  53.016  1.00  0.00     0.187 C 
HETATM   18  O2  UNL     1      25.006   2.731  51.959  1.00  0.00    -0.388 OA
HETATM   19  C13 UNL     1      24.403   1.619  51.400  1.00  0.00     0.187 C 
HETATM   20  C14 UNL     1      23.073   1.936  50.766  1.00  0.00     0.143 C 
ENDBRANCH  14  15
ENDBRANCH  13  14
ENDBRANCH  12  13
ENDBRANCH  11  12
ENDBRANCH   1  11
TORSDOF 8
ENDMDL
MODEL 8
REMARK VINA RESULT:      -5.6      4.023      5.522
REMARK  8 active torsions:
REMARK  status: ('A' for Active; 'I' for Inactive)
REMARK    1  A    between atoms: C1_2  and  C2_3 
REMARK    2  A    between atoms: C1_2  and  C7_10 
REMARK    3  A    between atoms: C2_3  and  C3_4 
REMARK    4  A    between atoms: C7_10  and  O1_11 
REMARK    5  A    between atoms: O1_11  and  C8_12 
REMARK    6  A    between atoms: C8_12  and  C9_13 
REMARK    7  A    between atoms: C9_13  and  C10_14 
REMARK    8  A    between atoms: C10_14  and  N3_15 
ROOT
HETATM    1  C7  UNL     1      25.262   3.780  50.657  1.00  0.00     0.246 C 
ENDROOT
BRANCH   1   2
HETATM    2  C1  UNL     1      26.267   3.629  49.634  1.00  0.00     0.163 C 
HETATM    3  F1  UNL     1      26.883   2.564  49.178  1.00  0.00    -0.199 F 
BRANCH   2   4
HETATM    4  C2  UNL     1      26.720   4.690  48.987  1.00  0.00    -0.078 C 
BRANCH   4   5
HETATM    5  C3  UNL     1      27.444   5.702  48.577  1.00  0.00     0.027 A 
HETATM    6  C4  UNL     1      28.827   5.541  48.283  1.00  0.00     0.135 A 
HETATM    7  N1  UNL     1      29.463   6.619  47.890  1.00  0.00    -0.253 NA
HETATM    8  C5  UNL     1      28.675   7.822  47.808  1.00  0.00     0.226 A 
HETATM    9  N2  UNL     1      27.427   7.970  48.072  1.00  0.00    -0.278 NA
HETATM   10  C6  UNL     1      26.575   6.861  48.522  1.00  0.00     0.199 A 
ENDBRANCH   4   5
ENDBRANCH   2   4
ENDBRANCH   1   2
BRANCH   1  11
HETATM   11  O1  UNL     1      24.666   2.549  50.929  1.00  0.00    -0.384 OA
BRANCH  11  12
HETATM   12  C8  UNL     1      25.461   1.883  51.848  1.00  0.00     0.169 C 
BRANCH  12  13
HETATM   13  C9  UNL     1      24.673   1.504  53.095  1.00  0.00     0.046 C 
BRANCH  13  14
HETATM   14  C10 UNL     1      24.586   0.005  53.136  1.00  0.00     0.119 C 
BRANCH  14  15
HETATM   15  N3  UNL     1      25.661  -0.637  53.811  1.00  0.00    -0.408 N 
HETATM   16  C11 UNL     1      26.528  -1.426  53.011  1.00  0.00     0.143 C 
HETATM   17  C12 UNL     1      27.956  -0.978  52.967  1.00  0.00     0.187 C 
HETATM   18  O2  UNL     1      28.391  -0.806  54.283  1.00  0.00    -0.388 OA
HETATM   19  C13 UNL     1      27.713   0.280  54.805  1.00  0.00     0.187 C 
HETATM   20  C14 UNL     1      26.230   0.040  54.918  1.00  0.00     0.143 C 
ENDBRANCH  14  15
ENDBRANCH  13  14
ENDBRANCH  12  13
ENDBRANCH  11  12
ENDBRANCH   1  11
TORSDOF 8
ENDMDL
MODEL 9
REMARK VINA RESULT:      -5.6      4.617      7.974
REMARK  8 active torsions:
REMARK  status: ('A' for Active; 'I' for Inactive)
REMARK    1  A    between atoms: C1_2  and  C2_3 
REMARK    2  A    between atoms: C1_2  and  C7_10 
REMARK    3  A    between atoms: C2_3  and  C3_4 
REMARK    4  A    between atoms: C7_10  and  O1_11 
REMARK    5  A    between atoms: O1_11  and  C8_12 
REMARK    6  A    between atoms: C8_12  and  C9_13 
REMARK    7  A    between atoms: C9_13  and  C10_14 
REMARK    8  A    between atoms: C10_14  and  N3_15 
ROOT
HETATM    1  C7  UNL     1      26.589   3.332  50.224  1.00  0.00     0.246 C 
ENDROOT
BRANCH   1   2
HETATM    2  C1  UNL     1      25.902   2.324  50.994  1.00  0.00     0.163 C 
HETATM    3  F1  UNL     1      24.656   1.914  50.964  1.00  0.00    -0.199 F 
BRANCH   2   4
HETATM    4  C2  UNL     1      26.550   1.642  51.924  1.00  0.00    -0.078 C 
BRANCH   4   5
HETATM    5  C3  UNL     1      27.335   1.291  52.913  1.00  0.00     0.027 A 
HETATM    6  C4  UNL     1      28.235   2.225  53.499  1.00  0.00     0.135 A 
HETATM    7  N1  UNL     1      28.983   1.769  54.476  1.00  0.00    -0.253 NA
HETATM    8  C5  UNL     1      28.793   0.385  54.824  1.00  0.00     0.226 A 
HETATM    9  N2  UNL     1      27.981  -0.459  54.298  1.00  0.00    -0.278 NA
HETATM   10  C6  UNL     1      27.075  -0.106  53.196  1.00  0.00     0.199 A 
ENDBRANCH   4   5
ENDBRANCH   2   4
ENDBRANCH   1   2
BRANCH   1  11
HETATM   11  O1  UNL     1      25.694   3.980  49.374  1.00  0.00    -0.384 OA
BRANCH  11  12
HETATM   12  C8  UNL     1      26.251   5.196  49.014  1.00  0.00     0.169 C 
BRANCH  12  13
HETATM   13  C9  UNL     1      27.708   5.039  48.600  1.00  0.00     0.046 C 
BRANCH  13  14
HETATM   14  C10 UNL     1      28.209   6.393  48.188  1.00  0.00     0.119 C 
BRANCH  14  15
HETATM   15  N3  UNL     1      29.519   6.403  47.633  1.00  0.00    -0.408 N 
HETATM   16  C11 UNL     1      29.889   7.569  46.912  1.00  0.00     0.143 C 
HETATM   17  C12 UNL     1      31.049   8.333  47.470  1.00  0.00     0.187 C 
HETATM   18  O2  UNL     1      32.096   7.432  47.677  1.00  0.00    -0.388 OA
HETATM   19  C13 UNL     1      31.720   6.592  48.708  1.00  0.00     0.187 C 
HETATM   20  C14 UNL     1      30.536   5.730  48.354  1.00  0.00     0.143 C 
ENDBRANCH  14  15
ENDBRANCH  13  14
ENDBRANCH  12  13
ENDBRANCH  11  12
ENDBRANCH   1  11
TORSDOF 8
ENDMDL
