MODEL 1
REMARK VINA RESULT:      -9.3      0.000      0.000
REMARK  0 active torsions:
REMARK  status: ('A' for Active; 'I' for Inactive)
ROOT
HETATM    1  C1  UNL     1      23.389   6.034  47.827  1.00  0.00     0.000 C 
HETATM    2  O1  UNL     1      23.583   5.434  49.114  1.00  0.00     0.000 OA
HETATM    3  C2  UNL     1      24.793   4.797  49.275  1.00  0.00    -0.042 A 
HETATM    4  C3  UNL     1      23.887   4.349  50.088  1.00  0.00     0.062 A 
HETATM    5  C4  UNL     1      22.494   4.588  50.404  1.00  0.00    -0.051 A 
HETATM    6  C5  UNL     1      21.824   5.723  50.508  1.00  0.00    -0.019 A 
HETATM    7  C6  UNL     1      20.516   5.130  50.837  1.00  0.00     0.057 A 
HETATM    8  C7  UNL     1      21.303   3.842  50.753  1.00  0.00     0.114 A 
HETATM    9  N1  UNL     1      21.333   3.277  52.096  1.00  0.00    -0.389 N 
HETATM   10  C8  UNL     1      22.077   2.162  52.476  1.00  0.00     0.096 C 
HETATM   11  C9  UNL     1      22.660   1.062  52.835  1.00  0.00    -0.001 C 
HETATM   12  C10 UNL     1      21.443   0.313  52.906  1.00  0.00    -0.002 A 
HETATM   13  C11 UNL     1      20.248   0.498  52.286  1.00  0.00     0.014 A 
HETATM   14  C12 UNL     1      19.094  -0.251  52.521  1.00  0.00     0.001 A 
HETATM   15  C13 UNL     1      19.164  -1.256  53.451  1.00  0.00     0.002 A 
HETATM   16  C14 UNL     1      20.362  -1.469  54.101  1.00  0.00     0.024 A 
HETATM   17  C15 UNL     1      21.483  -0.712  53.848  1.00  0.00     0.045 A 
HETATM   18 CL1  UNL     1      22.745  -1.290  54.946  1.00  0.00    -0.083 Cl
HETATM   19  C16 UNL     1      24.014   0.706  52.996  1.00  0.00     0.085 C 
HETATM   20  S1  UNL     1      25.610   0.578  53.100  1.00  0.00     0.005 SA
HETATM   21  F1  UNL     1      26.313  -0.979  53.600  1.00  0.00    -0.169 F 
HETATM   22  C17 UNL     1      26.649   1.458  51.850  1.00  0.00     0.054 C 
HETATM   23  C18 UNL     1      26.058   2.437  51.105  1.00  0.00     0.050 C 
HETATM   24  C19 UNL     1      26.707   3.262  50.045  1.00  0.00    -0.016 C 
HETATM   25  C20 UNL     1      26.092   4.179  49.379  1.00  0.00     0.005 C 
HETATM   26  H9  UNL     1      20.781   3.661  52.926  1.00  0.00     0.159 HD
ENDROOT
TORSDOF 0
ENDMDL
MODEL 2
REMARK VINA RESULT:      -9.1      2.157      5.176
REMARK  0 active torsions:
REMARK  status: ('A' for Active; 'I' for Inactive)
ROOT
HETATM    1  C1  UNL     1      22.126   7.127  49.601  1.00  0.00     0.000 C 
HETATM    2  O1  UNL     1      22.360   5.725  49.789  1.00  0.00     0.000 OA
HETATM    3  C2  UNL     1      21.372   5.066  50.485  1.00  0.00    -0.042 A 
HETATM    4  C3  UNL     1      22.513   4.450  50.545  1.00  0.00     0.062 A 
HETATM    5  C4  UNL     1      23.865   4.616  50.054  1.00  0.00    -0.051 A 
HETATM    6  C5  UNL     1      24.302   5.013  48.871  1.00  0.00    -0.019 A 
HETATM    7  C6  UNL     1      25.742   4.918  49.170  1.00  0.00     0.057 A 
HETATM    8  C7  UNL     1      25.229   4.428  50.505  1.00  0.00     0.114 A 
HETATM    9  N1  UNL     1      25.625   3.031  50.623  1.00  0.00    -0.389 N 
HETATM   10  C8  UNL     1      25.226   2.173  51.645  1.00  0.00     0.096 C 
HETATM   11  C9  UNL     1      24.973   1.383  52.641  1.00  0.00    -0.001 C 
HETATM   12  C10 UNL     1      26.297   1.458  53.178  1.00  0.00    -0.002 A 
HETATM   13  C11 UNL     1      27.254   2.416  53.053  1.00  0.00     0.014 A 
HETATM   14  C12 UNL     1      28.556   2.323  53.547  1.00  0.00     0.001 A 
HETATM   15  C13 UNL     1      28.905   1.176  54.213  1.00  0.00     0.002 A 
HETATM   16  C14 UNL     1      27.958   0.183  54.356  1.00  0.00     0.024 A 
HETATM   17  C15 UNL     1      26.681   0.305  53.857  1.00  0.00     0.045 A 
HETATM   18 CL1  UNL     1      25.850  -1.217  54.211  1.00  0.00    -0.083 Cl
HETATM   19  C16 UNL     1      23.792   0.758  53.090  1.00  0.00     0.085 C 
HETATM   20  S1  UNL     1      22.322   0.180  53.370  1.00  0.00     0.005 SA
HETATM   21  F1  UNL     1      22.079  -0.897  54.766  1.00  0.00    -0.169 F 
HETATM   22  C17 UNL     1      20.868   1.275  53.054  1.00  0.00     0.054 C 
HETATM   23  C18 UNL     1      21.062   2.390  52.293  1.00  0.00     0.050 C 
HETATM   24  C19 UNL     1      20.034   3.406  51.923  1.00  0.00    -0.016 C 
HETATM   25  C20 UNL     1      20.283   4.438  51.192  1.00  0.00     0.005 C 
HETATM   26  H9  UNL     1      26.267   2.525  49.937  1.00  0.00     0.159 HD
ENDROOT
TORSDOF 0
ENDMDL
MODEL 3
REMARK VINA RESULT:      -9.1      3.080      6.144
REMARK  0 active torsions:
REMARK  status: ('A' for Active; 'I' for Inactive)
ROOT
HETATM    1  C1  UNL     1      18.174  -0.518  51.551  1.00  0.00     0.000 C 
HETATM    2  O1  UNL     1      19.251   0.297  52.033  1.00  0.00     0.000 OA
HETATM    3  C2  UNL     1      19.506   1.419  51.276  1.00  0.00    -0.042 A 
HETATM    4  C3  UNL     1      20.537   1.046  51.969  1.00  0.00     0.062 A 
HETATM    5  C4  UNL     1      20.898   0.004  52.909  1.00  0.00    -0.051 A 
HETATM    6  C5  UNL     1      20.213  -0.516  53.913  1.00  0.00    -0.019 A 
HETATM    7  C6  UNL     1      21.237  -1.481  54.349  1.00  0.00     0.057 A 
HETATM    8  C7  UNL     1      22.024  -0.851  53.222  1.00  0.00     0.114 A 
HETATM    9  N1  UNL     1      23.147  -0.150  53.831  1.00  0.00    -0.389 N 
HETATM   10  C8  UNL     1      24.035   0.678  53.148  1.00  0.00     0.096 C 
HETATM   11  C9  UNL     1      24.947   1.356  52.526  1.00  0.00    -0.001 C 
HETATM   12  C10 UNL     1      25.944   0.337  52.652  1.00  0.00    -0.002 A 
HETATM   13  C11 UNL     1      25.826  -1.007  52.819  1.00  0.00     0.014 A 
HETATM   14  C12 UNL     1      26.887  -1.888  53.034  1.00  0.00     0.001 A 
HETATM   15  C13 UNL     1      28.152  -1.363  53.083  1.00  0.00     0.002 A 
HETATM   16  C14 UNL     1      28.308  -0.002  52.919  1.00  0.00     0.024 A 
HETATM   17  C15 UNL     1      27.241   0.842  52.709  1.00  0.00     0.045 A 
HETATM   18 CL1  UNL     1      27.899   2.482  52.625  1.00  0.00    -0.083 Cl
HETATM   19  C16 UNL     1      24.931   2.604  51.871  1.00  0.00     0.085 C 
HETATM   20  S1  UNL     1      24.630   4.032  51.206  1.00  0.00     0.005 SA
HETATM   21  F1  UNL     1      25.952   4.883  50.371  1.00  0.00    -0.169 F 
HETATM   22  C17 UNL     1      22.990   4.302  50.399  1.00  0.00     0.054 C 
HETATM   23  C18 UNL     1      21.986   3.422  50.682  1.00  0.00     0.050 C 
HETATM   24  C19 UNL     1      20.597   3.451  50.140  1.00  0.00    -0.016 C 
HETATM   25  C20 UNL     1      19.691   2.589  50.454  1.00  0.00     0.005 C 
HETATM   26  H9  UNL     1      23.404  -0.205  54.865  1.00  0.00     0.159 HD
ENDROOT
TORSDOF 0
ENDMDL
MODEL 4
REMARK VINA RESULT:      -9.1      2.053      3.108
REMARK  0 active torsions:
REMARK  status: ('A' for Active; 'I' for Inactive)
ROOT
HETATM    1  C1  UNL     1      26.792   3.923  49.330  1.00  0.00     0.000 C 
HETATM    2  O1  UNL     1      25.877   3.562  50.372  1.00  0.00     0.000 OA
HETATM    3  C2  UNL     1      26.301   2.528  51.177  1.00  0.00    -0.042 A 
HETATM    4  C3  UNL     1      25.010   2.662  51.184  1.00  0.00     0.062 A 
HETATM    5  C4  UNL     1      24.001   3.510  50.584  1.00  0.00    -0.051 A 
HETATM    6  C5  UNL     1      23.993   4.817  50.381  1.00  0.00    -0.019 A 
HETATM    7  C6  UNL     1      22.666   4.892  49.746  1.00  0.00     0.057 A 
HETATM    8  C7  UNL     1      22.672   3.405  50.019  1.00  0.00     0.114 A 
HETATM    9  N1  UNL     1      21.629   3.153  51.005  1.00  0.00    -0.389 N 
HETATM   10  C8  UNL     1      21.402   1.929  51.630  1.00  0.00     0.096 C 
HETATM   11  C9  UNL     1      21.086   0.780  52.140  1.00  0.00    -0.001 C 
HETATM   12  C10 UNL     1      19.907   0.629  51.344  1.00  0.00    -0.002 A 
HETATM   13  C11 UNL     1      19.572   1.164  50.140  1.00  0.00     0.014 A 
HETATM   14  C12 UNL     1      18.335   1.018  49.510  1.00  0.00     0.001 A 
HETATM   15  C13 UNL     1      17.376   0.277  50.150  1.00  0.00     0.002 A 
HETATM   16  C14 UNL     1      17.682  -0.279  51.375  1.00  0.00     0.024 A 
HETATM   17  C15 UNL     1      18.912  -0.116  51.972  1.00  0.00     0.045 A 
HETATM   18 CL1  UNL     1      18.829  -0.935  53.539  1.00  0.00    -0.083 Cl
HETATM   19  C16 UNL     1      21.729  -0.063  53.069  1.00  0.00     0.085 C 
HETATM   20  S1  UNL     1      22.667  -0.814  54.131  1.00  0.00     0.005 SA
HETATM   21  F1  UNL     1      22.145  -2.391  54.770  1.00  0.00    -0.169 F 
HETATM   22  C17 UNL     1      24.500  -0.703  53.923  1.00  0.00     0.054 C 
HETATM   23  C18 UNL     1      24.992   0.265  53.096  1.00  0.00     0.050 C 
HETATM   24  C19 UNL     1      26.427   0.525  52.784  1.00  0.00    -0.016 C 
HETATM   25  C20 UNL     1      26.826   1.464  51.996  1.00  0.00     0.005 C 
HETATM   26  H9  UNL     1      20.930   3.884  51.346  1.00  0.00     0.159 HD
ENDROOT
TORSDOF 0
ENDMDL
MODEL 5
REMARK VINA RESULT:      -8.6      8.253     11.152
REMARK  0 active torsions:
REMARK  status: ('A' for Active; 'I' for Inactive)
ROOT
HETATM    1  C1  UNL     1      25.090   7.732  46.748  1.00  0.00     0.000 C 
HETATM    2  O1  UNL     1      26.320   7.938  47.454  1.00  0.00     0.000 OA
HETATM    3  C2  UNL     1      26.986   9.097  47.124  1.00  0.00    -0.042 A 
HETATM    4  C3  UNL     1      27.778   8.197  47.620  1.00  0.00     0.062 A 
HETATM    5  C4  UNL     1      27.701   6.846  48.136  1.00  0.00    -0.051 A 
HETATM    6  C5  UNL     1      26.798   6.278  48.916  1.00  0.00    -0.019 A 
HETATM    7  C6  UNL     1      27.418   4.943  48.968  1.00  0.00     0.057 A 
HETATM    8  C7  UNL     1      28.464   5.615  48.108  1.00  0.00     0.114 A 
HETATM    9  N1  UNL     1      29.690   5.662  48.893  1.00  0.00    -0.389 N 
HETATM   10  C8  UNL     1      30.854   6.329  48.516  1.00  0.00     0.096 C 
HETATM   11  C9  UNL     1      31.987   6.835  48.143  1.00  0.00    -0.001 C 
HETATM   12  C10 UNL     1      32.594   5.564  47.887  1.00  0.00    -0.002 A 
HETATM   13  C11 UNL     1      32.042   4.360  47.584  1.00  0.00     0.014 A 
HETATM   14  C12 UNL     1      32.744   3.161  47.457  1.00  0.00     0.001 A 
HETATM   15  C13 UNL     1      34.100   3.191  47.653  1.00  0.00     0.002 A 
HETATM   16  C14 UNL     1      34.693   4.398  47.964  1.00  0.00     0.024 A 
HETATM   17  C15 UNL     1      33.973   5.565  48.083  1.00  0.00     0.045 A 
HETATM   18 CL1  UNL     1      35.122   6.826  48.553  1.00  0.00    -0.083 Cl
HETATM   19  C16 UNL     1      32.428   8.161  47.958  1.00  0.00     0.085 C 
HETATM   20  S1  UNL     1      32.658   9.743  47.833  1.00  0.00     0.005 SA
HETATM   21  F1  UNL     1      34.252  10.337  47.310  1.00  0.00    -0.169 F 
HETATM   22  C17 UNL     1      31.269  10.790  47.208  1.00  0.00     0.054 C 
HETATM   23  C18 UNL     1      30.017  10.248  47.195  1.00  0.00     0.050 C 
HETATM   24  C19 UNL     1      28.765  10.911  46.730  1.00  0.00    -0.016 C 
HETATM   25  C20 UNL     1      27.607  10.343  46.750  1.00  0.00     0.005 C 
HETATM   26  H9  UNL     1      29.821   5.185  49.839  1.00  0.00     0.159 HD
ENDROOT
TORSDOF 0
ENDMDL
MODEL 6
REMARK VINA RESULT:      -8.2      1.658      2.143
REMARK  0 active torsions:
REMARK  status: ('A' for Active; 'I' for Inactive)
ROOT
HETATM    1  C1  UNL     1      20.877   5.782  47.081  1.00  0.00     0.000 C 
HETATM    2  O1  UNL     1      21.129   5.293  48.404  1.00  0.00     0.000 OA
HETATM    3  C2  UNL     1      22.416   4.855  48.620  1.00  0.00    -0.042 A 
HETATM    4  C3  UNL     1      21.569   4.324  49.447  1.00  0.00     0.062 A 
HETATM    5  C4  UNL     1      20.148   4.370  49.729  1.00  0.00    -0.051 A 
HETATM    6  C5  UNL     1      19.315   5.396  49.754  1.00  0.00    -0.019 A 
HETATM    7  C6  UNL     1      18.103   4.635  50.101  1.00  0.00     0.057 A 
HETATM    8  C7  UNL     1      19.074   3.476  50.106  1.00  0.00     0.114 A 
HETATM    9  N1  UNL     1      19.157   3.001  51.481  1.00  0.00    -0.389 N 
HETATM   10  C8  UNL     1      20.050   2.034  51.938  1.00  0.00     0.096 C 
HETATM   11  C9  UNL     1      20.781   1.055  52.370  1.00  0.00    -0.001 C 
HETATM   12  C10 UNL     1      19.687   0.138  52.471  1.00  0.00    -0.002 A 
HETATM   13  C11 UNL     1      18.492   0.106  51.824  1.00  0.00     0.014 A 
HETATM   14  C12 UNL     1      17.457  -0.792  52.089  1.00  0.00     0.001 A 
HETATM   15  C13 UNL     1      17.654  -1.720  53.079  1.00  0.00     0.002 A 
HETATM   16  C14 UNL     1      18.856  -1.713  53.757  1.00  0.00     0.024 A 
HETATM   17  C15 UNL     1      19.858  -0.813  53.473  1.00  0.00     0.045 A 
HETATM   18 CL1  UNL     1      21.167  -1.132  54.621  1.00  0.00    -0.083 Cl
HETATM   19  C16 UNL     1      22.169   0.915  52.571  1.00  0.00     0.085 C 
HETATM   20  S1  UNL     1      23.764   1.033  52.704  1.00  0.00     0.005 SA
HETATM   21  F1  UNL     1      24.678  -0.369  53.307  1.00  0.00    -0.169 F 
HETATM   22  C17 UNL     1      24.688   1.985  51.418  1.00  0.00     0.054 C 
HETATM   23  C18 UNL     1      23.976   2.820  50.606  1.00  0.00     0.050 C 
HETATM   24  C19 UNL     1      24.518   3.670  49.508  1.00  0.00    -0.016 C 
HETATM   25  C20 UNL     1      23.789   4.445  48.779  1.00  0.00     0.005 C 
HETATM   26  H9  UNL     1      18.536   3.345  52.278  1.00  0.00     0.159 HD
ENDROOT
TORSDOF 0
ENDMDL
MODEL 7
REMARK VINA RESULT:      -8.0      3.213      4.653
REMARK  0 active torsions:
REMARK  status: ('A' for Active; 'I' for Inactive)
ROOT
HETATM    1  C1  UNL     1      26.417   6.501  49.397  1.00  0.00     0.000 C 
HETATM    2  O1  UNL     1      25.479   5.459  49.099  1.00  0.00     0.000 OA
HETATM    3  C2  UNL     1      24.291   5.894  48.555  1.00  0.00    -0.042 A 
HETATM    4  C3  UNL     1      24.176   4.738  49.133  1.00  0.00     0.062 A 
HETATM    5  C4  UNL     1      25.006   3.792  49.850  1.00  0.00    -0.051 A 
HETATM    6  C5  UNL     1      26.245   3.393  49.617  1.00  0.00    -0.019 A 
HETATM    7  C6  UNL     1      26.353   2.466  50.756  1.00  0.00     0.057 A 
HETATM    8  C7  UNL     1      24.924   2.902  50.989  1.00  0.00     0.114 A 
HETATM    9  N1  UNL     1      24.084   1.732  50.765  1.00  0.00    -0.389 N 
HETATM   10  C8  UNL     1      22.691   1.744  50.743  1.00  0.00     0.096 C 
HETATM   11  C9  UNL     1      21.399   1.697  50.834  1.00  0.00    -0.001 C 
HETATM   12  C10 UNL     1      21.405   1.036  52.104  1.00  0.00    -0.002 A 
HETATM   13  C11 UNL     1      22.344   1.005  53.086  1.00  0.00     0.014 A 
HETATM   14  C12 UNL     1      22.272   0.233  54.245  1.00  0.00     0.001 A 
HETATM   15  C13 UNL     1      21.168  -0.562  54.415  1.00  0.00     0.002 A 
HETATM   16  C14 UNL     1      20.195  -0.555  53.436  1.00  0.00     0.024 A 
HETATM   17  C15 UNL     1      20.296   0.218  52.302  1.00  0.00     0.045 A 
HETATM   18 CL1  UNL     1      18.873  -0.143  51.314  1.00  0.00    -0.083 Cl
HETATM   19  C16 UNL     1      20.364   2.204  50.024  1.00  0.00     0.085 C 
HETATM   20  S1  UNL     1      19.404   2.882  48.932  1.00  0.00     0.005 SA
HETATM   21  F1  UNL     1      17.642   2.762  49.150  1.00  0.00    -0.169 F 
HETATM   22  C17 UNL     1      19.920   4.489  48.180  1.00  0.00     0.054 C 
HETATM   23  C18 UNL     1      21.223   4.870  48.319  1.00  0.00     0.050 C 
HETATM   24  C19 UNL     1      21.844   6.122  47.799  1.00  0.00    -0.016 C 
HETATM   25  C20 UNL     1      23.088   6.421  47.960  1.00  0.00     0.005 C 
HETATM   26  H9  UNL     1      24.454   0.745  50.600  1.00  0.00     0.159 HD
ENDROOT
TORSDOF 0
ENDMDL
MODEL 8
REMARK VINA RESULT:      -7.9      5.700      9.208
REMARK  0 active torsions:
REMARK  status: ('A' for Active; 'I' for Inactive)
ROOT
HETATM    1  C1  UNL     1      22.284   1.733  48.676  1.00  0.00     0.000 C 
HETATM    2  O1  UNL     1      22.821   3.043  48.903  1.00  0.00     0.000 OA
HETATM    3  C2  UNL     1      22.268   4.034  48.124  1.00  0.00    -0.042 A 
HETATM    4  C3  UNL     1      23.453   4.345  48.550  1.00  0.00     0.062 A 
HETATM    5  C4  UNL     1      24.503   3.768  49.365  1.00  0.00    -0.051 A 
HETATM    6  C5  UNL     1      24.430   3.085  50.494  1.00  0.00    -0.019 A 
HETATM    7  C6  UNL     1      25.877   2.864  50.664  1.00  0.00     0.057 A 
HETATM    8  C7  UNL     1      25.948   3.679  49.393  1.00  0.00     0.114 A 
HETATM    9  N1  UNL     1      26.610   4.932  49.731  1.00  0.00    -0.389 N 
HETATM   10  C8  UNL     1      26.748   6.019  48.870  1.00  0.00     0.096 C 
HETATM   11  C9  UNL     1      26.998   6.999  48.061  1.00  0.00    -0.001 C 
HETATM   12  C10 UNL     1      28.388   6.684  47.936  1.00  0.00    -0.002 A 
HETATM   13  C11 UNL     1      29.053   5.510  48.107  1.00  0.00     0.014 A 
HETATM   14  C12 UNL     1      30.439   5.354  48.055  1.00  0.00     0.001 A 
HETATM   15  C13 UNL     1      31.198   6.470  47.813  1.00  0.00     0.002 A 
HETATM   16  C14 UNL     1      30.555   7.678  47.637  1.00  0.00     0.024 A 
HETATM   17  C15 UNL     1      29.185   7.800  47.694  1.00  0.00     0.045 A 
HETATM   18 CL1  UNL     1      28.819   9.518  47.481  1.00  0.00    -0.083 Cl
HETATM   19  C16 UNL     1      26.177   7.965  47.445  1.00  0.00     0.085 C 
HETATM   20  S1  UNL     1      25.023   8.931  46.889  1.00  0.00     0.005 SA
HETATM   21  F1  UNL     1      25.471  10.249  45.780  1.00  0.00    -0.169 F 
HETATM   22  C17 UNL     1      23.373   8.199  46.494  1.00  0.00     0.054 C 
HETATM   23  C18 UNL     1      23.088   6.961  46.992  1.00  0.00     0.050 C 
HETATM   24  C19 UNL     1      21.828   6.189  46.791  1.00  0.00    -0.016 C 
HETATM   25  C20 UNL     1      21.619   5.021  47.297  1.00  0.00     0.005 C 
HETATM   26  H9  UNL     1      27.061   5.141  50.676  1.00  0.00     0.159 HD
ENDROOT
TORSDOF 0
ENDMDL
MODEL 9
REMARK VINA RESULT:      -7.9      2.223      3.185
REMARK  0 active torsions:
REMARK  status: ('A' for Active; 'I' for Inactive)
ROOT
HETATM    1  C1  UNL     1      18.170   4.982  47.582  1.00  0.00     0.000 C 
HETATM    2  O1  UNL     1      19.180   4.905  48.595  1.00  0.00     0.000 OA
HETATM    3  C2  UNL     1      20.472   4.993  48.127  1.00  0.00    -0.042 A 
HETATM    4  C3  UNL     1      20.403   4.394  49.276  1.00  0.00     0.062 A 
HETATM    5  C4  UNL     1      19.395   4.008  50.243  1.00  0.00    -0.051 A 
HETATM    6  C5  UNL     1      18.335   4.665  50.681  1.00  0.00    -0.019 A 
HETATM    7  C6  UNL     1      17.849   3.626  51.605  1.00  0.00     0.057 A 
HETATM    8  C7  UNL     1      19.086   2.901  51.124  1.00  0.00     0.114 A 
HETATM    9  N1  UNL     1      19.982   2.789  52.268  1.00  0.00    -0.389 N 
HETATM   10  C8  UNL     1      21.289   2.310  52.214  1.00  0.00     0.096 C 
HETATM   11  C9  UNL     1      22.462   1.760  52.221  1.00  0.00    -0.001 C 
HETATM   12  C10 UNL     1      22.018   0.567  52.874  1.00  0.00    -0.002 A 
HETATM   13  C11 UNL     1      20.789  -0.012  52.929  1.00  0.00     0.014 A 
HETATM   14  C12 UNL     1      20.460  -1.133  53.693  1.00  0.00     0.001 A 
HETATM   15  C13 UNL     1      21.451  -1.701  54.452  1.00  0.00     0.002 A 
HETATM   16  C14 UNL     1      22.710  -1.137  54.421  1.00  0.00     0.024 A 
HETATM   17  C15 UNL     1      23.003  -0.030  53.657  1.00  0.00     0.045 A 
HETATM   18 CL1  UNL     1      24.695   0.375  53.979  1.00  0.00    -0.083 Cl
HETATM   19  C16 UNL     1      23.706   2.152  51.687  1.00  0.00     0.085 C 
HETATM   20  S1  UNL     1      24.976   2.837  50.985  1.00  0.00     0.005 SA
HETATM   21  F1  UNL     1      26.544   1.999  51.050  1.00  0.00    -0.169 F 
HETATM   22  C17 UNL     1      24.722   3.750  49.399  1.00  0.00     0.054 C 
HETATM   23  C18 UNL     1      23.446   4.095  49.057  1.00  0.00     0.050 C 
HETATM   24  C19 UNL     1      23.020   4.824  47.828  1.00  0.00    -0.016 C 
HETATM   25  C20 UNL     1      21.794   5.125  47.567  1.00  0.00     0.005 C 
HETATM   26  H9  UNL     1      19.723   3.061  53.268  1.00  0.00     0.159 HD
ENDROOT
TORSDOF 0
ENDMDL
