MODEL 1
REMARK VINA RESULT:      -8.5      0.000      0.000
REMARK  1 active torsions:
REMARK  status: ('A' for Active; 'I' for Inactive)
REMARK    1  A    between atoms: O1_3  and  C2_4 
ROOT
HETATM    1  N1  UNL     1      29.032   2.507  54.247  1.00  0.00    -0.164 NA
HETATM    2  C1  UNL     1      28.369   1.873  53.508  1.00  0.00     0.234 C 
HETATM    3  O1  UNL     1      27.582   1.152  52.657  1.00  0.00    -0.237 OA
ENDROOT
BRANCH   3   4
HETATM    4  C2  UNL     1      26.422   0.586  53.164  1.00  0.00     0.133 A 
HETATM    5  C3  UNL     1      25.273   0.796  52.543  1.00  0.00     0.077 A 
HETATM    6  N2  UNL     1      25.326   1.584  51.393  1.00  0.00    -0.353 N 
HETATM    7  C14 UNL     1      24.181   0.133  53.239  1.00  0.00    -0.012 A 
HETATM    8  C4  UNL     1      25.135   2.693  50.557  1.00  0.00     0.040 A 
HETATM    9  H1  UNL     1      25.849   0.905  50.747  1.00  0.00     0.166 HD
HETATM   10  C5  UNL     1      26.328   3.374  50.421  1.00  0.00     0.030 A 
HETATM   11  C9  UNL     1      24.006   3.137  49.919  1.00  0.00    -0.014 A 
HETATM   12  C6  UNL     1      26.540   4.522  49.673  1.00  0.00     0.004 A 
HETATM   13  C7  UNL     1      25.409   4.967  49.033  1.00  0.00     0.020 A 
HETATM   14  C8  UNL     1      24.207   4.302  49.155  1.00  0.00     0.019 A 
HETATM   15 BR1  UNL     1      22.802   5.133  48.163  1.00  0.00    -0.050 Br
HETATM   16  C10 UNL     1      22.593   2.721  49.818  1.00  0.00     0.048 C 
HETATM   17  C11 UNL     1      22.092   1.820  50.840  1.00  0.00     0.003 C 
HETATM   18  C12 UNL     1      23.008   1.263  51.681  1.00  0.00     0.021 C 
HETATM   19  C13 UNL     1      22.913   0.315  52.845  1.00  0.00    -0.010 C 
HETATM   20  C15 UNL     1      24.371  -0.712  54.409  1.00  0.00     0.189 A 
HETATM   21  N3  UNL     1      25.693  -0.795  54.927  1.00  0.00    -0.294 NA
HETATM   22  C16 UNL     1      26.665  -0.202  54.363  1.00  0.00     0.151 A 
ENDBRANCH   3   4
TORSDOF 1
ENDMDL
MODEL 2
REMARK VINA RESULT:      -8.4      2.589      4.985
REMARK  1 active torsions:
REMARK  status: ('A' for Active; 'I' for Inactive)
REMARK    1  A    between atoms: O1_3  and  C2_4 
ROOT
HETATM    1  N1  UNL     1      28.122  -0.126  54.951  1.00  0.00    -0.164 NA
HETATM    2  C1  UNL     1      27.061   0.222  54.575  1.00  0.00     0.234 C 
HETATM    3  O1  UNL     1      25.837   0.617  54.118  1.00  0.00    -0.237 OA
ENDROOT
BRANCH   3   4
HETATM    4  C2  UNL     1      25.789   1.380  52.960  1.00  0.00     0.133 A 
HETATM    5  C3  UNL     1      24.615   1.654  52.414  1.00  0.00     0.077 A 
HETATM    6  N2  UNL     1      23.494   1.147  53.070  1.00  0.00    -0.353 N 
HETATM    7  C14 UNL     1      24.782   2.447  51.205  1.00  0.00    -0.012 A 
HETATM    8  C4  UNL     1      22.367   0.347  53.307  1.00  0.00     0.040 A 
HETATM    9  H1  UNL     1      23.519   1.763  53.949  1.00  0.00     0.166 HD
HETATM   10  C5  UNL     1      22.678  -0.610  54.252  1.00  0.00     0.030 A 
HETATM   11  C9  UNL     1      21.111   0.401  52.761  1.00  0.00    -0.014 A 
HETATM   12  C6  UNL     1      21.825  -1.584  54.748  1.00  0.00     0.004 A 
HETATM   13  C7  UNL     1      20.566  -1.531  54.201  1.00  0.00     0.020 A 
HETATM   14  C8  UNL     1      20.234  -0.582  53.256  1.00  0.00     0.019 A 
HETATM   15 BR1  UNL     1      18.423  -0.732  52.667  1.00  0.00    -0.050 Br
HETATM   16  C10 UNL     1      20.408   1.227  51.759  1.00  0.00     0.048 C 
HETATM   17  C11 UNL     1      21.228   1.999  50.842  1.00  0.00     0.003 C 
HETATM   18  C12 UNL     1      22.562   2.070  51.110  1.00  0.00     0.021 C 
HETATM   19  C13 UNL     1      23.727   2.735  50.430  1.00  0.00    -0.010 C 
HETATM   20  C15 UNL     1      26.071   2.931  50.734  1.00  0.00     0.189 A 
HETATM   21  N3  UNL     1      27.216   2.509  51.466  1.00  0.00    -0.294 NA
HETATM   22  C16 UNL     1      27.109   1.789  52.507  1.00  0.00     0.151 A 
ENDBRANCH   3   4
TORSDOF 1
ENDMDL
MODEL 3
REMARK VINA RESULT:      -8.3      1.736      3.865
REMARK  1 active torsions:
REMARK  status: ('A' for Active; 'I' for Inactive)
REMARK    1  A    between atoms: O1_3  and  C2_4 
ROOT
HETATM    1  N1  UNL     1      22.454  -1.311  55.469  1.00  0.00    -0.164 NA
HETATM    2  C1  UNL     1      22.853  -0.977  54.412  1.00  0.00     0.234 C 
HETATM    3  O1  UNL     1      23.336  -0.605  53.190  1.00  0.00    -0.237 OA
ENDROOT
BRANCH   3   4
HETATM    4  C2  UNL     1      24.631  -0.113  53.124  1.00  0.00     0.133 A 
HETATM    5  C3  UNL     1      24.892   0.923  52.343  1.00  0.00     0.077 A 
HETATM    6  N2  UNL     1      23.811   1.454  51.639  1.00  0.00    -0.353 N 
HETATM    7  C14 UNL     1      26.303   1.272  52.403  1.00  0.00    -0.012 A 
HETATM    8  C4  UNL     1      22.991   1.778  50.549  1.00  0.00     0.040 A 
HETATM    9  H1  UNL     1      23.267   1.881  52.461  1.00  0.00     0.166 HD
HETATM   10  C5  UNL     1      21.885   0.952  50.549  1.00  0.00     0.030 A 
HETATM   11  C9  UNL     1      23.147   2.730  49.575  1.00  0.00    -0.014 A 
HETATM   12  C6  UNL     1      20.848   0.966  49.629  1.00  0.00     0.004 A 
HETATM   13  C7  UNL     1      21.003   1.920  48.653  1.00  0.00     0.020 A 
HETATM   14  C8  UNL     1      22.101   2.756  48.635  1.00  0.00     0.019 A 
HETATM   15 BR1  UNL     1      22.065   3.986  47.174  1.00  0.00    -0.050 Br
HETATM   16  C10 UNL     1      24.147   3.760  49.227  1.00  0.00     0.048 C 
HETATM   17  C11 UNL     1      25.473   3.618  49.801  1.00  0.00     0.003 C 
HETATM   18  C12 UNL     1      25.632   2.678  50.775  1.00  0.00     0.021 C 
HETATM   19  C13 UNL     1      26.804   2.218  51.597  1.00  0.00    -0.010 C 
HETATM   20  C15 UNL     1      27.258   0.608  53.278  1.00  0.00     0.189 A 
HETATM   21  N3  UNL     1      26.771  -0.497  54.030  1.00  0.00    -0.294 NA
HETATM   22  C16 UNL     1      25.551  -0.850  53.977  1.00  0.00     0.151 A 
ENDBRANCH   3   4
TORSDOF 1
ENDMDL
MODEL 4
REMARK VINA RESULT:      -8.1      1.682      2.361
REMARK  1 active torsions:
REMARK  status: ('A' for Active; 'I' for Inactive)
REMARK    1  A    between atoms: O1_3  and  C2_4 
ROOT
HETATM    1  N1  UNL     1      26.863   0.102  55.308  1.00  0.00    -0.164 NA
HETATM    2  C1  UNL     1      26.083  -0.251  54.498  1.00  0.00     0.234 C 
HETATM    3  O1  UNL     1      25.169  -0.639  53.561  1.00  0.00    -0.237 OA
ENDROOT
BRANCH   3   4
HETATM    4  C2  UNL     1      23.824  -0.471  53.854  1.00  0.00     0.133 A 
HETATM    5  C3  UNL     1      23.095   0.345  53.109  1.00  0.00     0.077 A 
HETATM    6  N2  UNL     1      23.756   0.979  52.058  1.00  0.00    -0.353 N 
HETATM    7  C14 UNL     1      21.722   0.392  53.589  1.00  0.00    -0.012 A 
HETATM    8  C4  UNL     1      24.339   2.013  51.313  1.00  0.00     0.040 A 
HETATM    9  H1  UNL     1      23.920   0.127  51.424  1.00  0.00     0.166 HD
HETATM   10  C5  UNL     1      25.714   1.920  51.401  1.00  0.00     0.030 A 
HETATM   11  C9  UNL     1      23.757   3.012  50.576  1.00  0.00    -0.014 A 
HETATM   12  C6  UNL     1      26.636   2.763  50.800  1.00  0.00     0.004 A 
HETATM   13  C7  UNL     1      26.053   3.764  50.062  1.00  0.00     0.020 A 
HETATM   14  C8  UNL     1      24.682   3.876  49.960  1.00  0.00     0.019 A 
HETATM   15 BR1  UNL     1      24.142   5.351  48.875  1.00  0.00    -0.050 Br
HETATM   16  C10 UNL     1      22.385   3.448  50.251  1.00  0.00     0.048 C 
HETATM   17  C11 UNL     1      21.315   2.969  51.107  1.00  0.00     0.003 C 
HETATM   18  C12 UNL     1      21.627   1.992  52.005  1.00  0.00     0.021 C 
HETATM   19  C13 UNL     1      20.842   1.248  53.050  1.00  0.00    -0.010 C 
HETATM   20  C15 UNL     1      21.226  -0.424  54.688  1.00  0.00     0.189 A 
HETATM   21  N3  UNL     1      22.184  -1.229  55.365  1.00  0.00    -0.294 NA
HETATM   22  C16 UNL     1      23.399  -1.269  54.994  1.00  0.00     0.151 A 
ENDBRANCH   3   4
TORSDOF 1
ENDMDL
MODEL 5
REMARK VINA RESULT:      -8.0      3.501      5.660
REMARK  1 active torsions:
REMARK  status: ('A' for Active; 'I' for Inactive)
REMARK    1  A    between atoms: O1_3  and  C2_4 
ROOT
HETATM    1  N1  UNL     1      21.837   1.400  48.705  1.00  0.00    -0.164 NA
HETATM    2  C1  UNL     1      21.722   1.665  49.847  1.00  0.00     0.234 C 
HETATM    3  O1  UNL     1      21.601   1.951  51.176  1.00  0.00    -0.237 OA
ENDROOT
BRANCH   3   4
HETATM    4  C2  UNL     1      21.088   0.969  52.011  1.00  0.00     0.133 A 
HETATM    5  C3  UNL     1      21.868   0.432  52.935  1.00  0.00     0.077 A 
HETATM    6  N2  UNL     1      23.174   0.918  53.001  1.00  0.00    -0.353 N 
HETATM    7  C14 UNL     1      21.149  -0.583  53.690  1.00  0.00    -0.012 A 
HETATM    8  C4  UNL     1      24.571   0.935  52.885  1.00  0.00     0.040 A 
HETATM    9  H1  UNL     1      22.969   1.903  53.376  1.00  0.00     0.166 HD
HETATM   10  C5  UNL     1      24.928   1.683  51.781  1.00  0.00     0.030 A 
HETATM   11  C9  UNL     1      25.532   0.351  53.667  1.00  0.00    -0.014 A 
HETATM   12  C6  UNL     1      26.218   1.931  51.337  1.00  0.00     0.004 A 
HETATM   13  C7  UNL     1      27.182   1.346  52.121  1.00  0.00     0.020 A 
HETATM   14  C8  UNL     1      26.847   0.595  53.229  1.00  0.00     0.019 A 
HETATM   15 BR1  UNL     1      28.377  -0.100  54.137  1.00  0.00    -0.050 Br
HETATM   16  C10 UNL     1      25.567  -0.499  54.875  1.00  0.00     0.048 C 
HETATM   17  C11 UNL     1      24.346  -1.202  55.227  1.00  0.00     0.003 C 
HETATM   18  C12 UNL     1      23.215  -0.861  54.549  1.00  0.00     0.021 C 
HETATM   19  C13 UNL     1      21.788  -1.336  54.597  1.00  0.00    -0.010 C 
HETATM   20  C15 UNL     1      19.740  -0.885  53.490  1.00  0.00     0.189 A 
HETATM   21  N3  UNL     1      19.086  -0.198  52.430  1.00  0.00    -0.294 NA
HETATM   22  C16 UNL     1      19.692   0.672  51.729  1.00  0.00     0.151 A 
ENDBRANCH   3   4
TORSDOF 1
ENDMDL
MODEL 6
REMARK VINA RESULT:      -7.9      2.856      4.665
REMARK  1 active torsions:
REMARK  status: ('A' for Active; 'I' for Inactive)
REMARK    1  A    between atoms: O1_3  and  C2_4 
ROOT
HETATM    1  N1  UNL     1      18.704   0.084  51.612  1.00  0.00    -0.164 NA
HETATM    2  C1  UNL     1      19.572   0.580  52.236  1.00  0.00     0.234 C 
HETATM    3  O1  UNL     1      20.594   1.142  52.945  1.00  0.00    -0.237 OA
ENDROOT
BRANCH   3   4
HETATM    4  C2  UNL     1      21.498   0.293  53.569  1.00  0.00     0.133 A 
HETATM    5  C3  UNL     1      22.795   0.515  53.432  1.00  0.00     0.077 A 
HETATM    6  N2  UNL     1      23.156   1.618  52.658  1.00  0.00    -0.353 N 
HETATM    7  C14 UNL     1      23.568  -0.490  54.146  1.00  0.00    -0.012 A 
HETATM    8  C4  UNL     1      23.667   2.345  51.574  1.00  0.00     0.040 A 
HETATM    9  H1  UNL     1      22.828   2.401  53.316  1.00  0.00     0.166 HD
HETATM   10  C5  UNL     1      22.621   2.852  50.830  1.00  0.00     0.030 A 
HETATM   11  C9  UNL     1      24.964   2.588  51.203  1.00  0.00    -0.014 A 
HETATM   12  C6  UNL     1      22.724   3.623  49.682  1.00  0.00     0.004 A 
HETATM   13  C7  UNL     1      24.024   3.867  49.310  1.00  0.00     0.020 A 
HETATM   14  C8  UNL     1      25.085   3.371  50.040  1.00  0.00     0.019 A 
HETATM   15 BR1  UNL     1      26.777   3.860  49.303  1.00  0.00    -0.050 Br
HETATM   16  C10 UNL     1      26.309   2.235  51.699  1.00  0.00     0.048 C 
HETATM   17  C11 UNL     1      26.406   1.110  52.612  1.00  0.00     0.003 C 
HETATM   18  C12 UNL     1      25.239   0.608  53.105  1.00  0.00     0.021 C 
HETATM   19  C13 UNL     1      24.904  -0.521  54.041  1.00  0.00    -0.010 C 
HETATM   20  C15 UNL     1      22.967  -1.534  54.962  1.00  0.00     0.189 A 
HETATM   21  N3  UNL     1      21.547  -1.603  54.963  1.00  0.00    -0.294 NA
HETATM   22  C16 UNL     1      20.841  -0.762  54.325  1.00  0.00     0.151 A 
ENDBRANCH   3   4
TORSDOF 1
ENDMDL
MODEL 7
REMARK VINA RESULT:      -7.8      3.303      6.188
REMARK  1 active torsions:
REMARK  status: ('A' for Active; 'I' for Inactive)
REMARK    1  A    between atoms: O1_3  and  C2_4 
ROOT
HETATM    1  N1  UNL     1      21.631   6.439  50.428  1.00  0.00    -0.164 NA
HETATM    2  C1  UNL     1      22.078   5.407  50.076  1.00  0.00     0.234 C 
HETATM    3  O1  UNL     1      22.607   4.210  49.689  1.00  0.00    -0.237 OA
ENDROOT
BRANCH   3   4
HETATM    4  C2  UNL     1      23.983   4.051  49.765  1.00  0.00     0.133 A 
HETATM    5  C3  UNL     1      24.481   3.021  50.431  1.00  0.00     0.077 A 
HETATM    6  N2  UNL     1      23.555   2.152  51.009  1.00  0.00    -0.353 N 
HETATM    7  C14 UNL     1      25.935   3.044  50.404  1.00  0.00    -0.012 A 
HETATM    8  C4  UNL     1      22.821   1.499  52.009  1.00  0.00     0.040 A 
HETATM    9  H1  UNL     1      23.154   1.713  50.115  1.00  0.00     0.166 HD
HETATM   10  C5  UNL     1      21.542   2.017  52.049  1.00  0.00     0.030 A 
HETATM   11  C9  UNL     1      23.192   0.499  52.869  1.00  0.00    -0.014 A 
HETATM   12  C6  UNL     1      20.523   1.629  52.905  1.00  0.00     0.004 A 
HETATM   13  C7  UNL     1      20.894   0.627  53.768  1.00  0.00     0.020 A 
HETATM   14  C8  UNL     1      22.167   0.094  53.744  1.00  0.00     0.019 A 
HETATM   15 BR1  UNL     1      22.412  -1.283  55.045  1.00  0.00    -0.050 Br
HETATM   16  C10 UNL     1      24.412  -0.286  53.145  1.00  0.00     0.048 C 
HETATM   17  C11 UNL     1      25.671   0.252  52.663  1.00  0.00     0.003 C 
HETATM   18  C12 UNL     1      25.608   1.319  51.817  1.00  0.00     0.021 C 
HETATM   19  C13 UNL     1      26.643   2.157  51.117  1.00  0.00    -0.010 C 
HETATM   20  C15 UNL     1      26.709   4.031  49.665  1.00  0.00     0.189 A 
HETATM   21  N3  UNL     1      25.974   5.066  49.024  1.00  0.00    -0.294 NA
HETATM   22  C16 UNL     1      24.704   5.095  49.054  1.00  0.00     0.151 A 
ENDBRANCH   3   4
TORSDOF 1
ENDMDL
MODEL 8
REMARK VINA RESULT:      -7.6      3.665      5.704
REMARK  1 active torsions:
REMARK  status: ('A' for Active; 'I' for Inactive)
REMARK    1  A    between atoms: O1_3  and  C2_4 
ROOT
HETATM    1  N1  UNL     1      21.685   7.164  50.863  1.00  0.00    -0.164 NA
HETATM    2  C1  UNL     1      21.961   6.022  50.956  1.00  0.00     0.234 C 
HETATM    3  O1  UNL     1      22.262   4.694  51.048  1.00  0.00    -0.237 OA
ENDROOT
BRANCH   3   4
HETATM    4  C2  UNL     1      21.243   3.816  51.386  1.00  0.00     0.133 A 
HETATM    5  C3  UNL     1      21.542   2.678  51.992  1.00  0.00     0.077 A 
HETATM    6  N2  UNL     1      22.893   2.454  52.254  1.00  0.00    -0.353 N 
HETATM    7  C14 UNL     1      20.341   1.897  52.244  1.00  0.00    -0.012 A 
HETATM    8  C4  UNL     1      24.168   1.880  52.152  1.00  0.00     0.040 A 
HETATM    9  H1  UNL     1      23.044   3.198  53.014  1.00  0.00     0.166 HD
HETATM   10  C5  UNL     1      25.004   2.741  51.471  1.00  0.00     0.030 A 
HETATM   11  C9  UNL     1      24.637   0.675  52.609  1.00  0.00    -0.014 A 
HETATM   12  C6  UNL     1      26.341   2.527  51.171  1.00  0.00     0.004 A 
HETATM   13  C7  UNL     1      26.811   1.320  51.628  1.00  0.00     0.020 A 
HETATM   14  C8  UNL     1      25.993   0.444  52.313  1.00  0.00     0.019 A 
HETATM   15 BR1  UNL     1      26.899  -1.154  52.834  1.00  0.00    -0.050 Br
HETATM   16  C10 UNL     1      24.089  -0.485  53.340  1.00  0.00     0.048 C 
HETATM   17  C11 UNL     1      22.645  -0.634  53.363  1.00  0.00     0.003 C 
HETATM   18  C12 UNL     1      21.905   0.412  52.898  1.00  0.00     0.021 C 
HETATM   19  C13 UNL     1      20.429   0.656  52.743  1.00  0.00    -0.010 C 
HETATM   20  C15 UNL     1      18.998   2.368  51.939  1.00  0.00     0.189 A 
HETATM   21  N3  UNL     1      18.899   3.622  51.274  1.00  0.00    -0.294 NA
HETATM   22  C16 UNL     1      19.930   4.316  51.009  1.00  0.00     0.151 A 
ENDBRANCH   3   4
TORSDOF 1
ENDMDL
MODEL 9
REMARK VINA RESULT:      -7.3      4.413      6.756
REMARK  1 active torsions:
REMARK  status: ('A' for Active; 'I' for Inactive)
REMARK    1  A    between atoms: O1_3  and  C2_4 
ROOT
HETATM    1  N1  UNL     1      19.633   4.872  50.408  1.00  0.00    -0.164 NA
HETATM    2  C1  UNL     1      19.890   3.732  50.255  1.00  0.00     0.234 C 
HETATM    3  O1  UNL     1      20.166   2.408  50.070  1.00  0.00    -0.237 OA
ENDROOT
BRANCH   3   4
HETATM    4  C2  UNL     1      19.302   1.478  50.629  1.00  0.00     0.133 A 
HETATM    5  C3  UNL     1      19.689   0.792  51.692  1.00  0.00     0.077 A 
HETATM    6  N2  UNL     1      20.965   1.074  52.180  1.00  0.00    -0.353 N 
HETATM    7  C14 UNL     1      18.651  -0.137  52.113  1.00  0.00    -0.012 A 
HETATM    8  C4  UNL     1      22.322   0.888  52.480  1.00  0.00     0.040 A 
HETATM    9  H1  UNL     1      20.786   2.061  52.562  1.00  0.00     0.166 HD
HETATM   10  C5  UNL     1      23.090   1.621  51.598  1.00  0.00     0.030 A 
HETATM   11  C9  UNL     1      22.917   0.133  53.457  1.00  0.00    -0.014 A 
HETATM   12  C6  UNL     1      24.474   1.693  51.575  1.00  0.00     0.004 A 
HETATM   13  C7  UNL     1      25.071   0.937  52.554  1.00  0.00     0.020 A 
HETATM   14  C8  UNL     1      24.323   0.197  53.447  1.00  0.00     0.019 A 
HETATM   15 BR1  UNL     1      25.403  -0.756  54.700  1.00  0.00    -0.050 Br
HETATM   16  C10 UNL     1      22.475  -0.763  54.544  1.00  0.00     0.048 C 
HETATM   17  C11 UNL     1      21.124  -1.291  54.461  1.00  0.00     0.003 C 
HETATM   18  C12 UNL     1      20.305  -0.756  53.513  1.00  0.00     0.021 C 
HETATM   19  C13 UNL     1      18.882  -1.014  53.099  1.00  0.00    -0.010 C 
HETATM   20  C15 UNL     1      17.341  -0.216  51.483  1.00  0.00     0.189 A 
HETATM   21  N3  UNL     1      17.134   0.606  50.341  1.00  0.00    -0.294 NA
HETATM   22  C16 UNL     1      18.030   1.405  49.926  1.00  0.00     0.151 A 
ENDBRANCH   3   4
TORSDOF 1
ENDMDL
