MODEL 1
REMARK VINA RESULT:      -8.9      0.000      0.000
REMARK  2 active torsions:
REMARK  status: ('A' for Active; 'I' for Inactive)
REMARK    1  A    between atoms: O1_2  and  C2_3 
REMARK    2  A    between atoms: C22_27  and  O2_28 
ROOT
HETATM    1  C2  UNL     1      25.085   3.713  50.718  1.00  0.00     0.045 C 
HETATM    2  C3  UNL     1      24.990   2.856  51.691  1.00  0.00     0.023 C 
HETATM    3  C4  UNL     1      25.674   1.727  52.168  1.00  0.00     0.072 A 
HETATM    4  C5  UNL     1      26.896   2.512  52.437  1.00  0.00     0.179 A 
HETATM    5  N1  UNL     1      28.142   2.230  52.920  1.00  0.00    -0.272 NA
HETATM    6  C6  UNL     1      28.607   1.057  53.310  1.00  0.00     0.224 A 
HETATM    7  N2  UNL     1      27.502   0.159  53.111  1.00  0.00    -0.248 NA
HETATM    8  C7  UNL     1      26.484   0.976  52.598  1.00  0.00     0.165 A 
HETATM    9  N3  UNL     1      25.498  -0.113  52.577  1.00  0.00    -0.363 N 
HETATM   10  C8  UNL     1      24.532  -0.418  53.578  1.00  0.00     0.003 C 
HETATM   11  C9  UNL     1      25.359  -0.997  54.669  1.00  0.00     0.068 C 
HETATM   12  C10 UNL     1      23.248  -0.352  53.793  1.00  0.00     0.021 C 
HETATM   13  C11 UNL     1      22.508   0.205  52.697  1.00  0.00     0.029 C 
HETATM   14  C12 UNL     1      21.142   0.306  52.878  1.00  0.00     0.018 C 
HETATM   15  C13 UNL     1      20.616  -0.176  54.176  1.00  0.00     0.022 C 
HETATM   16  C14 UNL     1      19.888   0.760  52.215  1.00  0.00     0.079 C 
HETATM   17  N4  UNL     1      19.331   1.883  51.995  1.00  0.00    -0.249 NA
HETATM   18  C15 UNL     1      19.333   2.305  50.673  1.00  0.00     0.045 C 
HETATM   19  C16 UNL     1      19.886   3.477  50.446  1.00  0.00     0.028 C 
HETATM   20  C17 UNL     1      20.536   4.549  51.165  1.00  0.00     0.002 C 
HETATM   21  C18 UNL     1      21.090   5.734  50.815  1.00  0.00     0.001 C 
HETATM   22  C19 UNL     1      20.940   5.821  49.346  1.00  0.00     0.012 C 
HETATM   23  C20 UNL     1      21.713   4.961  48.694  1.00  0.00    -0.028 C 
HETATM   24  C21 UNL     1      22.607   4.371  49.486  1.00  0.00     0.017 C 
HETATM   25  C22 UNL     1      23.446   5.483  49.980  1.00  0.00     0.148 C 
HETATM   26  C23 UNL     1      24.845   4.797  49.835  1.00  0.00     0.100 C 
HETATM   27  C24 UNL     1      18.675   1.240  49.930  1.00  0.00     0.140 C 
HETATM   28  S1  UNL     1      18.497   0.055  51.355  1.00  0.00    -0.108 SA
HETATM   29  H7  UNL     1      25.334  -0.836  51.852  1.00  0.00     0.162 HD
ENDROOT
BRANCH   1  30
HETATM   30  O1  UNL     1      26.188   2.978  50.379  1.00  0.00    -0.360 OA
HETATM   31  C1  UNL     1      26.949   3.056  49.198  1.00  0.00     0.209 C 
ENDBRANCH   1  30
BRANCH  25  32
HETATM   32  O2  UNL     1      23.618   6.543  49.135  1.00  0.00    -0.391 OA
HETATM   33  H22 UNL     1      24.451   6.388  48.625  1.00  0.00     0.210 HD
ENDBRANCH  25  32
TORSDOF 2
ENDMDL
MODEL 2
REMARK VINA RESULT:      -8.9      1.201      1.327
REMARK  2 active torsions:
REMARK  status: ('A' for Active; 'I' for Inactive)
REMARK    1  A    between atoms: O1_2  and  C2_3 
REMARK    2  A    between atoms: C22_27  and  O2_28 
ROOT
HETATM    1  C2  UNL     1      24.592   3.345  51.661  1.00  0.00     0.045 C 
HETATM    2  C3  UNL     1      24.184   2.461  52.524  1.00  0.00     0.023 C 
HETATM    3  C4  UNL     1      24.635   1.260  53.090  1.00  0.00     0.072 A 
HETATM    4  C5  UNL     1      25.799   1.924  53.710  1.00  0.00     0.179 A 
HETATM    5  N1  UNL     1      26.852   1.515  54.479  1.00  0.00    -0.272 NA
HETATM    6  C6  UNL     1      27.111   0.292  54.903  1.00  0.00     0.224 A 
HETATM    7  N2  UNL     1      26.032  -0.498  54.374  1.00  0.00    -0.248 NA
HETATM    8  C7  UNL     1      25.247   0.424  53.667  1.00  0.00     0.165 A 
HETATM    9  N3  UNL     1      24.223  -0.573  53.328  1.00  0.00    -0.363 N 
HETATM   10  C8  UNL     1      23.009  -0.832  54.028  1.00  0.00     0.003 C 
HETATM   11  C9  UNL     1      23.479  -1.523  55.257  1.00  0.00     0.068 C 
HETATM   12  C10 UNL     1      21.722  -0.662  53.910  1.00  0.00     0.021 C 
HETATM   13  C11 UNL     1      21.336   0.000  52.697  1.00  0.00     0.029 C 
HETATM   14  C12 UNL     1      19.982   0.212  52.528  1.00  0.00     0.018 C 
HETATM   15  C13 UNL     1      19.102  -0.273  53.615  1.00  0.00     0.022 C 
HETATM   16  C14 UNL     1      18.981   0.800  51.594  1.00  0.00     0.079 C 
HETATM   17  N4  UNL     1      18.585   1.975  51.307  1.00  0.00    -0.249 NA
HETATM   18  C15 UNL     1      18.963   2.447  50.057  1.00  0.00     0.045 C 
HETATM   19  C16 UNL     1      19.641   3.575  50.051  1.00  0.00     0.028 C 
HETATM   20  C17 UNL     1      20.159   4.557  50.977  1.00  0.00     0.002 C 
HETATM   21  C18 UNL     1      20.871   5.702  50.853  1.00  0.00     0.001 C 
HETATM   22  C19 UNL     1      21.115   5.859  49.402  1.00  0.00     0.012 C 
HETATM   23  C20 UNL     1      21.966   4.961  48.920  1.00  0.00    -0.028 C 
HETATM   24  C21 UNL     1      22.576   4.265  49.877  1.00  0.00     0.017 C 
HETATM   25  C22 UNL     1      23.338   5.279  50.636  1.00  0.00     0.148 C 
HETATM   26  C23 UNL     1      24.672   4.479  50.813  1.00  0.00     0.100 C 
HETATM   27  C24 UNL     1      18.444   1.473  49.107  1.00  0.00     0.140 C 
HETATM   28  S1  UNL     1      17.814   0.254  50.365  1.00  0.00    -0.108 SA
HETATM   29  H7  UNL     1      24.200  -1.249  52.542  1.00  0.00     0.162 HD
ENDROOT
BRANCH   1  30
HETATM   30  O1  UNL     1      25.688   2.531  51.572  1.00  0.00    -0.360 OA
HETATM   31  C1  UNL     1      26.666   2.505  50.561  1.00  0.00     0.209 C 
ENDBRANCH   1  30
BRANCH  25  32
HETATM   32  O2  UNL     1      23.802   6.352  49.929  1.00  0.00    -0.391 OA
HETATM   33  H22 UNL     1      24.427   6.012  49.242  1.00  0.00     0.210 HD
ENDBRANCH  25  32
TORSDOF 2
ENDMDL
MODEL 3
REMARK VINA RESULT:      -8.0      3.179      7.057
REMARK  2 active torsions:
REMARK  status: ('A' for Active; 'I' for Inactive)
REMARK    1  A    between atoms: O1_2  and  C2_3 
REMARK    2  A    between atoms: C22_27  and  O2_28 
ROOT
HETATM    1  C2  UNL     1      18.191   1.888  49.165  1.00  0.00     0.045 C 
HETATM    2  C3  UNL     1      18.442   0.927  50.006  1.00  0.00     0.023 C 
HETATM    3  C4  UNL     1      17.812   0.278  51.078  1.00  0.00     0.072 A 
HETATM    4  C5  UNL     1      16.722  -0.215  50.212  1.00  0.00     0.179 A 
HETATM    5  N1  UNL     1      15.594  -0.960  50.404  1.00  0.00    -0.272 NA
HETATM    6  C6  UNL     1      15.156  -1.481  51.536  1.00  0.00     0.224 A 
HETATM    7  N2  UNL     1      16.141  -1.085  52.507  1.00  0.00    -0.248 NA
HETATM    8  C7  UNL     1      17.071  -0.339  51.767  1.00  0.00     0.165 A 
HETATM    9  N3  UNL     1      17.966  -0.149  52.916  1.00  0.00    -0.363 N 
HETATM   10  C8  UNL     1      19.104  -0.933  53.260  1.00  0.00     0.003 C 
HETATM   11  C9  UNL     1      18.497  -2.194  53.761  1.00  0.00     0.068 C 
HETATM   12  C10 UNL     1      20.406  -0.869  53.270  1.00  0.00     0.021 C 
HETATM   13  C11 UNL     1      20.926   0.377  52.785  1.00  0.00     0.029 C 
HETATM   14  C12 UNL     1      22.302   0.492  52.767  1.00  0.00     0.018 C 
HETATM   15  C13 UNL     1      23.065  -0.681  53.252  1.00  0.00     0.022 C 
HETATM   16  C14 UNL     1      23.410   1.421  52.407  1.00  0.00     0.079 C 
HETATM   17  N4  UNL     1      23.971   1.793  51.327  1.00  0.00    -0.249 NA
HETATM   18  C15 UNL     1      23.711   3.099  50.935  1.00  0.00     0.045 C 
HETATM   19  C16 UNL     1      23.191   3.244  49.735  1.00  0.00     0.028 C 
HETATM   20  C17 UNL     1      22.771   2.442  48.608  1.00  0.00     0.002 C 
HETATM   21  C18 UNL     1      22.223   2.708  47.399  1.00  0.00     0.001 C 
HETATM   22  C19 UNL     1      22.062   4.178  47.354  1.00  0.00     0.012 C 
HETATM   23  C20 UNL     1      21.120   4.621  48.177  1.00  0.00    -0.028 C 
HETATM   24  C21 UNL     1      20.383   3.638  48.693  1.00  0.00     0.017 C 
HETATM   25  C22 UNL     1      19.733   3.017  47.519  1.00  0.00     0.148 C 
HETATM   26  C23 UNL     1      18.299   2.839  48.119  1.00  0.00     0.100 C 
HETATM   27  C24 UNL     1      24.134   3.926  52.055  1.00  0.00     0.140 C 
HETATM   28  S1  UNL     1      24.544   2.531  53.217  1.00  0.00    -0.108 SA
HETATM   29  H7  UNL     1      17.930   0.570  53.664  1.00  0.00     0.162 HD
ENDROOT
BRANCH   1  30
HETATM   30  O1  UNL     1      17.001   1.961  49.836  1.00  0.00    -0.360 OA
HETATM   31  C1  UNL     1      16.111   3.048  49.902  1.00  0.00     0.209 C 
ENDBRANCH   1  30
BRANCH  25  32
HETATM   32  O2  UNL     1      19.446   3.843  46.469  1.00  0.00    -0.391 OA
HETATM   33  H22 UNL     1      19.644   4.770  46.754  1.00  0.00     0.210 HD
ENDBRANCH  25  32
TORSDOF 2
ENDMDL
MODEL 4
REMARK VINA RESULT:      -8.0      9.941     13.887
REMARK  2 active torsions:
REMARK  status: ('A' for Active; 'I' for Inactive)
REMARK    1  A    between atoms: O1_2  and  C2_3 
REMARK    2  A    between atoms: C22_27  and  O2_28 
ROOT
HETATM    1  C2  UNL     1      31.478   7.062  47.888  1.00  0.00     0.045 C 
HETATM    2  C3  UNL     1      31.805   8.153  47.260  1.00  0.00     0.023 C 
HETATM    3  C4  UNL     1      31.248   9.408  46.974  1.00  0.00     0.072 A 
HETATM    4  C5  UNL     1      31.183   9.768  48.406  1.00  0.00     0.179 A 
HETATM    5  N1  UNL     1      30.746  10.851  49.114  1.00  0.00    -0.272 NA
HETATM    6  C6  UNL     1      30.219  11.964  48.638  1.00  0.00     0.224 A 
HETATM    7  N2  UNL     1      30.219  11.770  47.213  1.00  0.00    -0.248 NA
HETATM    8  C7  UNL     1      30.774  10.493  47.041  1.00  0.00     0.165 A 
HETATM    9  N3  UNL     1      30.746  10.581  45.575  1.00  0.00    -0.363 N 
HETATM   10  C8  UNL     1      31.809  10.985  44.717  1.00  0.00     0.003 C 
HETATM   11  C9  UNL     1      31.877  12.453  44.946  1.00  0.00     0.068 C 
HETATM   12  C10 UNL     1      32.657  10.489  43.861  1.00  0.00     0.021 C 
HETATM   13  C11 UNL     1      32.530   9.072  43.679  1.00  0.00     0.029 C 
HETATM   14  C12 UNL     1      33.413   8.495  42.786  1.00  0.00     0.018 C 
HETATM   15  C13 UNL     1      34.373   9.411  42.130  1.00  0.00     0.022 C 
HETATM   16  C14 UNL     1      33.809   7.191  42.186  1.00  0.00     0.079 C 
HETATM   17  N4  UNL     1      34.480   6.180  42.568  1.00  0.00    -0.249 NA
HETATM   18  C15 UNL     1      33.744   5.027  42.809  1.00  0.00     0.045 C 
HETATM   19  C16 UNL     1      33.860   4.514  44.015  1.00  0.00     0.028 C 
HETATM   20  C17 UNL     1      34.548   4.767  45.261  1.00  0.00     0.002 C 
HETATM   21  C18 UNL     1      34.581   4.161  46.472  1.00  0.00     0.001 C 
HETATM   22  C19 UNL     1      33.660   3.009  46.363  1.00  0.00     0.012 C 
HETATM   23  C20 UNL     1      32.385   3.372  46.280  1.00  0.00    -0.028 C 
HETATM   24  C21 UNL     1      32.201   4.666  46.535  1.00  0.00     0.017 C 
HETATM   25  C22 UNL     1      32.651   4.829  47.934  1.00  0.00     0.148 C 
HETATM   26  C23 UNL     1      31.495   5.756  48.440  1.00  0.00     0.100 C 
HETATM   27  C24 UNL     1      33.046   4.751  41.561  1.00  0.00     0.140 C 
HETATM   28  S1  UNL     1      33.580   6.292  40.665  1.00  0.00    -0.108 SA
HETATM   29  H7  UNL     1      29.970  10.372  44.919  1.00  0.00     0.162 HD
ENDROOT
BRANCH   1  30
HETATM   30  O1  UNL     1      30.314   7.736  48.141  1.00  0.00    -0.360 OA
HETATM   31  C1  UNL     1      29.024   7.201  48.310  1.00  0.00     0.209 C 
ENDBRANCH   1  30
BRANCH  25  32
HETATM   32  O2  UNL     1      32.472   3.759  48.763  1.00  0.00    -0.391 OA
HETATM   33  H22 UNL     1      31.508   3.706  48.982  1.00  0.00     0.210 HD
ENDBRANCH  25  32
TORSDOF 2
ENDMDL
MODEL 5
REMARK VINA RESULT:      -8.0      8.237     11.924
REMARK  2 active torsions:
REMARK  status: ('A' for Active; 'I' for Inactive)
REMARK    1  A    between atoms: O1_2  and  C2_3 
REMARK    2  A    between atoms: C22_27  and  O2_28 
ROOT
HETATM    1  C2  UNL     1      28.893  10.318  46.666  1.00  0.00     0.045 C 
HETATM    2  C3  UNL     1      28.665   9.054  46.872  1.00  0.00     0.023 C 
HETATM    3  C4  UNL     1      27.851   8.252  47.685  1.00  0.00     0.072 A 
HETATM    4  C5  UNL     1      26.617   8.792  47.079  1.00  0.00     0.179 A 
HETATM    5  N1  UNL     1      25.279   8.592  47.264  1.00  0.00    -0.272 NA
HETATM    6  C6  UNL     1      24.699   7.776  48.124  1.00  0.00     0.224 A 
HETATM    7  N2  UNL     1      25.798   7.150  48.809  1.00  0.00    -0.248 NA
HETATM    8  C7  UNL     1      26.937   7.724  48.224  1.00  0.00     0.165 A 
HETATM    9  N3  UNL     1      27.864   6.887  48.997  1.00  0.00    -0.363 N 
HETATM   10  C8  UNL     1      28.463   5.661  48.586  1.00  0.00     0.003 C 
HETATM   11  C9  UNL     1      27.327   4.704  48.642  1.00  0.00     0.068 C 
HETATM   12  C10 UNL     1      29.616   5.177  48.217  1.00  0.00     0.021 C 
HETATM   13  C11 UNL     1      30.670   6.151  48.195  1.00  0.00     0.029 C 
HETATM   14  C12 UNL     1      31.911   5.690  47.802  1.00  0.00     0.018 C 
HETATM   15  C13 UNL     1      31.997   4.253  47.457  1.00  0.00     0.022 C 
HETATM   16  C14 UNL     1      33.316   6.123  47.563  1.00  0.00     0.079 C 
HETATM   17  N4  UNL     1      33.930   6.752  46.643  1.00  0.00    -0.249 NA
HETATM   18  C15 UNL     1      34.348   8.035  46.969  1.00  0.00     0.045 C 
HETATM   19  C16 UNL     1      33.911   8.997  46.185  1.00  0.00     0.028 C 
HETATM   20  C17 UNL     1      33.083   9.177  45.014  1.00  0.00     0.002 C 
HETATM   21  C18 UNL     1      32.684  10.245  44.284  1.00  0.00     0.001 C 
HETATM   22  C19 UNL     1      33.289  11.423  44.943  1.00  0.00     0.012 C 
HETATM   23  C20 UNL     1      32.747  11.690  46.126  1.00  0.00    -0.028 C 
HETATM   24  C21 UNL     1      31.641  10.983  46.356  1.00  0.00     0.017 C 
HETATM   25  C22 UNL     1      30.705  11.416  45.297  1.00  0.00     0.148 C 
HETATM   26  C23 UNL     1      29.413  11.541  46.171  1.00  0.00     0.100 C 
HETATM   27  C24 UNL     1      35.191   7.875  48.145  1.00  0.00     0.140 C 
HETATM   28  S1  UNL     1      34.897   6.052  48.381  1.00  0.00    -0.108 SA
HETATM   29  H7  UNL     1      28.237   7.031  49.954  1.00  0.00     0.162 HD
ENDROOT
BRANCH   1  30
HETATM   30  O1  UNL     1      27.942  10.492  47.634  1.00  0.00    -0.360 OA
HETATM   31  C1  UNL     1      27.760  11.603  48.477  1.00  0.00     0.209 C 
ENDBRANCH   1  30
BRANCH  25  32
HETATM   32  O2  UNL     1      30.822  12.707  44.867  1.00  0.00    -0.391 OA
HETATM   33  H22 UNL     1      29.954  12.972  44.473  1.00  0.00     0.210 HD
ENDBRANCH  25  32
TORSDOF 2
ENDMDL
MODEL 6
REMARK VINA RESULT:      -8.0      3.033      5.378
REMARK  2 active torsions:
REMARK  status: ('A' for Active; 'I' for Inactive)
REMARK    1  A    between atoms: O1_2  and  C2_3 
REMARK    2  A    between atoms: C22_27  and  O2_28 
ROOT
HETATM    1  C2  UNL     1      21.457   1.086  51.833  1.00  0.00     0.045 C 
HETATM    2  C3  UNL     1      22.753   1.172  51.757  1.00  0.00     0.023 C 
HETATM    3  C4  UNL     1      23.861   1.123  52.615  1.00  0.00     0.072 A 
HETATM    4  C5  UNL     1      23.570  -0.272  53.004  1.00  0.00     0.179 A 
HETATM    5  N1  UNL     1      24.138  -1.181  53.849  1.00  0.00    -0.272 NA
HETATM    6  C6  UNL     1      25.207  -1.017  54.607  1.00  0.00     0.224 A 
HETATM    7  N2  UNL     1      25.628   0.330  54.330  1.00  0.00    -0.248 NA
HETATM    8  C7  UNL     1      24.690   0.798  53.398  1.00  0.00     0.165 A 
HETATM    9  N3  UNL     1      25.371   2.088  53.226  1.00  0.00    -0.363 N 
HETATM   10  C8  UNL     1      26.314   2.435  52.216  1.00  0.00     0.003 C 
HETATM   11  C9  UNL     1      27.530   1.686  52.629  1.00  0.00     0.068 C 
HETATM   12  C10 UNL     1      26.414   3.160  51.138  1.00  0.00     0.021 C 
HETATM   13  C11 UNL     1      25.210   3.865  50.803  1.00  0.00     0.029 C 
HETATM   14  C12 UNL     1      25.261   4.642  49.662  1.00  0.00     0.018 C 
HETATM   15  C13 UNL     1      26.549   4.652  48.933  1.00  0.00     0.022 C 
HETATM   16  C14 UNL     1      24.443   5.545  48.805  1.00  0.00     0.079 C 
HETATM   17  N4  UNL     1      23.534   5.390  47.928  1.00  0.00    -0.249 NA
HETATM   18  C15 UNL     1      22.258   5.779  48.311  1.00  0.00     0.045 C 
HETATM   19  C16 UNL     1      21.328   4.852  48.232  1.00  0.00     0.028 C 
HETATM   20  C17 UNL     1      21.180   3.465  47.851  1.00  0.00     0.002 C 
HETATM   21  C18 UNL     1      20.149   2.588  47.823  1.00  0.00     0.001 C 
HETATM   22  C19 UNL     1      18.979   3.339  48.327  1.00  0.00     0.012 C 
HETATM   23  C20 UNL     1      19.060   3.615  49.623  1.00  0.00    -0.028 C 
HETATM   24  C21 UNL     1      20.058   2.970  50.225  1.00  0.00     0.017 C 
HETATM   25  C22 UNL     1      19.717   1.540  50.064  1.00  0.00     0.148 C 
HETATM   26  C23 UNL     1      20.077   1.055  51.508  1.00  0.00     0.100 C 
HETATM   27  C24 UNL     1      22.383   7.178  48.694  1.00  0.00     0.140 C 
HETATM   28  S1  UNL     1      24.232   7.290  48.517  1.00  0.00    -0.108 SA
HETATM   29  H7  UNL     1      25.293   2.952  53.794  1.00  0.00     0.162 HD
ENDROOT
BRANCH   1  30
HETATM   30  O1  UNL     1      21.697   0.920  53.170  1.00  0.00    -0.360 OA
HETATM   31  C1  UNL     1      20.766   0.653  54.189  1.00  0.00     0.209 C 
ENDBRANCH   1  30
BRANCH  25  32
HETATM   32  O2  UNL     1      18.387   1.227  50.038  1.00  0.00    -0.391 OA
HETATM   33  H22 UNL     1      18.175   0.894  49.130  1.00  0.00     0.210 HD
ENDBRANCH  25  32
TORSDOF 2
ENDMDL
MODEL 7
REMARK VINA RESULT:      -7.9      2.854      5.406
REMARK  2 active torsions:
REMARK  status: ('A' for Active; 'I' for Inactive)
REMARK    1  A    between atoms: O1_2  and  C2_3 
REMARK    2  A    between atoms: C22_27  and  O2_28 
ROOT
HETATM    1  C2  UNL     1      21.166   0.340  52.633  1.00  0.00     0.045 C 
HETATM    2  C3  UNL     1      22.286   0.783  52.141  1.00  0.00     0.023 C 
HETATM    3  C4  UNL     1      23.580   1.089  52.585  1.00  0.00     0.072 A 
HETATM    4  C5  UNL     1      23.836  -0.312  52.980  1.00  0.00     0.179 A 
HETATM    5  N1  UNL     1      24.882  -0.983  53.547  1.00  0.00    -0.272 NA
HETATM    6  C6  UNL     1      26.048  -0.488  53.920  1.00  0.00     0.224 A 
HETATM    7  N2  UNL     1      25.959   0.908  53.586  1.00  0.00    -0.248 NA
HETATM    8  C7  UNL     1      24.676   1.048  53.037  1.00  0.00     0.165 A 
HETATM    9  N3  UNL     1      24.872   2.467  52.713  1.00  0.00    -0.363 N 
HETATM   10  C8  UNL     1      25.294   3.016  51.468  1.00  0.00     0.003 C 
HETATM   11  C9  UNL     1      26.737   2.659  51.423  1.00  0.00     0.068 C 
HETATM   12  C10 UNL     1      24.827   3.687  50.453  1.00  0.00     0.021 C 
HETATM   13  C11 UNL     1      23.433   4.008  50.566  1.00  0.00     0.029 C 
HETATM   14  C12 UNL     1      22.887   4.711  49.510  1.00  0.00     0.018 C 
HETATM   15  C13 UNL     1      23.808   5.047  48.400  1.00  0.00     0.022 C 
HETATM   16  C14 UNL     1      21.615   5.306  49.013  1.00  0.00     0.079 C 
HETATM   17  N4  UNL     1      20.552   4.860  48.476  1.00  0.00    -0.249 NA
HETATM   18  C15 UNL     1      19.416   4.893  49.274  1.00  0.00     0.045 C 
HETATM   19  C16 UNL     1      18.812   3.739  49.460  1.00  0.00     0.028 C 
HETATM   20  C17 UNL     1      18.944   2.350  49.082  1.00  0.00     0.002 C 
HETATM   21  C18 UNL     1      18.250   1.219  49.350  1.00  0.00     0.001 C 
HETATM   22  C19 UNL     1      17.149   1.634  50.246  1.00  0.00     0.012 C 
HETATM   23  C20 UNL     1      17.569   1.984  51.456  1.00  0.00    -0.028 C 
HETATM   24  C21 UNL     1      18.848   1.675  51.665  1.00  0.00     0.017 C 
HETATM   25  C22 UNL     1      18.889   0.201  51.556  1.00  0.00     0.148 C 
HETATM   26  C23 UNL     1      19.823  -0.093  52.777  1.00  0.00     0.100 C 
HETATM   27  C24 UNL     1      19.261   6.288  49.662  1.00  0.00     0.140 C 
HETATM   28  S1  UNL     1      20.841   6.906  48.895  1.00  0.00    -0.108 SA
HETATM   29  H7  UNL     1      24.744   3.301  53.316  1.00  0.00     0.162 HD
ENDROOT
BRANCH   1  30
HETATM   30  O1  UNL     1      21.867   0.314  53.808  1.00  0.00    -0.360 OA
HETATM   31  C1  UNL     1      21.446  -0.183  55.055  1.00  0.00     0.209 C 
ENDBRANCH   1  30
BRANCH  25  32
HETATM   32  O2  UNL     1      17.769  -0.473  51.952  1.00  0.00    -0.391 OA
HETATM   33  H22 UNL     1      17.833  -0.615  52.929  1.00  0.00     0.210 HD
ENDBRANCH  25  32
TORSDOF 2
ENDMDL
MODEL 8
REMARK VINA RESULT:      -7.8      3.601      6.326
REMARK  2 active torsions:
REMARK  status: ('A' for Active; 'I' for Inactive)
REMARK    1  A    between atoms: O1_2  and  C2_3 
REMARK    2  A    between atoms: C22_27  and  O2_28 
ROOT
HETATM    1  C2  UNL     1      21.054   3.800  49.796  1.00  0.00     0.045 C 
HETATM    2  C3  UNL     1      22.240   3.284  49.933  1.00  0.00     0.023 C 
HETATM    3  C4  UNL     1      22.982   2.598  50.906  1.00  0.00     0.072 A 
HETATM    4  C5  UNL     1      22.042   1.459  50.900  1.00  0.00     0.179 A 
HETATM    5  N1  UNL     1      21.950   0.275  51.574  1.00  0.00    -0.272 NA
HETATM    6  C6  UNL     1      22.772  -0.192  52.497  1.00  0.00     0.224 A 
HETATM    7  N2  UNL     1      23.778   0.829  52.617  1.00  0.00    -0.248 NA
HETATM    8  C7  UNL     1      23.380   1.813  51.699  1.00  0.00     0.165 A 
HETATM    9  N3  UNL     1      24.564   2.647  51.944  1.00  0.00    -0.363 N 
HETATM   10  C8  UNL     1      25.776   2.662  51.196  1.00  0.00     0.003 C 
HETATM   11  C9  UNL     1      26.422   1.382  51.588  1.00  0.00     0.068 C 
HETATM   12  C10 UNL     1      26.429   3.409  50.351  1.00  0.00     0.021 C 
HETATM   13  C11 UNL     1      25.756   4.634  50.024  1.00  0.00     0.029 C 
HETATM   14  C12 UNL     1      26.403   5.458  49.125  1.00  0.00     0.018 C 
HETATM   15  C13 UNL     1      27.707   4.976  48.615  1.00  0.00     0.022 C 
HETATM   16  C14 UNL     1      26.278   6.754  48.401  1.00  0.00     0.079 C 
HETATM   17  N4  UNL     1      25.628   7.172  47.390  1.00  0.00    -0.249 NA
HETATM   18  C15 UNL     1      24.587   8.048  47.666  1.00  0.00     0.045 C 
HETATM   19  C16 UNL     1      23.400   7.682  47.231  1.00  0.00     0.028 C 
HETATM   20  C17 UNL     1      22.774   6.598  46.510  1.00  0.00     0.002 C 
HETATM   21  C18 UNL     1      21.508   6.316  46.121  1.00  0.00     0.001 C 
HETATM   22  C19 UNL     1      20.684   7.441  46.615  1.00  0.00     0.012 C 
HETATM   23  C20 UNL     1      20.562   7.451  47.937  1.00  0.00    -0.028 C 
HETATM   24  C21 UNL     1      21.016   6.334  48.504  1.00  0.00     0.017 C 
HETATM   25  C22 UNL     1      20.149   5.269  47.956  1.00  0.00     0.148 C 
HETATM   26  C23 UNL     1      19.913   4.464  49.277  1.00  0.00     0.100 C 
HETATM   27  C24 UNL     1      25.199   9.154  48.388  1.00  0.00     0.140 C 
HETATM   28  S1  UNL     1      26.904   8.417  48.515  1.00  0.00    -0.108 SA
HETATM   29  H7  UNL     1      24.727   3.354  52.686  1.00  0.00     0.162 HD
ENDROOT
BRANCH   1  30
HETATM   30  O1  UNL     1      20.873   3.345  51.074  1.00  0.00    -0.360 OA
HETATM   31  C1  UNL     1      19.769   3.556  51.920  1.00  0.00     0.209 C 
ENDBRANCH   1  30
BRANCH  25  32
HETATM   32  O2  UNL     1      18.862   5.618  47.662  1.00  0.00    -0.391 OA
HETATM   33  H22 UNL     1      18.387   4.799  47.375  1.00  0.00     0.210 HD
ENDBRANCH  25  32
TORSDOF 2
ENDMDL
MODEL 9
REMARK VINA RESULT:      -7.6      3.600      6.456
REMARK  2 active torsions:
REMARK  status: ('A' for Active; 'I' for Inactive)
REMARK    1  A    between atoms: O1_2  and  C2_3 
REMARK    2  A    between atoms: C22_27  and  O2_28 
ROOT
HETATM    1  C2  UNL     1      18.445   2.009  49.819  1.00  0.00     0.045 C 
HETATM    2  C3  UNL     1      19.367   1.357  50.465  1.00  0.00     0.023 C 
HETATM    3  C4  UNL     1      19.553   0.770  51.725  1.00  0.00     0.072 A 
HETATM    4  C5  UNL     1      18.458  -0.195  51.499  1.00  0.00     0.179 A 
HETATM    5  N1  UNL     1      17.885  -1.198  52.227  1.00  0.00    -0.272 NA
HETATM    6  C6  UNL     1      18.207  -1.594  53.445  1.00  0.00     0.224 A 
HETATM    7  N2  UNL     1      19.297  -0.731  53.816  1.00  0.00    -0.248 NA
HETATM    8  C7  UNL     1      19.468   0.103  52.701  1.00  0.00     0.165 A 
HETATM    9  N3  UNL     1      20.636   0.782  53.278  1.00  0.00    -0.363 N 
HETATM   10  C8  UNL     1      22.009   0.470  53.058  1.00  0.00     0.003 C 
HETATM   11  C9  UNL     1      22.186  -0.792  53.824  1.00  0.00     0.068 C 
HETATM   12  C10 UNL     1      23.061   0.932  52.444  1.00  0.00     0.021 C 
HETATM   13  C11 UNL     1      22.824   2.156  51.734  1.00  0.00     0.029 C 
HETATM   14  C12 UNL     1      23.907   2.684  51.058  1.00  0.00     0.018 C 
HETATM   15  C13 UNL     1      25.173   1.922  51.153  1.00  0.00     0.022 C 
HETATM   16  C14 UNL     1      24.323   3.818  50.187  1.00  0.00     0.079 C 
HETATM   17  N4  UNL     1      24.179   4.124  48.961  1.00  0.00    -0.249 NA
HETATM   18  C15 UNL     1      23.318   5.183  48.704  1.00  0.00     0.045 C 
HETATM   19  C16 UNL     1      22.314   4.922  47.895  1.00  0.00     0.028 C 
HETATM   20  C17 UNL     1      21.769   3.824  47.128  1.00  0.00     0.002 C 
HETATM   21  C18 UNL     1      20.695   3.666  46.320  1.00  0.00     0.001 C 
HETATM   22  C19 UNL     1      20.007   4.975  46.316  1.00  0.00     0.012 C 
HETATM   23  C20 UNL     1      19.429   5.260  47.477  1.00  0.00    -0.028 C 
HETATM   24  C21 UNL     1      19.406   4.220  48.309  1.00  0.00     0.017 C 
HETATM   25  C22 UNL     1      18.585   3.210  47.606  1.00  0.00     0.148 C 
HETATM   26  C23 UNL     1      17.731   2.722  48.823  1.00  0.00     0.100 C 
HETATM   27  C24 UNL     1      23.854   6.304  49.463  1.00  0.00     0.140 C 
HETATM   28  S1  UNL     1      25.205   5.359  50.327  1.00  0.00    -0.108 SA
HETATM   29  H7  UNL     1      20.671   1.587  53.931  1.00  0.00     0.162 HD
ENDROOT
BRANCH   1  30
HETATM   30  O1  UNL     1      17.731   1.843  50.975  1.00  0.00    -0.360 OA
HETATM   31  C1  UNL     1      16.657   2.618  51.447  1.00  0.00     0.209 C 
ENDBRANCH   1  30
BRANCH  25  32
HETATM   32  O2  UNL     1      17.591   3.685  46.798  1.00  0.00    -0.391 OA
HETATM   33  H22 UNL     1      17.561   3.112  45.991  1.00  0.00     0.210 HD
ENDBRANCH  25  32
TORSDOF 2
ENDMDL
