MODEL 1
REMARK VINA RESULT:      -7.8      0.000      0.000
REMARK  2 active torsions:
REMARK  status: ('A' for Active; 'I' for Inactive)
REMARK    1  A    between atoms: N1_2  and  C3_4 
REMARK    2  A    between atoms: C3_4  and  C4_5 
ROOT
HETATM    1  C4  UNL     1      25.736   3.032  51.167  1.00  0.00     0.133 C 
HETATM    2  N2  UNL     1      24.507   2.258  50.700  1.00  0.00    -0.298 NA
HETATM    3  C5  UNL     1      23.762   1.771  51.573  1.00  0.00     0.090 C 
HETATM    4  C6  UNL     1      22.553   0.990  51.889  1.00  0.00     0.106 C 
HETATM    5  C7  UNL     1      22.765   0.143  53.105  1.00  0.00     0.059 A 
HETATM    6  C8  UNL     1      21.957  -0.486  53.956  1.00  0.00     0.048 A 
HETATM    7  C9  UNL     1      22.228  -1.284  55.079  1.00  0.00     0.138 A 
HETATM    8  N3  UNL     1      23.581  -1.346  55.221  1.00  0.00    -0.075 NA
HETATM    9  C10 UNL     1      24.524  -0.800  54.493  1.00  0.00     0.727 A 
HETATM   10  N4  UNL     1      23.875  -0.183  53.607  1.00  0.00    -0.067 NA
HETATM   11  N5  UNL     1      25.945  -0.970  54.799  1.00  0.00    -0.188 N 
HETATM   12  C11 UNL     1      26.216   0.009  53.843  1.00  0.00     0.045 A 
HETATM   13  C12 UNL     1      26.149   1.376  54.272  1.00  0.00     0.010 A 
HETATM   14  C13 UNL     1      26.143   2.618  53.543  1.00  0.00     0.071 A 
HETATM   15  C14 UNL     1      26.216   2.027  52.224  1.00  0.00    -0.001 A 
HETATM   16  C15 UNL     1      26.299   0.791  51.469  1.00  0.00    -0.017 A 
HETATM   17  C16 UNL     1      26.296  -0.195  52.484  1.00  0.00     0.026 A 
HETATM   18  H15 UNL     1      26.251  -1.637  55.497  1.00  0.00     0.184 HD
ENDROOT
BRANCH   1  19
HETATM   19  C3  UNL     1      26.572   3.184  49.974  1.00  0.00     0.143 C 
BRANCH  19  20
HETATM   20  N1  UNL     1      26.421   4.395  49.260  1.00  0.00    -0.419 N 
HETATM   21  C1  UNL     1      25.631   5.429  49.885  1.00  0.00     0.142 C 
HETATM   22  C2  UNL     1      27.610   4.929  48.651  1.00  0.00     0.142 C 
ENDBRANCH  19  20
ENDBRANCH   1  19
TORSDOF 2
ENDMDL
MODEL 2
REMARK VINA RESULT:      -7.7      1.864      4.599
REMARK  2 active torsions:
REMARK  status: ('A' for Active; 'I' for Inactive)
REMARK    1  A    between atoms: N1_2  and  C3_4 
REMARK    2  A    between atoms: C3_4  and  C4_5 
ROOT
HETATM    1  C4  UNL     1      26.764  -0.032  53.686  1.00  0.00     0.133 C 
HETATM    2  N2  UNL     1      25.416  -0.483  54.239  1.00  0.00    -0.298 NA
HETATM    3  C5  UNL     1      24.439  -0.479  53.464  1.00  0.00     0.090 C 
HETATM    4  C6  UNL     1      23.001  -0.731  53.265  1.00  0.00     0.106 C 
HETATM    5  C7  UNL     1      22.407   0.267  52.321  1.00  0.00     0.059 A 
HETATM    6  C8  UNL     1      21.291   0.318  51.598  1.00  0.00     0.048 A 
HETATM    7  C9  UNL     1      20.785   1.304  50.735  1.00  0.00     0.138 A 
HETATM    8  N3  UNL     1      21.680   2.330  50.715  1.00  0.00    -0.075 NA
HETATM    9  C10 UNL     1      22.819   2.459  51.350  1.00  0.00     0.727 A 
HETATM   10  N4  UNL     1      22.901   1.383  52.002  1.00  0.00    -0.067 NA
HETATM   11  N5  UNL     1      23.667   3.643  51.204  1.00  0.00    -0.188 N 
HETATM   12  C11 UNL     1      24.660   2.955  51.900  1.00  0.00     0.045 A 
HETATM   13  C12 UNL     1      25.510   2.086  51.137  1.00  0.00     0.010 A 
HETATM   14  C13 UNL     1      26.462   1.079  51.527  1.00  0.00     0.071 A 
HETATM   15  C14 UNL     1      26.269   1.225  52.955  1.00  0.00    -0.001 A 
HETATM   16  C15 UNL     1      25.564   1.941  54.000  1.00  0.00    -0.017 A 
HETATM   17  C16 UNL     1      24.747   2.836  53.269  1.00  0.00     0.026 A 
HETATM   18  H15 UNL     1      23.331   4.467  50.721  1.00  0.00     0.184 HD
ENDROOT
BRANCH   1  19
HETATM   19  C3  UNL     1      27.611   0.180  54.861  1.00  0.00     0.143 C 
BRANCH  19  20
HETATM   20  N1  UNL     1      28.988   0.378  54.605  1.00  0.00    -0.419 N 
HETATM   21  C1  UNL     1      29.608  -0.499  53.642  1.00  0.00     0.142 C 
HETATM   22  C2  UNL     1      29.415   1.742  54.436  1.00  0.00     0.142 C 
ENDBRANCH  19  20
ENDBRANCH   1  19
TORSDOF 2
ENDMDL
MODEL 3
REMARK VINA RESULT:      -7.1      2.446      5.568
REMARK  2 active torsions:
REMARK  status: ('A' for Active; 'I' for Inactive)
REMARK    1  A    between atoms: N1_2  and  C3_4 
REMARK    2  A    between atoms: C3_4  and  C4_5 
ROOT
HETATM    1  C4  UNL     1      26.808   1.416  53.017  1.00  0.00     0.133 C 
HETATM    2  N2  UNL     1      27.100   1.586  51.530  1.00  0.00    -0.298 NA
HETATM    3  C5  UNL     1      26.652   2.603  50.963  1.00  0.00     0.090 C 
HETATM    4  C6  UNL     1      26.514   3.382  49.720  1.00  0.00     0.106 C 
HETATM    5  C7  UNL     1      25.175   4.046  49.650  1.00  0.00     0.059 A 
HETATM    6  C8  UNL     1      24.668   5.051  48.938  1.00  0.00     0.048 A 
HETATM    7  C9  UNL     1      23.384   5.619  48.913  1.00  0.00     0.138 A 
HETATM    8  N3  UNL     1      22.619   4.944  49.815  1.00  0.00    -0.075 NA
HETATM    9  C10 UNL     1      22.938   3.941  50.597  1.00  0.00     0.727 A 
HETATM   10  N4  UNL     1      24.150   3.740  50.318  1.00  0.00    -0.067 NA
HETATM   11  N5  UNL     1      21.978   3.335  51.521  1.00  0.00    -0.188 N 
HETATM   12  C11 UNL     1      23.041   2.628  52.081  1.00  0.00     0.045 A 
HETATM   13  C12 UNL     1      23.804   3.293  53.098  1.00  0.00     0.010 A 
HETATM   14  C13 UNL     1      25.064   2.980  53.721  1.00  0.00     0.071 A 
HETATM   15  C14 UNL     1      25.314   1.767  52.970  1.00  0.00    -0.001 A 
HETATM   16  C15 UNL     1      24.808   0.863  51.955  1.00  0.00    -0.017 A 
HETATM   17  C16 UNL     1      23.581   1.462  51.587  1.00  0.00     0.026 A 
HETATM   18  H15 UNL     1      20.995   3.573  51.480  1.00  0.00     0.184 HD
ENDROOT
BRANCH   1  19
HETATM   19  C3  UNL     1      27.148   0.023  53.319  1.00  0.00     0.143 C 
BRANCH  19  20
HETATM   20  N1  UNL     1      28.362  -0.183  54.014  1.00  0.00    -0.419 N 
HETATM   21  C1  UNL     1      29.302  -1.107  53.427  1.00  0.00     0.142 C 
HETATM   22  C2  UNL     1      29.016   0.995  54.519  1.00  0.00     0.142 C 
ENDBRANCH  19  20
ENDBRANCH   1  19
TORSDOF 2
ENDMDL
MODEL 4
REMARK VINA RESULT:      -6.9      2.772      3.586
REMARK  2 active torsions:
REMARK  status: ('A' for Active; 'I' for Inactive)
REMARK    1  A    between atoms: N1_2  and  C3_4 
REMARK    2  A    between atoms: C3_4  and  C4_5 
ROOT
HETATM    1  C4  UNL     1      21.957   5.115  51.708  1.00  0.00     0.133 C 
HETATM    2  N2  UNL     1      20.829   4.095  51.600  1.00  0.00    -0.298 NA
HETATM    3  C5  UNL     1      20.839   3.131  52.391  1.00  0.00     0.090 C 
HETATM    4  C6  UNL     1      20.197   1.889  52.856  1.00  0.00     0.106 C 
HETATM    5  C7  UNL     1      21.220   0.882  53.279  1.00  0.00     0.059 A 
HETATM    6  C8  UNL     1      21.190  -0.224  54.019  1.00  0.00     0.048 A 
HETATM    7  C9  UNL     1      22.197  -1.139  54.367  1.00  0.00     0.138 A 
HETATM    8  N3  UNL     1      23.355  -0.712  53.793  1.00  0.00    -0.075 NA
HETATM    9  C10 UNL     1      23.578   0.339  53.040  1.00  0.00     0.727 A 
HETATM   10  N4  UNL     1      22.442   0.881  52.971  1.00  0.00    -0.067 NA
HETATM   11  N5  UNL     1      24.904   0.651  52.507  1.00  0.00    -0.188 N 
HETATM   12  C11 UNL     1      24.397   1.886  52.106  1.00  0.00     0.045 A 
HETATM   13  C12 UNL     1      24.393   2.938  53.081  1.00  0.00     0.010 A 
HETATM   14  C13 UNL     1      23.763   4.233  53.103  1.00  0.00     0.071 A 
HETATM   15  C14 UNL     1      23.120   4.117  51.811  1.00  0.00    -0.001 A 
HETATM   16  C15 UNL     1      22.921   3.279  50.644  1.00  0.00    -0.017 A 
HETATM   17  C16 UNL     1      23.676   2.125  50.957  1.00  0.00     0.026 A 
HETATM   18  H15 UNL     1      25.664  -0.015  52.579  1.00  0.00     0.184 HD
ENDROOT
BRANCH   1  19
HETATM   19  C3  UNL     1      21.878   5.910  50.481  1.00  0.00     0.143 C 
BRANCH  19  20
HETATM   20  N1  UNL     1      22.130   7.294  50.621  1.00  0.00    -0.419 N 
HETATM   21  C1  UNL     1      23.511   7.702  50.715  1.00  0.00     0.142 C 
HETATM   22  C2  UNL     1      21.373   8.170  49.766  1.00  0.00     0.142 C 
ENDBRANCH  19  20
ENDBRANCH   1  19
TORSDOF 2
ENDMDL
MODEL 5
REMARK VINA RESULT:      -6.8      2.518      5.014
REMARK  2 active torsions:
REMARK  status: ('A' for Active; 'I' for Inactive)
REMARK    1  A    between atoms: N1_2  and  C3_4 
REMARK    2  A    between atoms: C3_4  and  C4_5 
ROOT
HETATM    1  C4  UNL     1      25.585   1.229  52.265  1.00  0.00     0.133 C 
HETATM    2  N2  UNL     1      24.492   0.666  53.167  1.00  0.00    -0.298 NA
HETATM    3  C5  UNL     1      23.310   0.768  52.781  1.00  0.00     0.090 C 
HETATM    4  C6  UNL     1      21.883   0.516  53.047  1.00  0.00     0.106 C 
HETATM    5  C7  UNL     1      21.036   1.635  52.528  1.00  0.00     0.059 A 
HETATM    6  C8  UNL     1      19.742   1.772  52.246  1.00  0.00     0.048 A 
HETATM    7  C9  UNL     1      19.004   2.868  51.771  1.00  0.00     0.138 A 
HETATM    8  N3  UNL     1      19.870   3.906  51.606  1.00  0.00    -0.075 NA
HETATM    9  C10 UNL     1      21.161   3.960  51.828  1.00  0.00     0.727 A 
HETATM   10  N4  UNL     1      21.426   2.798  52.237  1.00  0.00    -0.067 NA
HETATM   11  N5  UNL     1      21.945   5.173  51.587  1.00  0.00    -0.188 N 
HETATM   12  C11 UNL     1      23.094   4.409  51.788  1.00  0.00     0.045 A 
HETATM   13  C12 UNL     1      23.606   3.690  50.656  1.00  0.00     0.010 A 
HETATM   14  C13 UNL     1      24.602   2.657  50.538  1.00  0.00     0.071 A 
HETATM   15  C14 UNL     1      24.911   2.573  51.950  1.00  0.00    -0.001 A 
HETATM   16  C15 UNL     1      24.625   3.100  53.271  1.00  0.00    -0.017 A 
HETATM   17  C16 UNL     1      23.637   4.078  53.009  1.00  0.00     0.026 A 
HETATM   18  H15 UNL     1      21.491   6.054  51.382  1.00  0.00     0.184 HD
ENDROOT
BRANCH   1  19
HETATM   19  C3  UNL     1      26.788   1.275  53.099  1.00  0.00     0.143 C 
BRANCH  19  20
HETATM   20  N1  UNL     1      27.163   0.059  53.714  1.00  0.00    -0.419 N 
HETATM   21  C1  UNL     1      27.547  -1.025  52.842  1.00  0.00     0.142 C 
HETATM   22  C2  UNL     1      28.038   0.163  54.852  1.00  0.00     0.142 C 
ENDBRANCH  19  20
ENDBRANCH   1  19
TORSDOF 2
ENDMDL
MODEL 6
REMARK VINA RESULT:      -6.8      1.866      3.774
REMARK  2 active torsions:
REMARK  status: ('A' for Active; 'I' for Inactive)
REMARK    1  A    between atoms: N1_2  and  C3_4 
REMARK    2  A    between atoms: C3_4  and  C4_5 
ROOT
HETATM    1  C4  UNL     1      23.896   4.330  49.508  1.00  0.00     0.133 C 
HETATM    2  N2  UNL     1      25.267   4.258  50.174  1.00  0.00    -0.298 NA
HETATM    3  C5  UNL     1      25.694   3.134  50.505  1.00  0.00     0.090 C 
HETATM    4  C6  UNL     1      26.771   2.338  51.119  1.00  0.00     0.106 C 
HETATM    5  C7  UNL     1      26.212   1.182  51.886  1.00  0.00     0.059 A 
HETATM    6  C8  UNL     1      26.715   0.041  52.353  1.00  0.00     0.048 A 
HETATM    7  C9  UNL     1      26.130  -1.004  53.087  1.00  0.00     0.138 A 
HETATM    8  N3  UNL     1      24.823  -0.680  53.289  1.00  0.00    -0.075 NA
HETATM    9  C10 UNL     1      24.156   0.383  52.910  1.00  0.00     0.727 A 
HETATM   10  N4  UNL     1      25.026   1.057  52.295  1.00  0.00    -0.067 NA
HETATM   11  N5  UNL     1      22.736   0.565  53.214  1.00  0.00    -0.188 N 
HETATM   12  C11 UNL     1      22.743   1.659  52.350  1.00  0.00     0.045 A 
HETATM   13  C12 UNL     1      22.548   1.389  50.954  1.00  0.00     0.010 A 
HETATM   14  C13 UNL     1      22.713   2.206  49.779  1.00  0.00     0.071 A 
HETATM   15  C14 UNL     1      23.155   3.396  50.476  1.00  0.00    -0.001 A 
HETATM   16  C15 UNL     1      23.440   3.989  51.769  1.00  0.00    -0.017 A 
HETATM   17  C16 UNL     1      23.162   2.931  52.666  1.00  0.00     0.026 A 
HETATM   18  H15 UNL     1      22.257  -0.056  53.855  1.00  0.00     0.184 HD
ENDROOT
BRANCH   1  19
HETATM   19  C3  UNL     1      23.524   5.746  49.545  1.00  0.00     0.143 C 
BRANCH  19  20
HETATM   20  N1  UNL     1      24.591   6.671  49.483  1.00  0.00    -0.419 N 
HETATM   21  C1  UNL     1      24.967   7.150  48.175  1.00  0.00     0.142 C 
HETATM   22  C2  UNL     1      24.573   7.732  50.454  1.00  0.00     0.142 C 
ENDBRANCH  19  20
ENDBRANCH   1  19
TORSDOF 2
ENDMDL
MODEL 7
REMARK VINA RESULT:      -6.7      2.055      3.898
REMARK  2 active torsions:
REMARK  status: ('A' for Active; 'I' for Inactive)
REMARK    1  A    between atoms: N1_2  and  C3_4 
REMARK    2  A    between atoms: C3_4  and  C4_5 
ROOT
HETATM    1  C4  UNL     1      23.609   3.091  49.957  1.00  0.00     0.133 C 
HETATM    2  N2  UNL     1      24.319   2.910  51.294  1.00  0.00    -0.298 NA
HETATM    3  C5  UNL     1      24.154   1.831  51.898  1.00  0.00     0.090 C 
HETATM    4  C6  UNL     1      24.450   1.003  53.081  1.00  0.00     0.106 C 
HETATM    5  C7  UNL     1      23.260   0.186  53.474  1.00  0.00     0.059 A 
HETATM    6  C8  UNL     1      23.078  -0.892  54.234  1.00  0.00     0.048 A 
HETATM    7  C9  UNL     1      21.918  -1.607  54.574  1.00  0.00     0.138 A 
HETATM    8  N3  UNL     1      20.867  -0.998  53.959  1.00  0.00    -0.075 NA
HETATM    9  C10 UNL     1      20.849   0.058  53.183  1.00  0.00     0.727 A 
HETATM   10  N4  UNL     1      22.064   0.391  53.132  1.00  0.00    -0.067 NA
HETATM   11  N5  UNL     1      19.612   0.577  52.597  1.00  0.00    -0.188 N 
HETATM   12  C11 UNL     1      20.398   1.420  51.812  1.00  0.00     0.045 A 
HETATM   13  C12 UNL     1      20.912   0.879  50.586  1.00  0.00     0.010 A 
HETATM   14  C13 UNL     1      21.908   1.357  49.662  1.00  0.00     0.071 A 
HETATM   15  C14 UNL     1      22.232   2.566  50.390  1.00  0.00    -0.001 A 
HETATM   16  C15 UNL     1      21.938   3.374  51.558  1.00  0.00    -0.017 A 
HETATM   17  C16 UNL     1      20.931   2.625  52.211  1.00  0.00     0.026 A 
HETATM   18  H15 UNL     1      18.710   0.225  52.890  1.00  0.00     0.184 HD
ENDROOT
BRANCH   1  19
HETATM   19  C3  UNL     1      23.704   4.522  49.660  1.00  0.00     0.143 C 
BRANCH  19  20
HETATM   20  N1  UNL     1      24.840   5.188  50.175  1.00  0.00    -0.419 N 
HETATM   21  C1  UNL     1      26.011   5.230  49.332  1.00  0.00     0.142 C 
HETATM   22  C2  UNL     1      24.602   6.452  50.819  1.00  0.00     0.142 C 
ENDBRANCH  19  20
ENDBRANCH   1  19
TORSDOF 2
ENDMDL
MODEL 8
REMARK VINA RESULT:      -6.6      8.034     10.107
REMARK  2 active torsions:
REMARK  status: ('A' for Active; 'I' for Inactive)
REMARK    1  A    between atoms: N1_2  and  C3_4 
REMARK    2  A    between atoms: C3_4  and  C4_5 
ROOT
HETATM    1  C4  UNL     1      32.023   5.463  47.225  1.00  0.00     0.133 C 
HETATM    2  N2  UNL     1      30.746   4.980  47.905  1.00  0.00    -0.298 NA
HETATM    3  C5  UNL     1      29.760   5.744  47.901  1.00  0.00     0.090 C 
HETATM    4  C6  UNL     1      28.361   5.980  48.296  1.00  0.00     0.106 C 
HETATM    5  C7  UNL     1      28.139   7.417  48.648  1.00  0.00     0.059 A 
HETATM    6  C8  UNL     1      27.063   8.192  48.772  1.00  0.00     0.048 A 
HETATM    7  C9  UNL     1      26.926   9.545  49.123  1.00  0.00     0.138 A 
HETATM    8  N3  UNL     1      28.174  10.039  49.349  1.00  0.00    -0.075 NA
HETATM    9  C10 UNL     1      29.337   9.437  49.278  1.00  0.00     0.727 A 
HETATM   10  N4  UNL     1      29.027   8.263  48.940  1.00  0.00    -0.067 NA
HETATM   11  N5  UNL     1      30.595  10.133  49.551  1.00  0.00    -0.188 N 
HETATM   12  C11 UNL     1      31.264   9.012  49.061  1.00  0.00     0.045 A 
HETATM   13  C12 UNL     1      31.457   8.937  47.641  1.00  0.00     0.010 A 
HETATM   14  C13 UNL     1      31.885   7.865  46.780  1.00  0.00     0.071 A 
HETATM   15  C14 UNL     1      32.046   6.877  47.826  1.00  0.00    -0.001 A 
HETATM   16  C15 UNL     1      31.957   6.617  49.250  1.00  0.00    -0.017 A 
HETATM   17  C16 UNL     1      31.532   7.862  49.769  1.00  0.00     0.026 A 
HETATM   18  H15 UNL     1      30.599  11.064  49.949  1.00  0.00     0.184 HD
ENDROOT
BRANCH   1  19
HETATM   19  C3  UNL     1      33.070   4.541  47.671  1.00  0.00     0.143 C 
BRANCH  19  20
HETATM   20  N1  UNL     1      33.420   3.515  46.764  1.00  0.00    -0.419 N 
HETATM   21  C1  UNL     1      34.801   3.452  46.348  1.00  0.00     0.142 C 
HETATM   22  C2  UNL     1      32.888   2.208  47.043  1.00  0.00     0.142 C 
ENDBRANCH  19  20
ENDBRANCH   1  19
TORSDOF 2
ENDMDL
MODEL 9
REMARK VINA RESULT:      -6.6      2.548      4.514
REMARK  2 active torsions:
REMARK  status: ('A' for Active; 'I' for Inactive)
REMARK    1  A    between atoms: N1_2  and  C3_4 
REMARK    2  A    between atoms: C3_4  and  C4_5 
ROOT
HETATM    1  C4  UNL     1      20.848   1.933  51.472  1.00  0.00     0.133 C 
HETATM    2  N2  UNL     1      21.289   0.486  51.665  1.00  0.00    -0.298 NA
HETATM    3  C5  UNL     1      22.126   0.248  52.558  1.00  0.00     0.090 C 
HETATM    4  C6  UNL     1      22.949  -0.749  53.266  1.00  0.00     0.106 C 
HETATM    5  C7  UNL     1      24.277  -0.175  53.646  1.00  0.00     0.059 A 
HETATM    6  C8  UNL     1      25.228  -0.517  54.513  1.00  0.00     0.048 A 
HETATM    7  C9  UNL     1      26.471   0.066  54.810  1.00  0.00     0.138 A 
HETATM    8  N3  UNL     1      26.610   1.162  54.015  1.00  0.00    -0.075 NA
HETATM    9  C10 UNL     1      25.792   1.651  53.114  1.00  0.00     0.727 A 
HETATM   10  N4  UNL     1      24.818   0.853  53.155  1.00  0.00    -0.067 NA
HETATM   11  N5  UNL     1      26.105   2.857  52.347  1.00  0.00    -0.188 N 
HETATM   12  C11 UNL     1      24.791   2.841  51.880  1.00  0.00     0.045 A 
HETATM   13  C12 UNL     1      23.797   3.462  52.707  1.00  0.00     0.010 A 
HETATM   14  C13 UNL     1      22.358   3.442  52.667  1.00  0.00     0.071 A 
HETATM   15  C14 UNL     1      22.244   2.573  51.514  1.00  0.00    -0.001 A 
HETATM   16  C15 UNL     1      22.966   1.824  50.505  1.00  0.00    -0.017 A 
HETATM   17  C16 UNL     1      24.318   2.078  50.836  1.00  0.00     0.026 A 
HETATM   18  H15 UNL     1      27.029   3.271  52.381  1.00  0.00     0.184 HD
ENDROOT
BRANCH   1  19
HETATM   19  C3  UNL     1      20.153   1.955  50.183  1.00  0.00     0.143 C 
BRANCH  19  20
HETATM   20  N1  UNL     1      19.308   3.066  49.953  1.00  0.00    -0.419 N 
HETATM   21  C1  UNL     1      18.613   3.607  51.096  1.00  0.00     0.142 C 
HETATM   22  C2  UNL     1      19.836   4.105  49.110  1.00  0.00     0.142 C 
ENDBRANCH  19  20
ENDBRANCH   1  19
TORSDOF 2
ENDMDL
