MODEL 1
REMARK VINA RESULT:      -7.8      0.000      0.000
REMARK  0 active torsions:
REMARK  status: ('A' for Active; 'I' for Inactive)
ROOT
HETATM    1 CL1  UNL     1      26.852   1.959  53.857  1.00  0.00    -0.089 Cl
HETATM    2  C1  UNL     1      25.955   2.306  52.359  1.00  0.00     0.014 C 
HETATM    3  C2  UNL     1      26.589   2.788  51.250  1.00  0.00     0.014 C 
HETATM    4  C3  UNL     1      26.490   3.258  49.825  1.00  0.00     0.176 C 
HETATM    5  N1  UNL     1      25.155   3.295  49.311  1.00  0.00    -0.302 NA
HETATM    6  C4  UNL     1      24.549   4.438  49.123  1.00  0.00     0.083 C 
HETATM    7  C5  UNL     1      23.363   5.231  48.699  1.00  0.00     0.048 C 
HETATM    8  C6  UNL     1      22.140   4.315  48.476  1.00  0.00     0.024 C 
HETATM    9  C7  UNL     1      21.955   3.651  49.846  1.00  0.00     0.115 C 
HETATM   10  N2  UNL     1      21.641   4.547  50.891  1.00  0.00    -0.406 N 
HETATM   11  C8  UNL     1      21.786   4.103  52.238  1.00  0.00     0.238 C 
HETATM   12  N3  UNL     1      22.018   2.690  52.250  1.00  0.00    -0.374 N 
HETATM   13  C9  UNL     1      22.430   1.449  52.861  1.00  0.00     0.037 A 
HETATM   14  C10 UNL     1      21.534   0.655  53.535  1.00  0.00     0.030 A 
HETATM   15  C11 UNL     1      21.845  -0.540  54.114  1.00  0.00     0.004 A 
HETATM   16  C12 UNL     1      23.163  -0.863  53.941  1.00  0.00     0.020 A 
HETATM   17  C13 UNL     1      24.102  -0.116  53.277  1.00  0.00     0.019 A 
HETATM   18 BR1  UNL     1      25.883  -0.712  53.015  1.00  0.00    -0.050 Br
HETATM   19  C14 UNL     1      23.802   1.080  52.700  1.00  0.00    -0.009 A 
HETATM   20  C15 UNL     1      24.566   2.127  51.982  1.00  0.00     0.093 C 
HETATM   21  H11 UNL     1      21.198   5.425  50.705  1.00  0.00     0.154 HD
HETATM   22  H14 UNL     1      21.770   2.120  51.387  1.00  0.00     0.161 HD
ENDROOT
TORSDOF 0
ENDMDL
MODEL 2
REMARK VINA RESULT:      -7.7      2.999      4.639
REMARK  0 active torsions:
REMARK  status: ('A' for Active; 'I' for Inactive)
ROOT
HETATM    1 CL1  UNL     1      21.359   0.783  49.384  1.00  0.00    -0.089 Cl
HETATM    2  C1  UNL     1      22.634   1.456  50.429  1.00  0.00     0.014 C 
HETATM    3  C2  UNL     1      23.335   2.569  50.062  1.00  0.00     0.014 C 
HETATM    4  C3  UNL     1      24.414   3.564  50.389  1.00  0.00     0.176 C 
HETATM    5  N1  UNL     1      25.122   3.285  51.600  1.00  0.00    -0.302 NA
HETATM    6  C4  UNL     1      26.350   2.836  51.561  1.00  0.00     0.083 C 
HETATM    7  C5  UNL     1      27.590   2.369  52.238  1.00  0.00     0.048 C 
HETATM    8  C6  UNL     1      27.344   2.150  53.746  1.00  0.00     0.024 C 
HETATM    9  C7  UNL     1      26.224   1.102  53.761  1.00  0.00     0.115 C 
HETATM   10  N2  UNL     1      26.581  -0.142  53.195  1.00  0.00    -0.406 N 
HETATM   11  C8  UNL     1      25.544  -1.056  52.846  1.00  0.00     0.238 C 
HETATM   12  N3  UNL     1      24.300  -0.589  53.379  1.00  0.00    -0.374 N 
HETATM   13  C9  UNL     1      22.860  -0.562  53.477  1.00  0.00     0.037 A 
HETATM   14  C10 UNL     1      22.190  -1.376  54.358  1.00  0.00     0.030 A 
HETATM   15  C11 UNL     1      20.836  -1.387  54.522  1.00  0.00     0.004 A 
HETATM   16  C12 UNL     1      20.216  -0.482  53.706  1.00  0.00     0.020 A 
HETATM   17  C13 UNL     1      20.828   0.358  52.811  1.00  0.00     0.019 A 
HETATM   18 BR1  UNL     1      19.872   1.645  51.798  1.00  0.00    -0.050 Br
HETATM   19  C14 UNL     1      22.178   0.373  52.636  1.00  0.00    -0.009 A 
HETATM   20  C15 UNL     1      23.120   1.091  51.746  1.00  0.00     0.093 C 
HETATM   21  H11 UNL     1      27.536  -0.441  53.161  1.00  0.00     0.154 HD
HETATM   22  H14 UNL     1      24.312   0.132  54.160  1.00  0.00     0.161 HD
ENDROOT
TORSDOF 0
ENDMDL
MODEL 3
REMARK VINA RESULT:      -7.6      2.276      5.015
REMARK  0 active torsions:
REMARK  status: ('A' for Active; 'I' for Inactive)
ROOT
HETATM    1 CL1  UNL     1      25.443  -0.799  52.993  1.00  0.00    -0.089 Cl
HETATM    2  C1  UNL     1      23.809  -0.089  52.997  1.00  0.00     0.014 C 
HETATM    3  C2  UNL     1      22.884  -0.448  53.934  1.00  0.00     0.014 C 
HETATM    4  C3  UNL     1      21.491  -0.294  54.478  1.00  0.00     0.176 C 
HETATM    5  N1  UNL     1      20.654   0.574  53.708  1.00  0.00    -0.302 NA
HETATM    6  C4  UNL     1      19.691   0.084  52.972  1.00  0.00     0.083 C 
HETATM    7  C5  UNL     1      18.555   0.257  52.025  1.00  0.00     0.048 C 
HETATM    8  C6  UNL     1      18.500   1.704  51.490  1.00  0.00     0.024 C 
HETATM    9  C7  UNL     1      19.868   1.873  50.819  1.00  0.00     0.115 C 
HETATM   10  N2  UNL     1      20.089   1.013  49.720  1.00  0.00    -0.406 N 
HETATM   11  C8  UNL     1      21.423   0.839  49.247  1.00  0.00     0.238 C 
HETATM   12  N3  UNL     1      22.279   1.800  49.874  1.00  0.00    -0.374 N 
HETATM   13  C9  UNL     1      23.562   2.335  50.262  1.00  0.00     0.037 A 
HETATM   14  C10 UNL     1      24.239   3.218  49.457  1.00  0.00     0.030 A 
HETATM   15  C11 UNL     1      25.441   3.783  49.769  1.00  0.00     0.004 A 
HETATM   16  C12 UNL     1      25.898   3.369  50.990  1.00  0.00     0.020 A 
HETATM   17  C13 UNL     1      25.267   2.494  51.839  1.00  0.00     0.019 A 
HETATM   18 BR1  UNL     1      25.949   2.067  53.556  1.00  0.00    -0.050 Br
HETATM   19  C14 UNL     1      24.071   1.922  51.534  1.00  0.00    -0.009 A 
HETATM   20  C15 UNL     1      23.179   0.930  52.179  1.00  0.00     0.093 C 
HETATM   21  H11 UNL     1      19.325   0.637  49.194  1.00  0.00     0.154 HD
HETATM   22  H14 UNL     1      21.845   2.655  50.332  1.00  0.00     0.161 HD
ENDROOT
TORSDOF 0
ENDMDL
MODEL 4
REMARK VINA RESULT:      -7.3      2.523      4.351
REMARK  0 active torsions:
REMARK  status: ('A' for Active; 'I' for Inactive)
ROOT
HETATM    1 CL1  UNL     1      21.704   0.624  50.202  1.00  0.00    -0.089 Cl
HETATM    2  C1  UNL     1      21.994   2.314  50.684  1.00  0.00     0.014 C 
HETATM    3  C2  UNL     1      20.962   3.195  50.828  1.00  0.00     0.014 C 
HETATM    4  C3  UNL     1      20.512   4.592  51.156  1.00  0.00     0.176 C 
HETATM    5  N1  UNL     1      21.581   5.509  51.405  1.00  0.00    -0.302 NA
HETATM    6  C4  UNL     1      21.881   6.432  50.528  1.00  0.00     0.083 C 
HETATM    7  C5  UNL     1      22.707   7.586  50.080  1.00  0.00     0.048 C 
HETATM    8  C6  UNL     1      23.935   7.773  50.997  1.00  0.00     0.024 C 
HETATM    9  C7  UNL     1      24.666   6.431  50.868  1.00  0.00     0.115 C 
HETATM   10  N2  UNL     1      25.136   6.144  49.568  1.00  0.00    -0.406 N 
HETATM   11  C8  UNL     1      25.513   4.805  49.258  1.00  0.00     0.238 C 
HETATM   12  N3  UNL     1      25.553   4.032  50.462  1.00  0.00    -0.374 N 
HETATM   13  C9  UNL     1      25.586   2.797  51.210  1.00  0.00     0.037 A 
HETATM   14  C10 UNL     1      26.777   2.208  51.559  1.00  0.00     0.030 A 
HETATM   15  C11 UNL     1      26.886   1.059  52.285  1.00  0.00     0.004 A 
HETATM   16  C12 UNL     1      25.663   0.557  52.633  1.00  0.00     0.020 A 
HETATM   17  C13 UNL     1      24.442   1.100  52.319  1.00  0.00     0.019 A 
HETATM   18 BR1  UNL     1      22.808   0.368  52.941  1.00  0.00    -0.050 Br
HETATM   19  C14 UNL     1      24.324   2.244  51.591  1.00  0.00    -0.009 A 
HETATM   20  C15 UNL     1      23.197   3.038  51.049  1.00  0.00     0.093 C 
HETATM   21  H11 UNL     1      25.332   6.877  48.915  1.00  0.00     0.154 HD
HETATM   22  H14 UNL     1      25.606   4.536  51.397  1.00  0.00     0.161 HD
ENDROOT
TORSDOF 0
ENDMDL
MODEL 5
REMARK VINA RESULT:      -7.2      3.063      4.903
REMARK  0 active torsions:
REMARK  status: ('A' for Active; 'I' for Inactive)
ROOT
HETATM    1 CL1  UNL     1      22.460   1.846  47.984  1.00  0.00    -0.089 Cl
HETATM    2  C1  UNL     1      22.850   3.471  48.601  1.00  0.00     0.014 C 
HETATM    3  C2  UNL     1      22.073   4.550  48.290  1.00  0.00     0.014 C 
HETATM    4  C3  UNL     1      21.827   6.028  48.424  1.00  0.00     0.176 C 
HETATM    5  N1  UNL     1      22.836   6.725  49.161  1.00  0.00    -0.302 NA
HETATM    6  C4  UNL     1      23.684   7.507  48.547  1.00  0.00     0.083 C 
HETATM    7  C5  UNL     1      24.844   8.439  48.559  1.00  0.00     0.048 C 
HETATM    8  C6  UNL     1      25.538   8.436  49.939  1.00  0.00     0.024 C 
HETATM    9  C7  UNL     1      25.949   6.968  50.111  1.00  0.00     0.115 C 
HETATM   10  N2  UNL     1      26.882   6.507  49.156  1.00  0.00    -0.406 N 
HETATM   11  C8  UNL     1      27.068   5.102  49.008  1.00  0.00     0.238 C 
HETATM   12  N3  UNL     1      26.399   4.418  50.072  1.00  0.00    -0.374 N 
HETATM   13  C9  UNL     1      25.833   3.255  50.713  1.00  0.00     0.037 A 
HETATM   14  C10 UNL     1      26.588   2.462  51.544  1.00  0.00     0.030 A 
HETATM   15  C11 UNL     1      26.115   1.365  52.202  1.00  0.00     0.004 A 
HETATM   16  C12 UNL     1      24.791   1.144  51.942  1.00  0.00     0.020 A 
HETATM   17  C13 UNL     1      23.986   1.899  51.126  1.00  0.00     0.019 A 
HETATM   18 BR1  UNL     1      22.134   1.555  50.915  1.00  0.00    -0.050 Br
HETATM   19  C14 UNL     1      24.450   2.993  50.462  1.00  0.00    -0.009 A 
HETATM   20  C15 UNL     1      23.881   3.961  49.495  1.00  0.00     0.093 C 
HETATM   21  H11 UNL     1      27.499   7.140  48.688  1.00  0.00     0.154 HD
HETATM   22  H14 UNL     1      26.131   4.962  50.946  1.00  0.00     0.161 HD
ENDROOT
TORSDOF 0
ENDMDL
MODEL 6
REMARK VINA RESULT:      -7.1      2.946      5.905
REMARK  0 active torsions:
REMARK  status: ('A' for Active; 'I' for Inactive)
ROOT
HETATM    1 CL1  UNL     1      19.856   2.333  52.713  1.00  0.00    -0.089 Cl
HETATM    2  C1  UNL     1      21.332   1.336  52.703  1.00  0.00     0.014 C 
HETATM    3  C2  UNL     1      21.500   0.313  53.591  1.00  0.00     0.014 C 
HETATM    4  C3  UNL     1      22.370  -0.799  54.109  1.00  0.00     0.176 C 
HETATM    5  N1  UNL     1      23.651  -0.883  53.477  1.00  0.00    -0.302 NA
HETATM    6  C4  UNL     1      24.731  -0.518  54.117  1.00  0.00     0.083 C 
HETATM    7  C5  UNL     1      26.205  -0.318  54.181  1.00  0.00     0.048 C 
HETATM    8  C6  UNL     1      26.843  -0.477  52.784  1.00  0.00     0.024 C 
HETATM    9  C7  UNL     1      26.130   0.600  51.957  1.00  0.00     0.115 C 
HETATM   10  N2  UNL     1      26.366   1.922  52.394  1.00  0.00    -0.406 N 
HETATM   11  C8  UNL     1      25.502   2.958  51.932  1.00  0.00     0.238 C 
HETATM   12  N3  UNL     1      24.667   2.450  50.887  1.00  0.00    -0.374 N 
HETATM   13  C9  UNL     1      23.524   2.488  50.005  1.00  0.00     0.037 A 
HETATM   14  C10 UNL     1      23.596   3.091  48.772  1.00  0.00     0.030 A 
HETATM   15  C11 UNL     1      22.567   3.143  47.878  1.00  0.00     0.004 A 
HETATM   16  C12 UNL     1      21.446   2.519  48.352  1.00  0.00     0.020 A 
HETATM   17  C13 UNL     1      21.315   1.899  49.569  1.00  0.00     0.019 A 
HETATM   18 BR1  UNL     1      19.739   0.977  50.081  1.00  0.00    -0.050 Br
HETATM   19  C14 UNL     1      22.334   1.845  50.469  1.00  0.00    -0.009 A 
HETATM   20  C15 UNL     1      22.501   1.321  51.845  1.00  0.00     0.093 C 
HETATM   21  H11 UNL     1      27.194   2.160  52.903  1.00  0.00     0.154 HD
HETATM   22  H14 UNL     1      24.950   1.554  50.390  1.00  0.00     0.161 HD
ENDROOT
TORSDOF 0
ENDMDL
MODEL 7
REMARK VINA RESULT:      -7.1      2.700      4.664
REMARK  0 active torsions:
REMARK  status: ('A' for Active; 'I' for Inactive)
ROOT
HETATM    1 CL1  UNL     1      23.792   4.908  52.893  1.00  0.00    -0.089 Cl
HETATM    2  C1  UNL     1      22.540   3.828  52.232  1.00  0.00     0.014 C 
HETATM    3  C2  UNL     1      21.500   4.319  51.495  1.00  0.00     0.014 C 
HETATM    4  C3  UNL     1      20.237   4.044  50.727  1.00  0.00     0.176 C 
HETATM    5  N1  UNL     1      19.822   2.675  50.753  1.00  0.00    -0.302 NA
HETATM    6  C4  UNL     1      18.785   2.310  51.462  1.00  0.00     0.083 C 
HETATM    7  C5  UNL     1      17.845   1.268  51.958  1.00  0.00     0.048 C 
HETATM    8  C6  UNL     1      18.358  -0.146  51.609  1.00  0.00     0.024 C 
HETATM    9  C7  UNL     1      19.724  -0.195  52.304  1.00  0.00     0.115 C 
HETATM   10  N2  UNL     1      19.667  -0.090  53.711  1.00  0.00    -0.406 N 
HETATM   11  C8  UNL     1      20.865   0.220  54.421  1.00  0.00     0.238 C 
HETATM   12  N3  UNL     1      21.982   0.132  53.531  1.00  0.00    -0.374 N 
HETATM   13  C9  UNL     1      23.350   0.373  53.138  1.00  0.00     0.037 A 
HETATM   14  C10 UNL     1      24.347  -0.522  53.442  1.00  0.00     0.030 A 
HETATM   15  C11 UNL     1      25.654  -0.373  53.083  1.00  0.00     0.004 A 
HETATM   16  C12 UNL     1      25.861   0.779  52.376  1.00  0.00     0.020 A 
HETATM   17  C13 UNL     1      24.909   1.709  52.040  1.00  0.00     0.019 A 
HETATM   18 BR1  UNL     1      25.294   3.225  50.970  1.00  0.00    -0.050 Br
HETATM   19  C14 UNL     1      23.603   1.571  52.398  1.00  0.00    -0.009 A 
HETATM   20  C15 UNL     1      22.375   2.387  52.250  1.00  0.00     0.093 C 
HETATM   21  H11 UNL     1      18.847  -0.356  54.218  1.00  0.00     0.154 HD
HETATM   22  H14 UNL     1      21.872  -0.402  52.618  1.00  0.00     0.161 HD
ENDROOT
TORSDOF 0
ENDMDL
MODEL 8
REMARK VINA RESULT:      -7.0      2.929      6.132
REMARK  0 active torsions:
REMARK  status: ('A' for Active; 'I' for Inactive)
ROOT
HETATM    1 CL1  UNL     1      20.433   3.775  52.038  1.00  0.00    -0.089 Cl
HETATM    2  C1  UNL     1      21.554   2.402  52.211  1.00  0.00     0.014 C 
HETATM    3  C2  UNL     1      21.127   1.197  52.691  1.00  0.00     0.014 C 
HETATM    4  C3  UNL     1      21.464  -0.219  53.069  1.00  0.00     0.176 C 
HETATM    5  N1  UNL     1      22.852  -0.544  52.945  1.00  0.00    -0.302 NA
HETATM    6  C4  UNL     1      23.595  -0.695  54.011  1.00  0.00     0.083 C 
HETATM    7  C5  UNL     1      24.903  -0.983  54.659  1.00  0.00     0.048 C 
HETATM    8  C6  UNL     1      26.042  -0.996  53.617  1.00  0.00     0.024 C 
HETATM    9  C7  UNL     1      25.972   0.413  53.016  1.00  0.00     0.115 C 
HETATM   10  N2  UNL     1      26.236   1.453  53.933  1.00  0.00    -0.406 N 
HETATM   11  C8  UNL     1      25.866   2.784  53.580  1.00  0.00     0.238 C 
HETATM   12  N3  UNL     1      25.489   2.823  52.200  1.00  0.00    -0.374 N 
HETATM   13  C9  UNL     1      24.871   3.422  51.041  1.00  0.00     0.037 A 
HETATM   14  C10 UNL     1      25.581   4.247  50.202  1.00  0.00     0.030 A 
HETATM   15  C11 UNL     1      25.071   4.826  49.077  1.00  0.00     0.004 A 
HETATM   16  C12 UNL     1      23.762   4.486  48.876  1.00  0.00     0.020 A 
HETATM   17  C13 UNL     1      23.003   3.668  49.674  1.00  0.00     0.019 A 
HETATM   18 BR1  UNL     1      21.221   3.186  49.242  1.00  0.00    -0.050 Br
HETATM   19  C14 UNL     1      23.501   3.089  50.800  1.00  0.00    -0.009 A 
HETATM   20  C15 UNL     1      22.954   2.229  51.876  1.00  0.00     0.093 C 
HETATM   21  H11 UNL     1      26.789   1.294  54.752  1.00  0.00     0.154 HD
HETATM   22  H14 UNL     1      25.788   2.028  51.562  1.00  0.00     0.161 HD
ENDROOT
TORSDOF 0
ENDMDL
MODEL 9
REMARK VINA RESULT:      -6.9      2.803      6.017
REMARK  0 active torsions:
REMARK  status: ('A' for Active; 'I' for Inactive)
ROOT
HETATM    1 CL1  UNL     1      21.989   6.072  51.587  1.00  0.00    -0.089 Cl
HETATM    2  C1  UNL     1      21.968   4.300  51.759  1.00  0.00     0.014 C 
HETATM    3  C2  UNL     1      20.815   3.632  52.057  1.00  0.00     0.014 C 
HETATM    4  C3  UNL     1      20.134   2.319  52.329  1.00  0.00     0.176 C 
HETATM    5  N1  UNL     1      21.016   1.194  52.349  1.00  0.00    -0.302 NA
HETATM    6  C4  UNL     1      21.321   0.610  53.479  1.00  0.00     0.083 C 
HETATM    7  C5  UNL     1      22.040  -0.437  54.254  1.00  0.00     0.048 C 
HETATM    8  C6  UNL     1      23.074  -1.164  53.367  1.00  0.00     0.024 C 
HETATM    9  C7  UNL     1      23.992  -0.025  52.908  1.00  0.00     0.115 C 
HETATM   10  N2  UNL     1      24.693   0.618  53.952  1.00  0.00    -0.406 N 
HETATM   11  C8  UNL     1      25.293   1.885  53.692  1.00  0.00     0.238 C 
HETATM   12  N3  UNL     1      25.250   2.152  52.287  1.00  0.00    -0.374 N 
HETATM   13  C9  UNL     1      25.335   3.006  51.126  1.00  0.00     0.037 A 
HETATM   14  C10 UNL     1      26.527   3.200  50.471  1.00  0.00     0.030 A 
HETATM   15  C11 UNL     1      26.678   3.971  49.355  1.00  0.00     0.004 A 
HETATM   16  C12 UNL     1      25.496   4.530  48.957  1.00  0.00     0.020 A 
HETATM   17  C13 UNL     1      24.276   4.372  49.566  1.00  0.00     0.019 A 
HETATM   18 BR1  UNL     1      22.680   5.119  48.867  1.00  0.00    -0.050 Br
HETATM   19  C14 UNL     1      24.117   3.608  50.682  1.00  0.00    -0.009 A 
HETATM   20  C15 UNL     1      22.990   3.284  51.588  1.00  0.00     0.093 C 
HETATM   21  H11 UNL     1      24.886   0.146  54.813  1.00  0.00     0.154 HD
HETATM   22  H14 UNL     1      25.089   1.345  51.613  1.00  0.00     0.161 HD
ENDROOT
TORSDOF 0
ENDMDL
