MODEL 1
REMARK VINA RESULT:      -9.1      0.000      0.000
REMARK  2 active torsions:
REMARK  status: ('A' for Active; 'I' for Inactive)
REMARK    1  A    between atoms: C14_18  and  C15_19 
REMARK    2  A    between atoms: C16_20  and  O1_21 
ROOT
HETATM    1  C1  UNL     1      20.355   0.623  50.318  1.00  0.00     0.068 C 
HETATM    2  C2  UNL     1      20.905   1.355  51.529  1.00  0.00     0.033 C 
HETATM    3  N1  UNL     1      20.874   2.430  50.944  1.00  0.00    -0.182 NA
HETATM    4  N2  UNL     1      21.104   3.762  50.959  1.00  0.00    -0.256 N 
HETATM    5  C3  UNL     1      22.505   3.826  50.484  1.00  0.00     0.179 C 
HETATM    6  N3  UNL     1      22.533   3.384  49.249  1.00  0.00    -0.277 NA
HETATM    7  S1  UNL     1      24.159   4.363  51.081  1.00  0.00    -0.063 SA
HETATM    8  C4  UNL     1      25.416   3.252  50.463  1.00  0.00     0.050 C 
HETATM    9  C5  UNL     1      26.010   2.331  51.235  1.00  0.00    -0.010 C 
HETATM   10  C6  UNL     1      25.954   1.888  52.595  1.00  0.00     0.041 C 
HETATM   11  C7  UNL     1      24.818   2.488  53.347  1.00  0.00     0.013 C 
HETATM   12  C8  UNL     1      23.560   1.803  52.992  1.00  0.00     0.002 C 
HETATM   13  C9  UNL     1      23.361   0.935  51.843  1.00  0.00     0.009 C 
HETATM   14  C10 UNL     1      22.469  -0.210  52.478  1.00  0.00     0.017 C 
HETATM   15  C11 UNL     1      23.454  -0.609  53.519  1.00  0.00    -0.021 C 
HETATM   16  C12 UNL     1      24.825  -0.467  53.614  1.00  0.00     0.004 C 
HETATM   17  C13 UNL     1      25.852   0.422  52.935  1.00  0.00    -0.051 C 
HETATM   18  C14 UNL     1      26.918  -0.298  52.551  1.00  0.00     0.009 C 
HETATM   19  C17 UNL     1      21.242   0.507  52.762  1.00  0.00     0.038 C 
HETATM   20  C18 UNL     1      20.858   1.076  54.040  1.00  0.00     0.017 C 
HETATM   21  H4  UNL     1      20.506   4.577  51.222  1.00  0.00     0.191 HD
HETATM   22  H5  UNL     1      23.411   3.341  48.722  1.00  0.00     0.189 HD
ENDROOT
BRANCH  18  23
HETATM   23  C15 UNL     1      27.251  -1.689  52.659  1.00  0.00     0.024 C 
HETATM   24  C16 UNL     1      28.421  -2.209  53.038  1.00  0.00     0.131 C 
BRANCH  24  25
HETATM   25  O1  UNL     1      28.519  -3.581  53.071  1.00  0.00    -0.373 OA
HETATM   26  H21 UNL     1      29.367  -4.110  53.064  1.00  0.00     0.216 HD
ENDBRANCH  24  25
ENDBRANCH  18  23
TORSDOF 2
ENDMDL
MODEL 2
REMARK VINA RESULT:      -7.7      2.818      4.853
REMARK  2 active torsions:
REMARK  status: ('A' for Active; 'I' for Inactive)
REMARK    1  A    between atoms: C14_18  and  C15_19 
REMARK    2  A    between atoms: C16_20  and  O1_21 
ROOT
HETATM    1  C1  UNL     1      23.942   6.365  51.269  1.00  0.00     0.068 C 
HETATM    2  C2  UNL     1      23.955   5.194  50.304  1.00  0.00     0.033 C 
HETATM    3  N1  UNL     1      23.101   5.713  49.598  1.00  0.00    -0.182 NA
HETATM    4  N2  UNL     1      22.313   5.651  48.502  1.00  0.00    -0.256 N 
HETATM    5  C3  UNL     1      21.105   4.987  49.043  1.00  0.00     0.179 C 
HETATM    6  N3  UNL     1      20.567   5.787  49.933  1.00  0.00    -0.277 NA
HETATM    7  S1  UNL     1      20.144   3.436  48.815  1.00  0.00    -0.063 SA
HETATM    8  C4  UNL     1      19.517   2.874  50.393  1.00  0.00     0.050 C 
HETATM    9  C5  UNL     1      20.048   1.835  51.053  1.00  0.00    -0.010 C 
HETATM   10  C6  UNL     1      21.110   0.893  50.873  1.00  0.00     0.041 C 
HETATM   11  C7  UNL     1      21.989   1.232  49.721  1.00  0.00     0.013 C 
HETATM   12  C8  UNL     1      22.915   2.319  50.094  1.00  0.00     0.002 C 
HETATM   13  C9  UNL     1      22.782   3.186  51.253  1.00  0.00     0.009 C 
HETATM   14  C10 UNL     1      24.289   3.285  51.733  1.00  0.00     0.017 C 
HETATM   15  C11 UNL     1      24.475   1.825  51.945  1.00  0.00    -0.021 C 
HETATM   16  C12 UNL     1      23.589   0.791  52.181  1.00  0.00     0.004 C 
HETATM   17  C13 UNL     1      22.095   0.605  51.980  1.00  0.00    -0.051 C 
HETATM   18  C14 UNL     1      21.539   0.050  53.068  1.00  0.00     0.009 C 
HETATM   19  C17 UNL     1      24.889   4.025  50.642  1.00  0.00     0.038 C 
HETATM   20  C18 UNL     1      25.617   3.458  49.521  1.00  0.00     0.017 C 
HETATM   21  H4  UNL     1      22.451   5.964  47.516  1.00  0.00     0.191 HD
HETATM   22  H5  UNL     1      19.715   5.523  50.436  1.00  0.00     0.189 HD
ENDROOT
BRANCH  18  23
HETATM   23  C15 UNL     1      22.071  -0.381  54.328  1.00  0.00     0.024 C 
HETATM   24  C16 UNL     1      22.404  -1.626  54.678  1.00  0.00     0.131 C 
BRANCH  24  25
HETATM   25  O1  UNL     1      22.900  -1.812  55.947  1.00  0.00    -0.373 OA
HETATM   26  H21 UNL     1      23.714  -2.339  56.189  1.00  0.00     0.216 HD
ENDBRANCH  24  25
ENDBRANCH  18  23
TORSDOF 2
ENDMDL
MODEL 3
REMARK VINA RESULT:      -7.5      2.270      4.125
REMARK  2 active torsions:
REMARK  status: ('A' for Active; 'I' for Inactive)
REMARK    1  A    between atoms: C14_18  and  C15_19 
REMARK    2  A    between atoms: C16_20  and  O1_21 
ROOT
HETATM    1  C1  UNL     1      21.419   5.868  50.640  1.00  0.00     0.068 C 
HETATM    2  C2  UNL     1      21.528   4.493  50.008  1.00  0.00     0.033 C 
HETATM    3  N1  UNL     1      20.331   4.285  50.155  1.00  0.00    -0.182 NA
HETATM    4  N2  UNL     1      19.274   3.457  50.003  1.00  0.00    -0.256 N 
HETATM    5  C3  UNL     1      19.306   2.699  51.276  1.00  0.00     0.179 C 
HETATM    6  N3  UNL     1      19.074   3.543  52.254  1.00  0.00    -0.277 NA
HETATM    7  S1  UNL     1      19.531   0.974  51.868  1.00  0.00    -0.063 SA
HETATM    8  C4  UNL     1      20.445   0.974  53.404  1.00  0.00     0.050 C 
HETATM    9  C5  UNL     1      21.736   0.616  53.477  1.00  0.00    -0.010 C 
HETATM   10  C6  UNL     1      22.765   0.166  52.591  1.00  0.00     0.041 C 
HETATM   11  C7  UNL     1      22.373   0.266  51.159  1.00  0.00     0.013 C 
HETATM   12  C8  UNL     1      22.483   1.664  50.700  1.00  0.00     0.002 C 
HETATM   13  C9  UNL     1      22.599   2.832  51.558  1.00  0.00     0.009 C 
HETATM   14  C10 UNL     1      23.669   3.688  50.763  1.00  0.00     0.017 C 
HETATM   15  C11 UNL     1      24.743   2.661  50.800  1.00  0.00    -0.021 C 
HETATM   16  C12 UNL     1      24.985   1.589  51.636  1.00  0.00     0.004 C 
HETATM   17  C13 UNL     1      24.140   0.788  52.612  1.00  0.00    -0.051 C 
HETATM   18  C14 UNL     1      24.799   0.605  53.767  1.00  0.00     0.009 C 
HETATM   19  C17 UNL     1      22.926   4.037  49.569  1.00  0.00     0.038 C 
HETATM   20  C18 UNL     1      22.991   3.355  48.290  1.00  0.00     0.017 C 
HETATM   21  H4  UNL     1      18.583   3.330  49.231  1.00  0.00     0.191 HD
HETATM   22  H5  UNL     1      19.051   3.229  53.229  1.00  0.00     0.189 HD
ENDROOT
BRANCH  18  23
HETATM   23  C15 UNL     1      26.095   1.008  54.229  1.00  0.00     0.024 C 
HETATM   24  C16 UNL     1      27.086   0.212  54.639  1.00  0.00     0.131 C 
BRANCH  24  25
HETATM   25  O1  UNL     1      28.254   0.818  55.042  1.00  0.00    -0.373 OA
HETATM   26  H21 UNL     1      29.172   0.608  54.706  1.00  0.00     0.216 HD
ENDBRANCH  24  25
ENDBRANCH  18  23
TORSDOF 2
ENDMDL
MODEL 4
REMARK VINA RESULT:      -7.5      3.494      5.780
REMARK  2 active torsions:
REMARK  status: ('A' for Active; 'I' for Inactive)
REMARK    1  A    between atoms: C14_18  and  C15_19 
REMARK    2  A    between atoms: C16_20  and  O1_21 
ROOT
HETATM    1  C1  UNL     1      23.780   5.517  52.120  1.00  0.00     0.068 C 
HETATM    2  C2  UNL     1      24.051   4.344  51.195  1.00  0.00     0.033 C 
HETATM    3  N1  UNL     1      23.961   5.054  50.202  1.00  0.00    -0.182 NA
HETATM    4  N2  UNL     1      23.997   5.169  48.856  1.00  0.00    -0.256 N 
HETATM    5  C3  UNL     1      22.582   4.918  48.499  1.00  0.00     0.179 C 
HETATM    6  N3  UNL     1      21.858   5.887  49.009  1.00  0.00    -0.277 NA
HETATM    7  S1  UNL     1      21.575   3.708  47.548  1.00  0.00    -0.063 SA
HETATM    8  C4  UNL     1      20.013   3.439  48.375  1.00  0.00     0.050 C 
HETATM    9  C5  UNL     1      19.747   2.325  49.073  1.00  0.00    -0.010 C 
HETATM   10  C6  UNL     1      20.410   1.105  49.418  1.00  0.00     0.041 C 
HETATM   11  C7  UNL     1      21.851   1.110  49.050  1.00  0.00     0.013 C 
HETATM   12  C8  UNL     1      22.622   1.896  50.034  1.00  0.00     0.002 C 
HETATM   13  C9  UNL     1      22.063   2.823  51.004  1.00  0.00     0.009 C 
HETATM   14  C10 UNL     1      22.947   2.499  52.278  1.00  0.00     0.017 C 
HETATM   15  C11 UNL     1      22.575   1.061  52.360  1.00  0.00    -0.021 C 
HETATM   16  C12 UNL     1      21.487   0.348  51.894  1.00  0.00     0.004 C 
HETATM   17  C13 UNL     1      20.423   0.598  50.840  1.00  0.00    -0.051 C 
HETATM   18  C14 UNL     1      19.206   0.289  51.316  1.00  0.00     0.009 C 
HETATM   19  C17 UNL     1      24.249   2.972  51.851  1.00  0.00     0.038 C 
HETATM   20  C18 UNL     1      25.316   2.159  51.297  1.00  0.00     0.017 C 
HETATM   21  H4  UNL     1      24.772   5.376  48.187  1.00  0.00     0.191 HD
HETATM   22  H5  UNL     1      20.842   5.911  48.882  1.00  0.00     0.189 HD
ENDROOT
BRANCH  18  23
HETATM   23  C15 UNL     1      18.747  -0.213  52.578  1.00  0.00     0.024 C 
HETATM   24  C16 UNL     1      17.766  -1.095  52.785  1.00  0.00     0.131 C 
BRANCH  24  25
HETATM   25  O1  UNL     1      17.491  -1.437  54.089  1.00  0.00    -0.373 OA
HETATM   26  H21 UNL     1      16.727  -1.100  54.637  1.00  0.00     0.216 HD
ENDBRANCH  24  25
ENDBRANCH  18  23
TORSDOF 2
ENDMDL
MODEL 5
REMARK VINA RESULT:      -7.4      2.969      4.544
REMARK  2 active torsions:
REMARK  status: ('A' for Active; 'I' for Inactive)
REMARK    1  A    between atoms: C14_18  and  C15_19 
REMARK    2  A    between atoms: C16_20  and  O1_21 
ROOT
HETATM    1  C1  UNL     1      23.368   4.285  48.393  1.00  0.00     0.068 C 
HETATM    2  C2  UNL     1      23.698   4.562  49.848  1.00  0.00     0.033 C 
HETATM    3  N1  UNL     1      24.894   4.644  49.604  1.00  0.00    -0.182 NA
HETATM    4  N2  UNL     1      26.155   4.843  50.051  1.00  0.00    -0.256 N 
HETATM    5  C3  UNL     1      26.572   3.462  50.385  1.00  0.00     0.179 C 
HETATM    6  N3  UNL     1      26.599   2.768  49.271  1.00  0.00    -0.277 NA
HETATM    7  S1  UNL     1      27.086   2.474  51.847  1.00  0.00    -0.063 SA
HETATM    8  C4  UNL     1      26.445   0.811  51.710  1.00  0.00     0.050 C 
HETATM    9  C5  UNL     1      25.402   0.376  52.432  1.00  0.00    -0.010 C 
HETATM   10  C6  UNL     1      24.509   0.891  53.424  1.00  0.00     0.041 C 
HETATM   11  C7  UNL     1      24.645   2.361  53.611  1.00  0.00     0.013 C 
HETATM   12  C8  UNL     1      23.964   3.076  52.515  1.00  0.00     0.002 C 
HETATM   13  C9  UNL     1      23.535   2.489  51.257  1.00  0.00     0.009 C 
HETATM   14  C10 UNL     1      22.129   3.193  51.057  1.00  0.00     0.017 C 
HETATM   15  C11 UNL     1      21.529   2.695  52.324  1.00  0.00    -0.021 C 
HETATM   16  C12 UNL     1      21.814   1.613  53.134  1.00  0.00     0.004 C 
HETATM   17  C13 UNL     1      23.016   0.700  53.305  1.00  0.00    -0.051 C 
HETATM   18  C14 UNL     1      22.629  -0.585  53.358  1.00  0.00     0.009 C 
HETATM   19  C17 UNL     1      22.526   4.569  50.839  1.00  0.00     0.038 C 
HETATM   20  C18 UNL     1      22.554   5.621  51.837  1.00  0.00     0.017 C 
HETATM   21  H4  UNL     1      26.737   5.703  50.158  1.00  0.00     0.191 HD
HETATM   22  H5  UNL     1      26.864   1.778  49.271  1.00  0.00     0.189 HD
ENDROOT
BRANCH  18  23
HETATM   23  C15 UNL     1      21.348  -1.225  53.286  1.00  0.00     0.024 C 
HETATM   24  C16 UNL     1      20.525  -1.494  54.302  1.00  0.00     0.131 C 
BRANCH  24  25
HETATM   25  O1  UNL     1      19.336  -2.118  54.001  1.00  0.00    -0.373 OA
HETATM   26  H21 UNL     1      19.147  -3.095  54.090  1.00  0.00     0.216 HD
ENDBRANCH  24  25
ENDBRANCH  18  23
TORSDOF 2
ENDMDL
MODEL 6
REMARK VINA RESULT:      -7.0      2.301      3.645
REMARK  2 active torsions:
REMARK  status: ('A' for Active; 'I' for Inactive)
REMARK    1  A    between atoms: C14_18  and  C15_19 
REMARK    2  A    between atoms: C16_20  and  O1_21 
ROOT
HETATM    1  C1  UNL     1      21.918   3.233  46.558  1.00  0.00     0.068 C 
HETATM    2  C2  UNL     1      21.081   3.417  47.811  1.00  0.00     0.033 C 
HETATM    3  N1  UNL     1      21.090   4.634  47.688  1.00  0.00    -0.182 NA
HETATM    4  N2  UNL     1      20.716   5.847  48.154  1.00  0.00    -0.256 N 
HETATM    5  C3  UNL     1      21.846   6.180  49.051  1.00  0.00     0.179 C 
HETATM    6  N3  UNL     1      22.925   6.300  48.315  1.00  0.00    -0.277 NA
HETATM    7  S1  UNL     1      22.165   6.504  50.832  1.00  0.00    -0.063 SA
HETATM    8  C4  UNL     1      23.753   5.825  51.296  1.00  0.00     0.050 C 
HETATM    9  C5  UNL     1      23.877   4.698  52.012  1.00  0.00    -0.010 C 
HETATM   10  C6  UNL     1      23.020   3.723  52.614  1.00  0.00     0.041 C 
HETATM   11  C7  UNL     1      21.595   3.889  52.218  1.00  0.00     0.013 C 
HETATM   12  C8  UNL     1      21.382   3.350  50.860  1.00  0.00     0.002 C 
HETATM   13  C9  UNL     1      22.426   3.036  49.898  1.00  0.00     0.009 C 
HETATM   14  C10 UNL     1      21.875   1.684  49.283  1.00  0.00     0.017 C 
HETATM   15  C11 UNL     1      21.834   0.938  50.569  1.00  0.00    -0.021 C 
HETATM   16  C12 UNL     1      22.503   1.100  51.768  1.00  0.00     0.004 C 
HETATM   17  C13 UNL     1      23.259   2.246  52.417  1.00  0.00    -0.051 C 
HETATM   18  C14 UNL     1      24.421   1.813  52.932  1.00  0.00     0.009 C 
HETATM   19  C17 UNL     1      20.694   2.148  48.583  1.00  0.00     0.038 C 
HETATM   20  C18 UNL     1      19.332   2.106  49.079  1.00  0.00     0.017 C 
HETATM   21  H4  UNL     1      19.877   6.442  47.975  1.00  0.00     0.191 HD
HETATM   22  H5  UNL     1      23.830   6.530  48.736  1.00  0.00     0.189 HD
ENDROOT
BRANCH  18  23
HETATM   23  C15 UNL     1      25.051   0.525  52.979  1.00  0.00     0.024 C 
HETATM   24  C16 UNL     1      25.713  -0.009  54.008  1.00  0.00     0.131 C 
BRANCH  24  25
HETATM   25  O1  UNL     1      26.240  -1.267  53.832  1.00  0.00    -0.373 OA
HETATM   26  H21 UNL     1      25.879  -1.977  53.229  1.00  0.00     0.216 HD
ENDBRANCH  24  25
ENDBRANCH  18  23
TORSDOF 2
ENDMDL
MODEL 7
REMARK VINA RESULT:      -6.9      6.769      9.706
REMARK  2 active torsions:
REMARK  status: ('A' for Active; 'I' for Inactive)
REMARK    1  A    between atoms: C14_18  and  C15_19 
REMARK    2  A    between atoms: C16_20  and  O1_21 
ROOT
HETATM    1  C1  UNL     1      31.236   9.887  49.694  1.00  0.00     0.068 C 
HETATM    2  C2  UNL     1      30.537   9.533  48.395  1.00  0.00     0.033 C 
HETATM    3  N1  UNL     1      29.991  10.627  48.342  1.00  0.00    -0.182 NA
HETATM    4  N2  UNL     1      29.160  11.475  47.697  1.00  0.00    -0.256 N 
HETATM    5  C3  UNL     1      27.854  11.132  48.307  1.00  0.00     0.179 C 
HETATM    6  N3  UNL     1      27.909  11.446  49.581  1.00  0.00    -0.277 NA
HETATM    7  S1  UNL     1      26.218  10.454  47.815  1.00  0.00    -0.063 SA
HETATM    8  C4  UNL     1      25.582   9.404  49.115  1.00  0.00     0.050 C 
HETATM    9  C5  UNL     1      25.582   8.066  49.028  1.00  0.00    -0.010 C 
HETATM   10  C6  UNL     1      25.985   7.062  48.091  1.00  0.00     0.041 C 
HETATM   11  C7  UNL     1      26.772   7.619  46.957  1.00  0.00     0.013 C 
HETATM   12  C8  UNL     1      28.159   7.884  47.387  1.00  0.00     0.002 C 
HETATM   13  C9  UNL     1      28.623   7.948  48.763  1.00  0.00     0.009 C 
HETATM   14  C10 UNL     1      30.014   7.196  48.649  1.00  0.00     0.017 C 
HETATM   15  C11 UNL     1      29.453   5.917  48.139  1.00  0.00    -0.021 C 
HETATM   16  C12 UNL     1      28.198   5.345  48.222  1.00  0.00     0.004 C 
HETATM   17  C13 UNL     1      26.806   5.873  48.525  1.00  0.00    -0.051 C 
HETATM   18  C14 UNL     1      26.176   5.069  49.397  1.00  0.00     0.009 C 
HETATM   19  C17 UNL     1      30.775   8.124  47.837  1.00  0.00     0.038 C 
HETATM   20  C18 UNL     1      30.975   8.042  46.402  1.00  0.00     0.017 C 
HETATM   21  H4  UNL     1      29.322  12.198  46.961  1.00  0.00     0.191 HD
HETATM   22  H5  UNL     1      27.107  11.290  50.198  1.00  0.00     0.189 HD
ENDROOT
BRANCH  18  23
HETATM   23  C15 UNL     1      26.557   3.858  50.064  1.00  0.00     0.024 C 
HETATM   24  C16 UNL     1      25.804   3.120  50.882  1.00  0.00     0.131 C 
BRANCH  24  25
HETATM   25  O1  UNL     1      26.377   1.987  51.414  1.00  0.00    -0.373 OA
HETATM   26  H21 UNL     1      26.892   1.296  50.909  1.00  0.00     0.216 HD
ENDBRANCH  24  25
ENDBRANCH  18  23
TORSDOF 2
ENDMDL
MODEL 8
REMARK VINA RESULT:      -6.9      3.894      5.493
REMARK  2 active torsions:
REMARK  status: ('A' for Active; 'I' for Inactive)
REMARK    1  A    between atoms: C14_18  and  C15_19 
REMARK    2  A    between atoms: C16_20  and  O1_21 
ROOT
HETATM    1  C1  UNL     1      21.543   1.783  48.184  1.00  0.00     0.068 C 
HETATM    2  C2  UNL     1      21.760   2.748  49.335  1.00  0.00     0.033 C 
HETATM    3  N1  UNL     1      20.824   3.450  48.977  1.00  0.00    -0.182 NA
HETATM    4  N2  UNL     1      20.061   4.548  49.173  1.00  0.00    -0.256 N 
HETATM    5  C3  UNL     1      20.799   5.566  48.391  1.00  0.00     0.179 C 
HETATM    6  N3  UNL     1      20.756   5.214  47.127  1.00  0.00    -0.277 NA
HETATM    7  S1  UNL     1      21.697   7.148  48.655  1.00  0.00    -0.063 SA
HETATM    8  C4  UNL     1      23.109   7.232  47.561  1.00  0.00     0.050 C 
HETATM    9  C5  UNL     1      24.367   7.048  47.989  1.00  0.00    -0.010 C 
HETATM   10  C6  UNL     1      25.039   6.766  49.220  1.00  0.00     0.041 C 
HETATM   11  C7  UNL     1      24.100   6.416  50.320  1.00  0.00     0.013 C 
HETATM   12  C8  UNL     1      23.637   5.023  50.165  1.00  0.00     0.002 C 
HETATM   13  C9  UNL     1      23.763   4.216  48.963  1.00  0.00     0.009 C 
HETATM   14  C10 UNL     1      24.154   2.810  49.582  1.00  0.00     0.017 C 
HETATM   15  C11 UNL     1      25.389   3.283  50.263  1.00  0.00    -0.021 C 
HETATM   16  C12 UNL     1      26.224   4.362  50.047  1.00  0.00     0.004 C 
HETATM   17  C13 UNL     1      26.086   5.682  49.308  1.00  0.00    -0.051 C 
HETATM   18  C14 UNL     1      27.172   5.916  48.554  1.00  0.00     0.009 C 
HETATM   19  C17 UNL     1      22.934   2.454  50.278  1.00  0.00     0.038 C 
HETATM   20  C18 UNL     1      22.668   2.645  51.691  1.00  0.00     0.017 C 
HETATM   21  H4  UNL     1      19.182   4.708  49.714  1.00  0.00     0.191 HD
HETATM   22  H5  UNL     1      21.208   5.782  46.405  1.00  0.00     0.189 HD
ENDROOT
BRANCH  18  23
HETATM   23  C15 UNL     1      28.384   5.183  48.329  1.00  0.00     0.024 C 
HETATM   24  C16 UNL     1      29.592   5.687  48.068  1.00  0.00     0.131 C 
BRANCH  24  25
HETATM   25  O1  UNL     1      30.622   4.793  47.885  1.00  0.00    -0.373 OA
HETATM   26  H21 UNL     1      30.526   3.811  47.728  1.00  0.00     0.216 HD
ENDBRANCH  24  25
ENDBRANCH  18  23
TORSDOF 2
ENDMDL
MODEL 9
REMARK VINA RESULT:      -6.8     10.737     13.410
REMARK  2 active torsions:
REMARK  status: ('A' for Active; 'I' for Inactive)
REMARK    1  A    between atoms: C14_18  and  C15_19 
REMARK    2  A    between atoms: C16_20  and  O1_21 
ROOT
HETATM    1  C1  UNL     1      32.809   7.202  42.743  1.00  0.00     0.068 C 
HETATM    2  C2  UNL     1      33.811   7.395  43.866  1.00  0.00     0.033 C 
HETATM    3  N1  UNL     1      34.143   6.218  43.827  1.00  0.00    -0.182 NA
HETATM    4  N2  UNL     1      34.910   5.216  44.313  1.00  0.00    -0.256 N 
HETATM    5  C3  UNL     1      34.047   4.678  45.389  1.00  0.00     0.179 C 
HETATM    6  N3  UNL     1      32.967   4.182  44.832  1.00  0.00    -0.277 NA
HETATM    7  S1  UNL     1      34.058   4.471  47.216  1.00  0.00    -0.063 SA
HETATM    8  C4  UNL     1      32.412   4.723  47.865  1.00  0.00     0.050 C 
HETATM    9  C5  UNL     1      32.054   5.841  48.514  1.00  0.00    -0.010 C 
HETATM   10  C6  UNL     1      32.656   7.076  48.914  1.00  0.00     0.041 C 
HETATM   11  C7  UNL     1      34.007   7.274  48.322  1.00  0.00     0.013 C 
HETATM   12  C8  UNL     1      33.884   7.702  46.914  1.00  0.00     0.002 C 
HETATM   13  C9  UNL     1      32.683   7.606  46.101  1.00  0.00     0.009 C 
HETATM   14  C10 UNL     1      32.734   8.984  45.321  1.00  0.00     0.017 C 
HETATM   15  C11 UNL     1      32.714   9.845  46.533  1.00  0.00    -0.021 C 
HETATM   16  C12 UNL     1      32.276   9.632  47.826  1.00  0.00     0.004 C 
HETATM   17  C13 UNL     1      31.974   8.397  48.657  1.00  0.00    -0.051 C 
HETATM   18  C14 UNL     1      30.809   8.540  49.309  1.00  0.00     0.009 C 
HETATM   19  C17 UNL     1      33.902   8.797  44.484  1.00  0.00     0.038 C 
HETATM   20  C18 UNL     1      35.244   9.272  44.767  1.00  0.00     0.017 C 
HETATM   21  H4  UNL     1      35.857   4.863  44.051  1.00  0.00     0.191 HD
HETATM   22  H5  UNL     1      32.228   3.755  45.398  1.00  0.00     0.189 HD
ENDROOT
BRANCH  18  23
HETATM   23  C15 UNL     1      29.841   9.597  49.363  1.00  0.00     0.024 C 
HETATM   24  C16 UNL     1      28.547   9.487  49.675  1.00  0.00     0.131 C 
BRANCH  24  25
HETATM   25  O1  UNL     1      27.798  10.641  49.666  1.00  0.00    -0.373 OA
HETATM   26  H21 UNL     1      27.752  11.306  48.921  1.00  0.00     0.216 HD
ENDBRANCH  24  25
ENDBRANCH  18  23
TORSDOF 2
ENDMDL
