MODEL 1
REMARK VINA RESULT:      -7.3      0.000      0.000
REMARK  4 active torsions:
REMARK  status: ('A' for Active; 'I' for Inactive)
REMARK    1  A    between atoms: O1_2  and  C2_3 
REMARK    2  A    between atoms: C5_8  and  N3_9 
REMARK    3  A    between atoms: N3_9  and  C7_11 
REMARK    4  A    between atoms: C15_19  and  O2_20 
ROOT
HETATM    1  C2  UNL     1      23.456   2.267  50.989  1.00  0.00     0.106 A 
HETATM    2  C3  UNL     1      22.541   1.672  51.772  1.00  0.00     0.078 A 
HETATM    3  N1  UNL     1      21.194   1.435  52.167  1.00  0.00    -0.348 N 
HETATM    4  C4  UNL     1      20.975   0.536  53.252  1.00  0.00     0.210 A 
HETATM    5  N2  UNL     1      21.994  -0.018  53.823  1.00  0.00    -0.226 NA
HETATM    6  C5  UNL     1      23.346   0.209  53.438  1.00  0.00     0.142 A 
HETATM    7  C14 UNL     1      23.662   1.022  52.448  1.00  0.00     0.052 A 
HETATM    8  C15 UNL     1      24.668   1.657  51.611  1.00  0.00     0.219 A 
HETATM    9  H4  UNL     1      20.396   1.902  51.682  1.00  0.00     0.167 HD
ENDROOT
BRANCH   6  10
HETATM   10  N3  UNL     1      24.258  -0.514  54.218  1.00  0.00    -0.336 N 
HETATM   11  C6  UNL     1      23.739  -1.324  55.320  1.00  0.00     0.158 C 
BRANCH  10  12
HETATM   12  C7  UNL     1      25.656  -0.530  54.032  1.00  0.00     0.035 A 
HETATM   13  C8  UNL     1      26.455   0.233  54.848  1.00  0.00     0.030 A 
HETATM   14  C9  UNL     1      27.849   0.254  54.706  1.00  0.00     0.009 A 
HETATM   15  C10 UNL     1      28.449  -0.507  53.724  1.00  0.00    -0.062 A 
HETATM   16  C11 UNL     1      29.941  -0.514  53.538  1.00  0.00     0.048 C 
HETATM   17  C12 UNL     1      27.669  -1.297  52.874  1.00  0.00     0.009 A 
HETATM   18  C13 UNL     1      26.308  -1.268  53.070  1.00  0.00     0.030 A 
ENDBRANCH  10  12
ENDBRANCH   6  10
BRANCH   8  19
HETATM   19  O2  UNL     1      25.535   2.551  52.199  1.00  0.00    -0.379 OA
HETATM   20  C16 UNL     1      26.809   2.245  51.666  1.00  0.00     0.202 C 
ENDBRANCH   8  19
BRANCH   1  21
HETATM   21  O1  UNL     1      23.241   3.163  49.944  1.00  0.00    -0.355 OA
HETATM   22  C1  UNL     1      24.177   4.130  49.544  1.00  0.00     0.209 C 
ENDBRANCH   1  21
TORSDOF 4
ENDMDL
MODEL 2
REMARK VINA RESULT:      -7.1      1.656      5.182
REMARK  4 active torsions:
REMARK  status: ('A' for Active; 'I' for Inactive)
REMARK    1  A    between atoms: O1_2  and  C2_3 
REMARK    2  A    between atoms: C5_8  and  N3_9 
REMARK    3  A    between atoms: N3_9  and  C7_11 
REMARK    4  A    between atoms: C15_19  and  O2_20 
ROOT
HETATM    1  C2  UNL     1      26.501  -0.081  54.400  1.00  0.00     0.106 A 
HETATM    2  C3  UNL     1      25.339  -0.616  54.807  1.00  0.00     0.078 A 
HETATM    3  N1  UNL     1      24.580  -1.461  55.666  1.00  0.00    -0.348 N 
HETATM    4  C4  UNL     1      23.172  -1.521  55.456  1.00  0.00     0.210 A 
HETATM    5  N2  UNL     1      22.649  -0.814  54.508  1.00  0.00    -0.226 NA
HETATM    6  C5  UNL     1      23.393   0.037  53.642  1.00  0.00     0.142 A 
HETATM    7  C14 UNL     1      24.703   0.166  53.748  1.00  0.00     0.052 A 
HETATM    8  C15 UNL     1      25.951   0.755  53.292  1.00  0.00     0.219 A 
HETATM    9  H4  UNL     1      25.039  -2.019  56.421  1.00  0.00     0.167 HD
ENDROOT
BRANCH   6  10
HETATM   10  N3  UNL     1      22.586   0.690  52.702  1.00  0.00    -0.336 N 
HETATM   11  C6  UNL     1      21.236   0.176  52.470  1.00  0.00     0.158 C 
BRANCH  10  12
HETATM   12  C7  UNL     1      22.966   1.818  51.946  1.00  0.00     0.035 A 
HETATM   13  C8  UNL     1      23.069   1.712  50.580  1.00  0.00     0.030 A 
HETATM   14  C9  UNL     1      23.443   2.802  49.782  1.00  0.00     0.009 A 
HETATM   15  C10 UNL     1      23.717   4.019  50.369  1.00  0.00    -0.062 A 
HETATM   16  C11 UNL     1      24.121   5.213  49.549  1.00  0.00     0.048 C 
HETATM   17  C12 UNL     1      23.623   4.166  51.756  1.00  0.00     0.009 A 
HETATM   18  C13 UNL     1      23.251   3.055  52.477  1.00  0.00     0.030 A 
ENDBRANCH  10  12
ENDBRANCH   6  10
BRANCH   8  19
HETATM   19  O2  UNL     1      26.405   0.427  52.033  1.00  0.00    -0.379 OA
HETATM   20  C16 UNL     1      26.716   1.659  51.413  1.00  0.00     0.202 C 
ENDBRANCH   8  19
BRANCH   1  21
HETATM   21  O1  UNL     1      27.775  -0.301  54.916  1.00  0.00    -0.355 OA
HETATM   22  C1  UNL     1      28.901   0.462  54.563  1.00  0.00     0.209 C 
ENDBRANCH   1  21
TORSDOF 4
ENDMDL
MODEL 3
REMARK VINA RESULT:      -6.9      2.013      3.515
REMARK  4 active torsions:
REMARK  status: ('A' for Active; 'I' for Inactive)
REMARK    1  A    between atoms: O1_2  and  C2_3 
REMARK    2  A    between atoms: C5_8  and  N3_9 
REMARK    3  A    between atoms: N3_9  and  C7_11 
REMARK    4  A    between atoms: C15_19  and  O2_20 
ROOT
HETATM    1  C2  UNL     1      20.316   0.014  52.631  1.00  0.00     0.106 A 
HETATM    2  C3  UNL     1      21.092  -0.594  53.542  1.00  0.00     0.078 A 
HETATM    3  N1  UNL     1      21.295  -1.547  54.581  1.00  0.00    -0.348 N 
HETATM    4  C4  UNL     1      22.595  -1.625  55.158  1.00  0.00     0.210 A 
HETATM    5  N2  UNL     1      23.524  -0.839  54.720  1.00  0.00    -0.226 NA
HETATM    6  C5  UNL     1      23.338   0.117  53.682  1.00  0.00     0.142 A 
HETATM    7  C14 UNL     1      22.174   0.274  53.080  1.00  0.00     0.052 A 
HETATM    8  C15 UNL     1      21.349   0.945  52.087  1.00  0.00     0.219 A 
HETATM    9  H4  UNL     1      20.519  -2.164  54.909  1.00  0.00     0.167 HD
ENDROOT
BRANCH   6  10
HETATM   10  N3  UNL     1      24.504   0.841  53.398  1.00  0.00    -0.336 N 
HETATM   11  C6  UNL     1      24.372   2.247  53.018  1.00  0.00     0.158 C 
BRANCH  10  12
HETATM   12  C7  UNL     1      25.815   0.324  53.449  1.00  0.00     0.035 A 
HETATM   13  C8  UNL     1      26.687   0.788  54.404  1.00  0.00     0.030 A 
HETATM   14  C9  UNL     1      28.001   0.310  54.498  1.00  0.00     0.009 A 
HETATM   15  C10 UNL     1      28.444  -0.653  53.616  1.00  0.00    -0.062 A 
HETATM   16  C11 UNL     1      29.846  -1.193  53.683  1.00  0.00     0.048 C 
HETATM   17  C12 UNL     1      27.586  -1.150  52.630  1.00  0.00     0.009 A 
HETATM   18  C13 UNL     1      26.311  -0.635  52.595  1.00  0.00     0.030 A 
ENDBRANCH  10  12
ENDBRANCH   6  10
BRANCH   8  19
HETATM   19  O2  UNL     1      21.078   2.284  52.263  1.00  0.00    -0.379 OA
HETATM   20  C16 UNL     1      21.269   2.875  50.993  1.00  0.00     0.202 C 
ENDBRANCH   8  19
BRANCH   1  21
HETATM   21  O1  UNL     1      18.972  -0.221  52.354  1.00  0.00    -0.355 OA
HETATM   22  C1  UNL     1      18.164  -1.095  53.101  1.00  0.00     0.209 C 
ENDBRANCH   1  21
TORSDOF 4
ENDMDL
MODEL 4
REMARK VINA RESULT:      -6.7      2.182      3.279
REMARK  4 active torsions:
REMARK  status: ('A' for Active; 'I' for Inactive)
REMARK    1  A    between atoms: O1_2  and  C2_3 
REMARK    2  A    between atoms: C5_8  and  N3_9 
REMARK    3  A    between atoms: N3_9  and  C7_11 
REMARK    4  A    between atoms: C15_19  and  O2_20 
ROOT
HETATM    1  C2  UNL     1      20.541   2.538  52.500  1.00  0.00     0.106 A 
HETATM    2  C3  UNL     1      21.815   2.906  52.287  1.00  0.00     0.078 A 
HETATM    3  N1  UNL     1      22.791   3.829  51.815  1.00  0.00    -0.348 N 
HETATM    4  C4  UNL     1      24.162   3.465  51.950  1.00  0.00     0.210 A 
HETATM    5  N2  UNL     1      24.457   2.327  52.489  1.00  0.00    -0.226 NA
HETATM    6  C5  UNL     1      23.494   1.394  52.966  1.00  0.00     0.142 A 
HETATM    7  C14 UNL     1      22.197   1.631  52.889  1.00  0.00     0.052 A 
HETATM    8  C15 UNL     1      20.824   1.214  53.129  1.00  0.00     0.219 A 
HETATM    9  H4  UNL     1      22.513   4.739  51.384  1.00  0.00     0.167 HD
ENDROOT
BRANCH   6  10
HETATM   10  N3  UNL     1      24.079   0.240  53.504  1.00  0.00    -0.336 N 
HETATM   11  C6  UNL     1      23.201  -0.781  54.075  1.00  0.00     0.158 C 
BRANCH  10  12
HETATM   12  C7  UNL     1      25.463  -0.029  53.543  1.00  0.00     0.035 A 
HETATM   13  C8  UNL     1      26.218   0.470  54.577  1.00  0.00     0.030 A 
HETATM   14  C9  UNL     1      27.596   0.234  54.665  1.00  0.00     0.009 A 
HETATM   15  C10 UNL     1      28.226  -0.518  53.694  1.00  0.00    -0.062 A 
HETATM   16  C11 UNL     1      29.702  -0.795  53.751  1.00  0.00     0.048 C 
HETATM   17  C12 UNL     1      27.491  -1.042  52.627  1.00  0.00     0.009 A 
HETATM   18  C13 UNL     1      26.143  -0.770  52.604  1.00  0.00     0.030 A 
ENDBRANCH  10  12
ENDBRANCH   6  10
BRANCH   8  19
HETATM   19  O2  UNL     1      20.344   0.125  52.435  1.00  0.00    -0.379 OA
HETATM   20  C16 UNL     1      19.531  -0.576  53.356  1.00  0.00     0.202 C 
ENDBRANCH   8  19
BRANCH   1  21
HETATM   21  O1  UNL     1      19.380   3.245  52.194  1.00  0.00    -0.355 OA
HETATM   22  C1  UNL     1      19.165   3.892  50.966  1.00  0.00     0.209 C 
ENDBRANCH   1  21
TORSDOF 4
ENDMDL
MODEL 5
REMARK VINA RESULT:      -6.6      2.783      6.193
REMARK  4 active torsions:
REMARK  status: ('A' for Active; 'I' for Inactive)
REMARK    1  A    between atoms: O1_2  and  C2_3 
REMARK    2  A    between atoms: C5_8  and  N3_9 
REMARK    3  A    between atoms: N3_9  and  C7_11 
REMARK    4  A    between atoms: C15_19  and  O2_20 
ROOT
HETATM    1  C2  UNL     1      26.696   2.181  51.696  1.00  0.00     0.106 A 
HETATM    2  C3  UNL     1      26.478   3.182  50.829  1.00  0.00     0.078 A 
HETATM    3  N1  UNL     1      26.925   4.289  50.053  1.00  0.00    -0.348 N 
HETATM    4  C4  UNL     1      25.961   4.963  49.249  1.00  0.00     0.210 A 
HETATM    5  N2  UNL     1      24.736   4.546  49.258  1.00  0.00    -0.226 NA
HETATM    6  C5  UNL     1      24.274   3.441  50.026  1.00  0.00     0.142 A 
HETATM    7  C14 UNL     1      25.082   2.747  50.805  1.00  0.00     0.052 A 
HETATM    8  C15 UNL     1      25.299   1.658  51.745  1.00  0.00     0.219 A 
HETATM    9  H4  UNL     1      27.923   4.597  50.073  1.00  0.00     0.167 HD
ENDROOT
BRANCH   6  10
HETATM   10  N3  UNL     1      22.905   3.199  49.855  1.00  0.00    -0.336 N 
HETATM   11  C6  UNL     1      22.220   3.848  48.737  1.00  0.00     0.158 C 
BRANCH  10  12
HETATM   12  C7  UNL     1      22.115   2.369  50.678  1.00  0.00     0.035 A 
HETATM   13  C8  UNL     1      21.876   1.071  50.297  1.00  0.00     0.030 A 
HETATM   14  C9  UNL     1      21.098   0.205  51.077  1.00  0.00     0.009 A 
HETATM   15  C10 UNL     1      20.551   0.653  52.261  1.00  0.00    -0.062 A 
HETATM   16  C11 UNL     1      19.711  -0.244  53.127  1.00  0.00     0.048 C 
HETATM   17  C12 UNL     1      20.772   1.968  52.682  1.00  0.00     0.009 A 
HETATM   18  C13 UNL     1      21.544   2.763  51.867  1.00  0.00     0.030 A 
ENDBRANCH  10  12
ENDBRANCH   6  10
BRANCH   8  19
HETATM   19  O2  UNL     1      24.691   1.731  52.979  1.00  0.00    -0.379 OA
HETATM   20  C16 UNL     1      24.208   0.428  53.237  1.00  0.00     0.202 C 
ENDBRANCH   8  19
BRANCH   1  21
HETATM   21  O1  UNL     1      27.895   1.822  52.309  1.00  0.00    -0.355 OA
HETATM   22  C1  UNL     1      28.349   2.378  53.516  1.00  0.00     0.209 C 
ENDBRANCH   1  21
TORSDOF 4
ENDMDL
MODEL 6
REMARK VINA RESULT:      -6.6      1.788      2.436
REMARK  4 active torsions:
REMARK  status: ('A' for Active; 'I' for Inactive)
REMARK    1  A    between atoms: O1_2  and  C2_3 
REMARK    2  A    between atoms: C5_8  and  N3_9 
REMARK    3  A    between atoms: N3_9  and  C7_11 
REMARK    4  A    between atoms: C15_19  and  O2_20 
ROOT
HETATM    1  C2  UNL     1      21.795   1.594  49.517  1.00  0.00     0.106 A 
HETATM    2  C3  UNL     1      21.679   0.929  50.677  1.00  0.00     0.078 A 
HETATM    3  N1  UNL     1      20.995   0.029  51.543  1.00  0.00    -0.348 N 
HETATM    4  C4  UNL     1      21.575  -0.226  52.820  1.00  0.00     0.210 A 
HETATM    5  N2  UNL     1      22.683   0.364  53.133  1.00  0.00    -0.226 NA
HETATM    6  C5  UNL     1      23.379   1.265  52.278  1.00  0.00     0.142 A 
HETATM    7  C14 UNL     1      22.930   1.571  51.076  1.00  0.00     0.052 A 
HETATM    8  C15 UNL     1      23.073   2.301  49.826  1.00  0.00     0.219 A 
HETATM    9  H4  UNL     1      20.101  -0.427  51.255  1.00  0.00     0.167 HD
ENDROOT
BRANCH   6  10
HETATM   10  N3  UNL     1      24.552   1.763  52.859  1.00  0.00    -0.336 N 
HETATM   11  C6  UNL     1      24.556   3.145  53.338  1.00  0.00     0.158 C 
BRANCH  10  12
HETATM   12  C7  UNL     1      25.750   1.037  53.027  1.00  0.00     0.035 A 
HETATM   13  C8  UNL     1      26.705   1.503  53.897  1.00  0.00     0.030 A 
HETATM   14  C9  UNL     1      27.913   0.822  54.101  1.00  0.00     0.009 A 
HETATM   15  C10 UNL     1      28.163  -0.349  53.416  1.00  0.00    -0.062 A 
HETATM   16  C11 UNL     1      29.445  -1.111  53.606  1.00  0.00     0.048 C 
HETATM   17  C12 UNL     1      27.215  -0.855  52.522  1.00  0.00     0.009 A 
HETATM   18  C13 UNL     1      26.053  -0.134  52.371  1.00  0.00     0.030 A 
ENDBRANCH  10  12
ENDBRANCH   6  10
BRANCH   8  19
HETATM   19  O2  UNL     1      22.985   3.675  49.860  1.00  0.00    -0.379 OA
HETATM   20  C16 UNL     1      24.180   4.142  49.265  1.00  0.00     0.202 C 
ENDBRANCH   8  19
BRANCH   1  21
HETATM   21  O1  UNL     1      20.934   1.568  48.422  1.00  0.00    -0.355 OA
HETATM   22  C1  UNL     1      20.349   2.717  47.864  1.00  0.00     0.209 C 
ENDBRANCH   1  21
TORSDOF 4
ENDMDL
MODEL 7
REMARK VINA RESULT:      -6.5      3.232      4.640
REMARK  4 active torsions:
REMARK  status: ('A' for Active; 'I' for Inactive)
REMARK    1  A    between atoms: O1_2  and  C2_3 
REMARK    2  A    between atoms: C5_8  and  N3_9 
REMARK    3  A    between atoms: N3_9  and  C7_11 
REMARK    4  A    between atoms: C15_19  and  O2_20 
ROOT
HETATM    1  C2  UNL     1      24.468   6.514  50.504  1.00  0.00     0.106 A 
HETATM    2  C3  UNL     1      25.477   5.832  49.940  1.00  0.00     0.078 A 
HETATM    3  N1  UNL     1      26.598   5.745  49.066  1.00  0.00    -0.348 N 
HETATM    4  C4  UNL     1      27.272   4.492  48.981  1.00  0.00     0.210 A 
HETATM    5  N2  UNL     1      26.843   3.500  49.690  1.00  0.00    -0.226 NA
HETATM    6  C5  UNL     1      25.724   3.571  50.569  1.00  0.00     0.142 A 
HETATM    7  C14 UNL     1      25.029   4.682  50.723  1.00  0.00     0.052 A 
HETATM    8  C15 UNL     1      23.930   5.404  51.345  1.00  0.00     0.219 A 
HETATM    9  H4  UNL     1      26.915   6.569  48.508  1.00  0.00     0.167 HD
ENDROOT
BRANCH   6  10
HETATM   10  N3  UNL     1      25.470   2.356  51.218  1.00  0.00    -0.336 N 
HETATM   11  C6  UNL     1      24.108   1.824  51.187  1.00  0.00     0.158 C 
BRANCH  10  12
HETATM   12  C7  UNL     1      26.428   1.587  51.911  1.00  0.00     0.035 A 
HETATM   13  C8  UNL     1      27.421   2.221  52.617  1.00  0.00     0.030 A 
HETATM   14  C9  UNL     1      28.398   1.506  53.322  1.00  0.00     0.009 A 
HETATM   15  C10 UNL     1      28.375   0.127  53.316  1.00  0.00    -0.062 A 
HETATM   16  C11 UNL     1      29.405  -0.678  54.059  1.00  0.00     0.048 C 
HETATM   17  C12 UNL     1      27.381  -0.555  52.608  1.00  0.00     0.009 A 
HETATM   18  C13 UNL     1      26.455   0.211  51.939  1.00  0.00     0.030 A 
ENDBRANCH  10  12
ENDBRANCH   6  10
BRANCH   8  19
HETATM   19  O2  UNL     1      22.643   5.017  51.045  1.00  0.00    -0.379 OA
HETATM   20  C16 UNL     1      22.043   4.711  52.288  1.00  0.00     0.202 C 
ENDBRANCH   8  19
BRANCH   1  21
HETATM   21  O1  UNL     1      24.114   7.846  50.303  1.00  0.00    -0.355 OA
HETATM   22  C1  UNL     1      24.221   8.501  49.065  1.00  0.00     0.209 C 
ENDBRANCH   1  21
TORSDOF 4
ENDMDL
MODEL 8
REMARK VINA RESULT:      -6.3      2.467      6.026
REMARK  4 active torsions:
REMARK  status: ('A' for Active; 'I' for Inactive)
REMARK    1  A    between atoms: O1_2  and  C2_3 
REMARK    2  A    between atoms: C5_8  and  N3_9 
REMARK    3  A    between atoms: N3_9  and  C7_11 
REMARK    4  A    between atoms: C15_19  and  O2_20 
ROOT
HETATM    1  C2  UNL     1      22.884  -0.798  53.753  1.00  0.00     0.106 A 
HETATM    2  C3  UNL     1      24.171  -0.552  54.047  1.00  0.00     0.078 A 
HETATM    3  N1  UNL     1      25.367  -0.827  54.769  1.00  0.00    -0.348 N 
HETATM    4  C4  UNL     1      26.504  -0.014  54.496  1.00  0.00     0.210 A 
HETATM    5  N2  UNL     1      26.404   0.928  53.615  1.00  0.00    -0.226 NA
HETATM    6  C5  UNL     1      25.216   1.214  52.883  1.00  0.00     0.142 A 
HETATM    7  C14 UNL     1      24.106   0.523  53.059  1.00  0.00     0.052 A 
HETATM    8  C15 UNL     1      22.712   0.273  52.727  1.00  0.00     0.219 A 
HETATM    9  H4  UNL     1      25.409  -1.596  55.475  1.00  0.00     0.167 HD
ENDROOT
BRANCH   6  10
HETATM   10  N3  UNL     1      25.376   2.283  51.992  1.00  0.00    -0.336 N 
HETATM   11  C6  UNL     1      26.681   2.468  51.357  1.00  0.00     0.158 C 
BRANCH  10  12
HETATM   12  C7  UNL     1      24.373   3.212  51.646  1.00  0.00     0.035 A 
HETATM   13  C8  UNL     1      23.944   3.288  50.343  1.00  0.00     0.030 A 
HETATM   14  C9  UNL     1      22.951   4.193  49.944  1.00  0.00     0.009 A 
HETATM   15  C10 UNL     1      22.378   5.035  50.874  1.00  0.00    -0.062 A 
HETATM   16  C11 UNL     1      21.310   6.020  50.489  1.00  0.00     0.048 C 
HETATM   17  C12 UNL     1      22.789   4.988  52.210  1.00  0.00     0.009 A 
HETATM   18  C13 UNL     1      23.768   4.076  52.530  1.00  0.00     0.030 A 
ENDBRANCH  10  12
ENDBRANCH   6  10
BRANCH   8  19
HETATM   19  O2  UNL     1      21.783   1.240  53.044  1.00  0.00    -0.379 OA
HETATM   20  C16 UNL     1      21.029   1.437  51.864  1.00  0.00     0.202 C 
ENDBRANCH   8  19
BRANCH   1  21
HETATM   21  O1  UNL     1      22.051  -1.774  54.293  1.00  0.00    -0.355 OA
HETATM   22  C1  UNL     1      20.648  -1.700  54.271  1.00  0.00     0.209 C 
ENDBRANCH   1  21
TORSDOF 4
ENDMDL
MODEL 9
REMARK VINA RESULT:      -6.3      1.977      5.401
REMARK  4 active torsions:
REMARK  status: ('A' for Active; 'I' for Inactive)
REMARK    1  A    between atoms: O1_2  and  C2_3 
REMARK    2  A    between atoms: C5_8  and  N3_9 
REMARK    3  A    between atoms: N3_9  and  C7_11 
REMARK    4  A    between atoms: C15_19  and  O2_20 
ROOT
HETATM    1  C2  UNL     1      26.034   2.452  51.210  1.00  0.00     0.106 A 
HETATM    2  C3  UNL     1      26.196   1.294  51.870  1.00  0.00     0.078 A 
HETATM    3  N1  UNL     1      27.011   0.236  52.363  1.00  0.00    -0.348 N 
HETATM    4  C4  UNL     1      26.367  -0.808  53.090  1.00  0.00     0.210 A 
HETATM    5  N2  UNL     1      25.088  -0.750  53.269  1.00  0.00    -0.226 NA
HETATM    6  C5  UNL     1      24.260   0.302  52.784  1.00  0.00     0.142 A 
HETATM    7  C14 UNL     1      24.752   1.317  52.098  1.00  0.00     0.052 A 
HETATM    8  C15 UNL     1      24.556   2.570  51.387  1.00  0.00     0.219 A 
HETATM    9  H4  UNL     1      28.042   0.223  52.197  1.00  0.00     0.167 HD
ENDROOT
BRANCH   6  10
HETATM   10  N3  UNL     1      22.910   0.123  53.115  1.00  0.00    -0.336 N 
HETATM   11  C6  UNL     1      22.585  -0.697  54.282  1.00  0.00     0.158 C 
BRANCH  10  12
HETATM   12  C7  UNL     1      21.819   0.675  52.411  1.00  0.00     0.035 A 
HETATM   13  C8  UNL     1      21.120   1.721  52.963  1.00  0.00     0.030 A 
HETATM   14  C9  UNL     1      20.028   2.305  52.308  1.00  0.00     0.009 A 
HETATM   15  C10 UNL     1      19.634   1.829  51.075  1.00  0.00    -0.062 A 
HETATM   16  C11 UNL     1      18.468   2.428  50.338  1.00  0.00     0.048 C 
HETATM   17  C12 UNL     1      20.321   0.766  50.481  1.00  0.00     0.009 A 
HETATM   18  C13 UNL     1      21.382   0.241  51.181  1.00  0.00     0.030 A 
ENDBRANCH  10  12
ENDBRANCH   6  10
BRANCH   8  19
HETATM   19  O2  UNL     1      23.826   2.548  50.219  1.00  0.00    -0.379 OA
HETATM   20  C16 UNL     1      22.961   3.664  50.296  1.00  0.00     0.202 C 
ENDBRANCH   8  19
BRANCH   1  21
HETATM   21  O1  UNL     1      27.007   3.229  50.586  1.00  0.00    -0.355 OA
HETATM   22  C1  UNL     1      26.787   3.946  49.399  1.00  0.00     0.209 C 
ENDBRANCH   1  21
TORSDOF 4
ENDMDL
