MODEL 1
REMARK VINA RESULT:      -7.2      0.000      0.000
REMARK  7 active torsions:
REMARK  status: ('A' for Active; 'I' for Inactive)
REMARK    1  A    between atoms: C2_2  and  C3_3 
REMARK    2  A    between atoms: C3_3  and  C4_5 
REMARK    3  A    between atoms: C4_5  and  C5_6 
REMARK    4  A    between atoms: C5_6  and  C6_7 
REMARK    5  A    between atoms: C6_7  and  N1_8 
REMARK    6  A    between atoms: N1_8  and  C7_9 
REMARK    7  A    between atoms: C12_16  and  N4_17 
REMARK       I    between atoms: N4_17  and  C13_18 
REMARK       I    between atoms: C13_18  and  N5_19 
ROOT
HETATM    1  C7  UNL     1      23.150   4.223  52.177  1.00  0.00     0.133 C 
HETATM    2  N2  UNL     1      21.928   4.089  51.852  1.00  0.00    -0.225 NA
HETATM    3  C8  UNL     1      21.301   2.842  51.669  1.00  0.00     0.229 C 
HETATM    4  N3  UNL     1      21.944   1.706  51.794  1.00  0.00    -0.272 NA
HETATM    5  C9  UNL     1      23.349   1.682  52.112  1.00  0.00     0.149 C 
HETATM    6  C10 UNL     1      23.844   0.487  52.794  1.00  0.00     0.061 C 
HETATM    7  C11 UNL     1      25.141   0.713  53.448  1.00  0.00     0.005 C 
HETATM    8  C12 UNL     1      25.656   1.882  53.745  1.00  0.00     0.033 C 
HETATM    9  C14 UNL     1      24.964   3.084  53.301  1.00  0.00     0.042 C 
HETATM   10  C15 UNL     1      23.836   2.986  52.586  1.00  0.00     0.015 C 
ENDROOT
BRANCH   1  11
HETATM   11  N1  UNL     1      23.812   5.459  52.347  1.00  0.00    -0.371 N 
HETATM   12  H7  UNL     1      24.344   5.768  53.177  1.00  0.00     0.161 HD
BRANCH  11  13
HETATM   13  C6  UNL     1      23.741   6.413  51.244  1.00  0.00     0.148 C 
BRANCH  13  14
HETATM   14  C5  UNL     1      25.036   6.476  50.564  1.00  0.00    -0.005 C 
BRANCH  14  15
HETATM   15  C4  UNL     1      25.748   6.348  49.458  1.00  0.00     0.025 C 
BRANCH  15  16
HETATM   16  C3  UNL     1      26.842   5.538  49.028  1.00  0.00     0.051 C 
HETATM   17 BR1  UNL     1      28.443   6.034  48.210  1.00  0.00    -0.042 Br
BRANCH  16  18
HETATM   18  C2  UNL     1      26.576   4.266  49.298  1.00  0.00    -0.136 C 
HETATM   19  C1  UNL     1      26.021   3.110  49.636  1.00  0.00     0.098 C 
ENDBRANCH  16  18
ENDBRANCH  15  16
ENDBRANCH  14  15
ENDBRANCH  13  14
ENDBRANCH  11  13
ENDBRANCH   1  11
BRANCH   8  20
HETATM   20  N4  UNL     1      26.935   1.939  54.397  1.00  0.00    -0.309 N 
HETATM   21  C13 UNL     1      28.069   2.248  53.580  1.00  0.00     0.318 C 
HETATM   22  N5  UNL     1      29.364   2.316  54.197  1.00  0.00    -0.352 N 
HETATM   23  O1  UNL     1      27.999   2.468  52.334  1.00  0.00    -0.247 OA
HETATM   24  H14 UNL     1      30.154   2.959  53.963  1.00  0.00     0.160 HD
HETATM   25  H15 UNL     1      29.580   1.658  54.981  1.00  0.00     0.160 HD
HETATM   26  H13 UNL     1      27.090   1.770  55.425  1.00  0.00     0.170 HD
ENDBRANCH   8  20
TORSDOF 7
ENDMDL
MODEL 2
REMARK VINA RESULT:      -7.2      2.600      3.211
REMARK  7 active torsions:
REMARK  status: ('A' for Active; 'I' for Inactive)
REMARK    1  A    between atoms: C2_2  and  C3_3 
REMARK    2  A    between atoms: C3_3  and  C4_5 
REMARK    3  A    between atoms: C4_5  and  C5_6 
REMARK    4  A    between atoms: C5_6  and  C6_7 
REMARK    5  A    between atoms: C6_7  and  N1_8 
REMARK    6  A    between atoms: N1_8  and  C7_9 
REMARK    7  A    between atoms: C12_16  and  N4_17 
REMARK       I    between atoms: N4_17  and  C13_18 
REMARK       I    between atoms: C13_18  and  N5_19 
ROOT
HETATM    1  C7  UNL     1      22.340   0.881  52.053  1.00  0.00     0.133 C 
HETATM    2  N2  UNL     1      21.141   1.242  52.270  1.00  0.00    -0.225 NA
HETATM    3  C8  UNL     1      20.366   0.773  53.347  1.00  0.00     0.229 C 
HETATM    4  N3  UNL     1      20.817  -0.107  54.209  1.00  0.00    -0.272 NA
HETATM    5  C9  UNL     1      22.143  -0.657  54.078  1.00  0.00     0.149 C 
HETATM    6  C10 UNL     1      22.778  -1.129  55.308  1.00  0.00     0.061 C 
HETATM    7  C11 UNL     1      24.235  -1.267  55.168  1.00  0.00     0.005 C 
HETATM    8  C12 UNL     1      24.972  -0.707  54.238  1.00  0.00     0.033 C 
HETATM    9  C14 UNL     1      24.310   0.029  53.170  1.00  0.00     0.042 C 
HETATM   10  C15 UNL     1      22.973   0.107  53.134  1.00  0.00     0.015 C 
ENDROOT
BRANCH   1  11
HETATM   11  N1  UNL     1      23.135   1.317  50.971  1.00  0.00    -0.371 N 
HETATM   12  H7  UNL     1      24.121   1.069  50.786  1.00  0.00     0.161 HD
BRANCH  11  13
HETATM   13  C6  UNL     1      22.512   2.219  50.005  1.00  0.00     0.148 C 
BRANCH  13  14
HETATM   14  C5  UNL     1      23.483   3.227  49.577  1.00  0.00    -0.005 C 
BRANCH  14  15
HETATM   15  C4  UNL     1      24.622   3.867  49.777  1.00  0.00     0.025 C 
BRANCH  15  16
HETATM   16  C3  UNL     1      25.971   3.500  50.062  1.00  0.00     0.051 C 
HETATM   17 BR1  UNL     1      26.641   2.341  51.361  1.00  0.00    -0.042 Br
BRANCH  16  18
HETATM   18  C2  UNL     1      26.782   4.130  49.222  1.00  0.00    -0.136 C 
HETATM   19  C1  UNL     1      27.696   4.901  48.648  1.00  0.00     0.098 C 
ENDBRANCH  16  18
ENDBRANCH  15  16
ENDBRANCH  14  15
ENDBRANCH  13  14
ENDBRANCH  11  13
ENDBRANCH   1  11
BRANCH   8  20
HETATM   20  N4  UNL     1      26.391  -0.929  54.241  1.00  0.00    -0.309 N 
HETATM   21  C13 UNL     1      27.220   0.160  54.660  1.00  0.00     0.318 C 
HETATM   22  N5  UNL     1      28.643  -0.025  54.678  1.00  0.00    -0.352 N 
HETATM   23  O1  UNL     1      26.769   1.289  55.020  1.00  0.00    -0.247 OA
HETATM   24  H14 UNL     1      29.334   0.370  55.357  1.00  0.00     0.160 HD
HETATM   25  H15 UNL     1      29.080  -0.622  53.938  1.00  0.00     0.160 HD
HETATM   26  H13 UNL     1      26.855  -1.832  53.958  1.00  0.00     0.170 HD
ENDBRANCH   8  20
TORSDOF 7
ENDMDL
MODEL 3
REMARK VINA RESULT:      -7.1      2.530      3.190
REMARK  7 active torsions:
REMARK  status: ('A' for Active; 'I' for Inactive)
REMARK    1  A    between atoms: C2_2  and  C3_3 
REMARK    2  A    between atoms: C3_3  and  C4_5 
REMARK    3  A    between atoms: C4_5  and  C5_6 
REMARK    4  A    between atoms: C5_6  and  C6_7 
REMARK    5  A    between atoms: C6_7  and  N1_8 
REMARK    6  A    between atoms: N1_8  and  C7_9 
REMARK    7  A    between atoms: C12_16  and  N4_17 
REMARK       I    between atoms: N4_17  and  C13_18 
REMARK       I    between atoms: C13_18  and  N5_19 
ROOT
HETATM    1  C7  UNL     1      25.179   2.843  51.618  1.00  0.00     0.133 C 
HETATM    2  N2  UNL     1      24.178   3.627  51.648  1.00  0.00    -0.225 NA
HETATM    3  C8  UNL     1      22.915   3.262  52.149  1.00  0.00     0.229 C 
HETATM    4  N3  UNL     1      22.658   2.059  52.604  1.00  0.00    -0.272 NA
HETATM    5  C9  UNL     1      23.671   1.033  52.596  1.00  0.00     0.149 C 
HETATM    6  C10 UNL     1      23.539  -0.023  53.598  1.00  0.00     0.061 C 
HETATM    7  C11 UNL     1      24.794  -0.760  53.802  1.00  0.00     0.005 C 
HETATM    8  C12 UNL     1      25.991  -0.346  53.458  1.00  0.00     0.033 C 
HETATM    9  C14 UNL     1      26.112   0.895  52.705  1.00  0.00     0.042 C 
HETATM   10  C15 UNL     1      25.015   1.580  52.357  1.00  0.00     0.015 C 
ENDROOT
BRANCH   1  11
HETATM   11  N1  UNL     1      26.451   3.173  51.103  1.00  0.00    -0.371 N 
HETATM   12  H7  UNL     1      27.282   3.465  51.644  1.00  0.00     0.161 HD
BRANCH  11  13
HETATM   13  C6  UNL     1      26.625   3.105  49.655  1.00  0.00     0.148 C 
BRANCH  13  14
HETATM   14  C5  UNL     1      27.075   4.403  49.151  1.00  0.00    -0.005 C 
BRANCH  14  15
HETATM   15  C4  UNL     1      26.795   5.645  48.794  1.00  0.00     0.025 C 
BRANCH  15  16
HETATM   16  C3  UNL     1      27.450   6.673  48.052  1.00  0.00     0.051 C 
HETATM   17 BR1  UNL     1      26.727   8.145  47.163  1.00  0.00    -0.042 Br
BRANCH  16  18
HETATM   18  C2  UNL     1      28.758   6.453  48.062  1.00  0.00    -0.136 C 
HETATM   19  C1  UNL     1      30.027   6.215  47.756  1.00  0.00     0.098 C 
ENDBRANCH  16  18
ENDBRANCH  15  16
ENDBRANCH  14  15
ENDBRANCH  13  14
ENDBRANCH  11  13
ENDBRANCH   1  11
BRANCH   8  20
HETATM   20  N4  UNL     1      27.127  -1.180  53.736  1.00  0.00    -0.309 N 
HETATM   21  C13 UNL     1      27.395  -2.245  52.818  1.00  0.00     0.318 C 
HETATM   22  N5  UNL     1      28.523  -3.098  53.062  1.00  0.00    -0.352 N 
HETATM   23  O1  UNL     1      26.688  -2.483  51.792  1.00  0.00    -0.247 OA
HETATM   24  H14 UNL     1      29.158  -3.540  52.359  1.00  0.00     0.160 HD
HETATM   25  H15 UNL     1      28.773  -3.327  54.052  1.00  0.00     0.160 HD
HETATM   26  H13 UNL     1      27.769  -1.059  54.563  1.00  0.00     0.170 HD
ENDBRANCH   8  20
TORSDOF 7
ENDMDL
MODEL 4
REMARK VINA RESULT:      -7.0      2.626      3.185
REMARK  7 active torsions:
REMARK  status: ('A' for Active; 'I' for Inactive)
REMARK    1  A    between atoms: C2_2  and  C3_3 
REMARK    2  A    between atoms: C3_3  and  C4_5 
REMARK    3  A    between atoms: C4_5  and  C5_6 
REMARK    4  A    between atoms: C5_6  and  C6_7 
REMARK    5  A    between atoms: C6_7  and  N1_8 
REMARK    6  A    between atoms: N1_8  and  C7_9 
REMARK    7  A    between atoms: C12_16  and  N4_17 
REMARK       I    between atoms: N4_17  and  C13_18 
REMARK       I    between atoms: C13_18  and  N5_19 
ROOT
HETATM    1  C7  UNL     1      25.236   2.797  51.517  1.00  0.00     0.133 C 
HETATM    2  N2  UNL     1      24.252   3.602  51.520  1.00  0.00    -0.225 NA
HETATM    3  C8  UNL     1      22.974   3.272  52.007  1.00  0.00     0.229 C 
HETATM    4  N3  UNL     1      22.685   2.082  52.478  1.00  0.00    -0.272 NA
HETATM    5  C9  UNL     1      23.676   1.036  52.501  1.00  0.00     0.149 C 
HETATM    6  C10 UNL     1      23.507  -0.001  53.519  1.00  0.00     0.061 C 
HETATM    7  C11 UNL     1      24.743  -0.761  53.754  1.00  0.00     0.005 C 
HETATM    8  C12 UNL     1      25.953  -0.378  53.421  1.00  0.00     0.033 C 
HETATM    9  C14 UNL     1      26.111   0.848  52.650  1.00  0.00     0.042 C 
HETATM   10  C15 UNL     1      25.035   1.550  52.274  1.00  0.00     0.015 C 
ENDROOT
BRANCH   1  11
HETATM   11  N1  UNL     1      26.522   3.092  51.016  1.00  0.00    -0.371 N 
HETATM   12  H7  UNL     1      27.380   3.256  51.569  1.00  0.00     0.161 HD
BRANCH  11  13
HETATM   13  C6  UNL     1      26.671   3.184  49.567  1.00  0.00     0.148 C 
BRANCH  13  14
HETATM   14  C5  UNL     1      26.828   4.586  49.176  1.00  0.00    -0.005 C 
BRANCH  14  15
HETATM   15  C4  UNL     1      26.289   5.770  48.941  1.00  0.00     0.025 C 
BRANCH  15  16
HETATM   16  C3  UNL     1      25.026   6.390  49.183  1.00  0.00     0.051 C 
HETATM   17 BR1  UNL     1      24.627   7.959  50.109  1.00  0.00    -0.042 Br
BRANCH  16  18
HETATM   18  C2  UNL     1      24.068   5.662  48.623  1.00  0.00    -0.136 C 
HETATM   19  C1  UNL     1      22.930   5.067  48.291  1.00  0.00     0.098 C 
ENDBRANCH  16  18
ENDBRANCH  15  16
ENDBRANCH  14  15
ENDBRANCH  13  14
ENDBRANCH  11  13
ENDBRANCH   1  11
BRANCH   8  20
HETATM   20  N4  UNL     1      27.067  -1.231  53.730  1.00  0.00    -0.309 N 
HETATM   21  C13 UNL     1      27.358  -2.284  52.805  1.00  0.00     0.318 C 
HETATM   22  N5  UNL     1      28.465  -3.155  53.079  1.00  0.00    -0.352 N 
HETATM   23  O1  UNL     1      26.689  -2.496  51.749  1.00  0.00    -0.247 OA
HETATM   24  H14 UNL     1      29.122  -3.594  52.395  1.00  0.00     0.160 HD
HETATM   25  H15 UNL     1      28.673  -3.403  54.075  1.00  0.00     0.160 HD
HETATM   26  H13 UNL     1      27.677  -1.131  54.583  1.00  0.00     0.170 HD
ENDBRANCH   8  20
TORSDOF 7
ENDMDL
MODEL 5
REMARK VINA RESULT:      -6.8      2.820      5.486
REMARK  7 active torsions:
REMARK  status: ('A' for Active; 'I' for Inactive)
REMARK    1  A    between atoms: C2_2  and  C3_3 
REMARK    2  A    between atoms: C3_3  and  C4_5 
REMARK    3  A    between atoms: C4_5  and  C5_6 
REMARK    4  A    between atoms: C5_6  and  C6_7 
REMARK    5  A    between atoms: C6_7  and  N1_8 
REMARK    6  A    between atoms: N1_8  and  C7_9 
REMARK    7  A    between atoms: C12_16  and  N4_17 
REMARK       I    between atoms: N4_17  and  C13_18 
REMARK       I    between atoms: C13_18  and  N5_19 
ROOT
HETATM    1  C7  UNL     1      22.953   1.020  52.609  1.00  0.00     0.133 C 
HETATM    2  N2  UNL     1      22.122   0.121  52.266  1.00  0.00    -0.225 NA
HETATM    3  C8  UNL     1      20.797   0.391  51.874  1.00  0.00     0.229 C 
HETATM    4  N3  UNL     1      20.301   1.605  51.856  1.00  0.00    -0.272 NA
HETATM    5  C9  UNL     1      21.098   2.735  52.263  1.00  0.00     0.149 C 
HETATM    6  C10 UNL     1      20.736   4.029  51.687  1.00  0.00     0.061 C 
HETATM    7  C11 UNL     1      21.819   5.016  51.804  1.00  0.00     0.005 C 
HETATM    8  C12 UNL     1      23.082   4.744  52.030  1.00  0.00     0.033 C 
HETATM    9  C14 UNL     1      23.462   3.365  52.307  1.00  0.00     0.042 C 
HETATM   10  C15 UNL     1      22.528   2.406  52.350  1.00  0.00     0.015 C 
ENDROOT
BRANCH   1  11
HETATM   11  N1  UNL     1      24.279   0.779  53.027  1.00  0.00    -0.371 N 
HETATM   12  H7  UNL     1      25.083   1.425  52.944  1.00  0.00     0.161 HD
BRANCH  11  13
HETATM   13  C6  UNL     1      24.563  -0.516  53.638  1.00  0.00     0.148 C 
BRANCH  13  14
HETATM   14  C5  UNL     1      25.717  -0.397  54.531  1.00  0.00    -0.005 C 
BRANCH  14  15
HETATM   15  C4  UNL     1      26.847   0.207  54.856  1.00  0.00     0.025 C 
BRANCH  15  16
HETATM   16  C3  UNL     1      28.025   0.624  54.165  1.00  0.00     0.051 C 
HETATM   17 BR1  UNL     1      28.525   2.323  53.582  1.00  0.00    -0.042 Br
BRANCH  16  18
HETATM   18  C2  UNL     1      28.807  -0.428  53.961  1.00  0.00    -0.136 C 
HETATM   19  C1  UNL     1      29.670  -1.321  53.495  1.00  0.00     0.098 C 
ENDBRANCH  16  18
ENDBRANCH  15  16
ENDBRANCH  14  15
ENDBRANCH  13  14
ENDBRANCH  11  13
ENDBRANCH   1  11
BRANCH   8  20
HETATM   20  N4  UNL     1      24.028   5.823  52.106  1.00  0.00    -0.309 N 
HETATM   21  C13 UNL     1      24.675   6.209  50.889  1.00  0.00     0.318 C 
HETATM   22  N5  UNL     1      25.625   7.284  50.926  1.00  0.00    -0.352 N 
HETATM   23  O1  UNL     1      24.458   5.653  49.770  1.00  0.00    -0.247 OA
HETATM   24  H14 UNL     1      25.804   8.008  50.194  1.00  0.00     0.160 HD
HETATM   25  H15 UNL     1      26.232   7.388  51.773  1.00  0.00     0.160 HD
HETATM   26  H13 UNL     1      24.273   6.341  52.990  1.00  0.00     0.170 HD
ENDBRANCH   8  20
TORSDOF 7
ENDMDL
MODEL 6
REMARK VINA RESULT:      -6.8      1.697      2.185
REMARK  7 active torsions:
REMARK  status: ('A' for Active; 'I' for Inactive)
REMARK    1  A    between atoms: C2_2  and  C3_3 
REMARK    2  A    between atoms: C3_3  and  C4_5 
REMARK    3  A    between atoms: C4_5  and  C5_6 
REMARK    4  A    between atoms: C5_6  and  C6_7 
REMARK    5  A    between atoms: C6_7  and  N1_8 
REMARK    6  A    between atoms: N1_8  and  C7_9 
REMARK    7  A    between atoms: C12_16  and  N4_17 
REMARK       I    between atoms: N4_17  and  C13_18 
REMARK       I    between atoms: C13_18  and  N5_19 
ROOT
HETATM    1  C7  UNL     1      23.629   3.440  51.845  1.00  0.00     0.133 C 
HETATM    2  N2  UNL     1      22.472   3.959  51.936  1.00  0.00    -0.225 NA
HETATM    3  C8  UNL     1      21.314   3.232  52.267  1.00  0.00     0.229 C 
HETATM    4  N3  UNL     1      21.332   1.938  52.483  1.00  0.00    -0.272 NA
HETATM    5  C9  UNL     1      22.558   1.188  52.372  1.00  0.00     0.149 C 
HETATM    6  C10 UNL     1      22.644  -0.041  53.160  1.00  0.00     0.061 C 
HETATM    7  C11 UNL     1      24.029  -0.502  53.327  1.00  0.00     0.005 C 
HETATM    8  C12 UNL     1      25.106   0.227  53.154  1.00  0.00     0.033 C 
HETATM    9  C14 UNL     1      24.957   1.583  52.642  1.00  0.00     0.042 C 
HETATM   10  C15 UNL     1      23.743   2.057  52.336  1.00  0.00     0.015 C 
ENDROOT
BRANCH   1  11
HETATM   11  N1  UNL     1      24.805   4.139  51.495  1.00  0.00    -0.371 N 
HETATM   12  H7  UNL     1      25.660   4.240  52.067  1.00  0.00     0.161 HD
BRANCH  11  13
HETATM   13  C6  UNL     1      24.828   4.799  50.192  1.00  0.00     0.148 C 
BRANCH  13  14
HETATM   14  C5  UNL     1      25.970   4.314  49.415  1.00  0.00    -0.005 C 
BRANCH  14  15
HETATM   15  C4  UNL     1      27.201   4.491  48.970  1.00  0.00     0.025 C 
BRANCH  15  16
HETATM   16  C3  UNL     1      27.955   5.580  48.438  1.00  0.00     0.051 C 
HETATM   17 BR1  UNL     1      29.795   5.740  48.176  1.00  0.00    -0.042 Br
BRANCH  16  18
HETATM   18  C2  UNL     1      27.129   6.566  48.114  1.00  0.00    -0.136 C 
HETATM   19  C1  UNL     1      26.573   7.713  47.746  1.00  0.00     0.098 C 
ENDBRANCH  16  18
ENDBRANCH  15  16
ENDBRANCH  14  15
ENDBRANCH  13  14
ENDBRANCH  11  13
ENDBRANCH   1  11
BRANCH   8  20
HETATM   20  N4  UNL     1      26.397  -0.367  53.367  1.00  0.00    -0.309 N 
HETATM   21  C13 UNL     1      27.171   0.132  54.462  1.00  0.00     0.318 C 
HETATM   22  N5  UNL     1      28.465  -0.438  54.708  1.00  0.00    -0.352 N 
HETATM   23  O1  UNL     1      26.779   1.057  55.236  1.00  0.00    -0.247 OA
HETATM   24  H14 UNL     1      28.929  -0.604  55.629  1.00  0.00     0.160 HD
HETATM   25  H15 UNL     1      29.044  -0.738  53.889  1.00  0.00     0.160 HD
HETATM   26  H13 UNL     1      26.804  -1.138  52.776  1.00  0.00     0.170 HD
ENDBRANCH   8  20
TORSDOF 7
ENDMDL
MODEL 7
REMARK VINA RESULT:      -6.7      3.334      4.943
REMARK  7 active torsions:
REMARK  status: ('A' for Active; 'I' for Inactive)
REMARK    1  A    between atoms: C2_2  and  C3_3 
REMARK    2  A    between atoms: C3_3  and  C4_5 
REMARK    3  A    between atoms: C4_5  and  C5_6 
REMARK    4  A    between atoms: C5_6  and  C6_7 
REMARK    5  A    between atoms: C6_7  and  N1_8 
REMARK    6  A    between atoms: N1_8  and  C7_9 
REMARK    7  A    between atoms: C12_16  and  N4_17 
REMARK       I    between atoms: N4_17  and  C13_18 
REMARK       I    between atoms: C13_18  and  N5_19 
ROOT
HETATM    1  C7  UNL     1      24.221   3.929  51.776  1.00  0.00     0.133 C 
HETATM    2  N2  UNL     1      24.599   4.593  50.760  1.00  0.00    -0.225 NA
HETATM    3  C8  UNL     1      25.734   4.270  49.994  1.00  0.00     0.229 C 
HETATM    4  N3  UNL     1      26.518   3.260  50.287  1.00  0.00    -0.272 NA
HETATM    5  C9  UNL     1      26.258   2.432  51.438  1.00  0.00     0.149 C 
HETATM    6  C10 UNL     1      26.757   1.059  51.381  1.00  0.00     0.061 C 
HETATM    7  C11 UNL     1      26.102   0.184  52.363  1.00  0.00     0.005 C 
HETATM    8  C12 UNL     1      24.965   0.430  52.971  1.00  0.00     0.033 C 
HETATM    9  C14 UNL     1      24.327   1.723  52.763  1.00  0.00     0.042 C 
HETATM   10  C15 UNL     1      24.909   2.643  51.983  1.00  0.00     0.015 C 
ENDROOT
BRANCH   1  11
HETATM   11  N1  UNL     1      23.101   4.240  52.577  1.00  0.00    -0.371 N 
HETATM   12  H7  UNL     1      23.016   4.118  53.600  1.00  0.00     0.161 HD
BRANCH  11  13
HETATM   13  C6  UNL     1      21.929   4.790  51.901  1.00  0.00     0.148 C 
BRANCH  13  14
HETATM   14  C5  UNL     1      20.827   3.829  51.967  1.00  0.00    -0.005 C 
BRANCH  14  15
HETATM   15  C4  UNL     1      20.302   2.733  52.487  1.00  0.00     0.025 C 
BRANCH  15  16
HETATM   16  C3  UNL     1      20.692   1.365  52.609  1.00  0.00     0.051 C 
HETATM   17 BR1  UNL     1      20.801   0.288  54.129  1.00  0.00    -0.042 Br
BRANCH  16  18
HETATM   18  C2  UNL     1      20.999   0.889  51.409  1.00  0.00    -0.136 C 
HETATM   19  C1  UNL     1      21.539   0.630  50.226  1.00  0.00     0.098 C 
ENDBRANCH  16  18
ENDBRANCH  15  16
ENDBRANCH  14  15
ENDBRANCH  13  14
ENDBRANCH  11  13
ENDBRANCH   1  11
BRANCH   8  20
HETATM   20  N4  UNL     1      24.446  -0.533  53.902  1.00  0.00    -0.309 N 
HETATM   21  C13 UNL     1      25.197  -0.751  55.100  1.00  0.00     0.318 C 
HETATM   22  N5  UNL     1      24.708  -1.704  56.056  1.00  0.00    -0.352 N 
HETATM   23  O1  UNL     1      26.278  -0.148  55.372  1.00  0.00    -0.247 OA
HETATM   24  H14 UNL     1      24.770  -1.658  57.098  1.00  0.00     0.160 HD
HETATM   25  H15 UNL     1      24.223  -2.563  55.704  1.00  0.00     0.160 HD
HETATM   26  H13 UNL     1      23.557  -1.081  53.761  1.00  0.00     0.170 HD
ENDBRANCH   8  20
TORSDOF 7
ENDMDL
MODEL 8
REMARK VINA RESULT:      -6.6      3.558      6.893
REMARK  7 active torsions:
REMARK  status: ('A' for Active; 'I' for Inactive)
REMARK    1  A    between atoms: C2_2  and  C3_3 
REMARK    2  A    between atoms: C3_3  and  C4_5 
REMARK    3  A    between atoms: C4_5  and  C5_6 
REMARK    4  A    between atoms: C5_6  and  C6_7 
REMARK    5  A    between atoms: C6_7  and  N1_8 
REMARK    6  A    between atoms: N1_8  and  C7_9 
REMARK    7  A    between atoms: C12_16  and  N4_17 
REMARK       I    between atoms: N4_17  and  C13_18 
REMARK       I    between atoms: C13_18  and  N5_19 
ROOT
HETATM    1  C7  UNL     1      24.880  -0.380  53.848  1.00  0.00     0.133 C 
HETATM    2  N2  UNL     1      25.649  -0.617  54.832  1.00  0.00    -0.225 NA
HETATM    3  C8  UNL     1      26.958  -0.110  54.942  1.00  0.00     0.229 C 
HETATM    4  N3  UNL     1      27.505   0.634  54.011  1.00  0.00    -0.272 NA
HETATM    5  C9  UNL     1      26.784   0.958  52.805  1.00  0.00     0.149 C 
HETATM    6  C10 UNL     1      27.167   2.196  52.129  1.00  0.00     0.061 C 
HETATM    7  C11 UNL     1      26.137   2.662  51.189  1.00  0.00     0.005 C 
HETATM    8  C12 UNL     1      24.880   2.289  51.184  1.00  0.00     0.033 C 
HETATM    9  C14 UNL     1      24.457   1.240  52.102  1.00  0.00     0.042 C 
HETATM   10  C15 UNL     1      25.349   0.659  52.915  1.00  0.00     0.015 C 
ENDROOT
BRANCH   1  11
HETATM   11  N1  UNL     1      23.573  -0.890  53.700  1.00  0.00    -0.371 N 
HETATM   12  H7  UNL     1      23.095  -1.126  52.814  1.00  0.00     0.161 HD
BRANCH  11  13
HETATM   13  C6  UNL     1      22.799  -1.108  54.919  1.00  0.00     0.148 C 
BRANCH  13  14
HETATM   14  C5  UNL     1      21.553  -0.342  54.854  1.00  0.00    -0.005 C 
BRANCH  14  15
HETATM   15  C4  UNL     1      20.502   0.066  54.164  1.00  0.00     0.025 C 
BRANCH  15  16
HETATM   16  C3  UNL     1      20.055  -0.043  52.813  1.00  0.00     0.051 C 
HETATM   17 BR1  UNL     1      20.895   0.485  51.233  1.00  0.00    -0.042 Br
BRANCH  16  18
HETATM   18  C2  UNL     1      18.859  -0.617  52.794  1.00  0.00    -0.136 C 
HETATM   19  C1  UNL     1      17.784  -1.364  53.015  1.00  0.00     0.098 C 
ENDBRANCH  16  18
ENDBRANCH  15  16
ENDBRANCH  14  15
ENDBRANCH  13  14
ENDBRANCH  11  13
ENDBRANCH   1  11
BRANCH   8  20
HETATM   20  N4  UNL     1      23.988   2.844  50.203  1.00  0.00    -0.309 N 
HETATM   21  C13 UNL     1      23.206   3.976  50.600  1.00  0.00     0.318 C 
HETATM   22  N5  UNL     1      22.306   4.559  49.648  1.00  0.00    -0.352 N 
HETATM   23  O1  UNL     1      23.262   4.499  51.754  1.00  0.00    -0.247 OA
HETATM   24  H14 UNL     1      22.061   5.568  49.529  1.00  0.00     0.160 HD
HETATM   25  H15 UNL     1      21.815   3.929  48.970  1.00  0.00     0.160 HD
HETATM   26  H13 UNL     1      23.874   2.476  49.223  1.00  0.00     0.170 HD
ENDBRANCH   8  20
TORSDOF 7
ENDMDL
MODEL 9
REMARK VINA RESULT:      -6.5      2.580      3.324
REMARK  7 active torsions:
REMARK  status: ('A' for Active; 'I' for Inactive)
REMARK    1  A    between atoms: C2_2  and  C3_3 
REMARK    2  A    between atoms: C3_3  and  C4_5 
REMARK    3  A    between atoms: C4_5  and  C5_6 
REMARK    4  A    between atoms: C5_6  and  C6_7 
REMARK    5  A    between atoms: C6_7  and  N1_8 
REMARK    6  A    between atoms: N1_8  and  C7_9 
REMARK    7  A    between atoms: C12_16  and  N4_17 
REMARK       I    between atoms: N4_17  and  C13_18 
REMARK       I    between atoms: C13_18  and  N5_19 
ROOT
HETATM    1  C7  UNL     1      25.520   3.704  50.531  1.00  0.00     0.133 C 
HETATM    2  N2  UNL     1      24.540   4.513  50.558  1.00  0.00    -0.225 NA
HETATM    3  C8  UNL     1      23.277   4.194  51.092  1.00  0.00     0.229 C 
HETATM    4  N3  UNL     1      23.000   3.011  51.586  1.00  0.00    -0.272 NA
HETATM    5  C9  UNL     1      23.987   1.961  51.588  1.00  0.00     0.149 C 
HETATM    6  C10 UNL     1      23.848   0.937  52.622  1.00  0.00     0.061 C 
HETATM    7  C11 UNL     1      25.088   0.174  52.824  1.00  0.00     0.005 C 
HETATM    8  C12 UNL     1      26.287   0.548  52.447  1.00  0.00     0.033 C 
HETATM    9  C14 UNL     1      26.425   1.764  51.656  1.00  0.00     0.042 C 
HETATM   10  C15 UNL     1      25.339   2.466  51.309  1.00  0.00     0.015 C 
ENDROOT
BRANCH   1  11
HETATM   11  N1  UNL     1      26.790   3.987  49.984  1.00  0.00    -0.371 N 
HETATM   12  H7  UNL     1      27.694   3.576  50.270  1.00  0.00     0.161 HD
BRANCH  11  13
HETATM   13  C6  UNL     1      26.848   4.966  48.902  1.00  0.00     0.148 C 
BRANCH  13  14
HETATM   14  C5  UNL     1      28.239   5.164  48.492  1.00  0.00    -0.005 C 
BRANCH  14  15
HETATM   15  C4  UNL     1      29.183   5.956  48.013  1.00  0.00     0.025 C 
BRANCH  15  16
HETATM   16  C3  UNL     1      30.393   6.528  48.508  1.00  0.00     0.051 C 
HETATM   17 BR1  UNL     1      32.035   5.719  48.867  1.00  0.00    -0.042 Br
BRANCH  16  18
HETATM   18  C2  UNL     1      30.212   7.828  48.706  1.00  0.00    -0.136 C 
HETATM   19  C1  UNL     1      29.911   9.029  49.182  1.00  0.00     0.098 C 
ENDBRANCH  16  18
ENDBRANCH  15  16
ENDBRANCH  14  15
ENDBRANCH  13  14
ENDBRANCH  11  13
ENDBRANCH   1  11
BRANCH   8  20
HETATM   20  N4  UNL     1      27.408  -0.307  52.727  1.00  0.00    -0.309 N 
HETATM   21  C13 UNL     1      28.123  -0.065  53.944  1.00  0.00     0.318 C 
HETATM   22  N5  UNL     1      29.247  -0.900  54.259  1.00  0.00    -0.352 N 
HETATM   23  O1  UNL     1      27.820   0.850  54.767  1.00  0.00    -0.247 OA
HETATM   24  H14 UNL     1      29.556  -1.233  55.201  1.00  0.00     0.160 HD
HETATM   25  H15 UNL     1      29.855  -1.238  53.477  1.00  0.00     0.160 HD
HETATM   26  H13 UNL     1      27.733  -1.090  52.102  1.00  0.00     0.170 HD
ENDBRANCH   8  20
TORSDOF 7
ENDMDL
