MODEL 1
REMARK VINA RESULT:      -8.9      0.000      0.000
REMARK  3 active torsions:
REMARK  status: ('A' for Active; 'I' for Inactive)
REMARK       I    between atoms: C3_3  and  N1_5 
REMARK    1  A    between atoms: N1_5  and  C4_6 
REMARK    2  A    between atoms: C4_6  and  C5_7 
REMARK    3  A    between atoms: C23_29  and  O2_30 
ROOT
HETATM    1  C1  UNL     1      17.878   4.148  43.342  1.00  0.00     0.019 C 
HETATM    2  C2  UNL     1      18.953   4.073  43.866  1.00  0.00     0.065 C 
HETATM    3  C3  UNL     1      20.364   3.930  44.452  1.00  0.00     0.237 C 
HETATM    4  O1  UNL     1      21.528   3.591  44.301  1.00  0.00    -0.269 OA
HETATM    5  N1  UNL     1      20.559   4.329  45.823  1.00  0.00    -0.357 N 
HETATM    6  H4  UNL     1      19.601   4.660  46.182  1.00  0.00     0.162 HD
ENDROOT
BRANCH   5   7
HETATM    7  C4  UNL     1      20.929   4.672  47.157  1.00  0.00     0.137 C 
BRANCH   7   8
HETATM    8  C5  UNL     1      22.050   4.219  47.828  1.00  0.00     0.069 C 
HETATM    9  C6  UNL     1      22.105   2.754  48.360  1.00  0.00    -0.057 C 
HETATM   10  C7  UNL     1      21.503   1.598  48.206  1.00  0.00     0.020 C 
HETATM   11  C8  UNL     1      23.186   2.393  49.384  1.00  0.00     0.020 C 
HETATM   12  C9  UNL     1      24.240   3.116  49.862  1.00  0.00    -0.006 C 
HETATM   13  C10 UNL     1      24.389   3.144  51.353  1.00  0.00     0.148 C 
HETATM   14  C18 UNL     1      25.307   3.998  49.419  1.00  0.00    -0.011 A 
HETATM   15  N2  UNL     1      24.213   4.179  52.177  1.00  0.00    -0.073 NA
HETATM   16  C11 UNL     1      23.815   5.489  51.599  1.00  0.00     0.742 C 
HETATM   17  N3  UNL     1      23.788   6.621  51.047  1.00  0.00     0.014 NA
HETATM   18  N6  UNL     1      22.619   4.971  52.023  1.00  0.00    -0.194 N 
HETATM   19  N4  UNL     1      22.635   7.392  50.861  1.00  0.00    -0.296 N 
HETATM   20  C12 UNL     1      23.357   8.123  49.829  1.00  0.00     0.174 C 
HETATM   21  H12 UNL     1      21.870   7.079  51.524  1.00  0.00     0.182 HD
HETATM   22  C13 UNL     1      23.725   7.336  48.633  1.00  0.00     0.162 C 
HETATM   23  N5  UNL     1      25.118   7.476  48.277  1.00  0.00    -0.277 NA
HETATM   24  C20 UNL     1      23.686   5.889  48.905  1.00  0.00    -0.011 C 
HETATM   25  C14 UNL     1      25.740   6.370  48.601  1.00  0.00     0.063 A 
HETATM   26  C15 UNL     1      27.078   6.037  48.571  1.00  0.00     0.032 A 
HETATM   27  C19 UNL     1      24.923   5.324  49.019  1.00  0.00     0.012 A 
HETATM   28  C16 UNL     1      27.517   4.753  48.940  1.00  0.00     0.003 A 
HETATM   29  C17 UNL     1      26.624   3.838  49.330  1.00  0.00     0.013 A 
HETATM   30  C21 UNL     1      22.597   4.958  48.996  1.00  0.00    -0.036 C 
HETATM   31  C22 UNL     1      21.780   4.468  49.916  1.00  0.00     0.046 C 
HETATM   32  C23 UNL     1      21.032   4.079  51.098  1.00  0.00     0.084 C 
HETATM   33  C25 UNL     1      21.412   4.363  52.390  1.00  0.00     0.143 C 
HETATM   34  H24 UNL     1      22.298   5.671  52.804  1.00  0.00     0.183 HD
BRANCH  32  35
HETATM   35  O2  UNL     1      19.823   3.380  51.301  1.00  0.00    -0.355 OA
HETATM   36  C24 UNL     1      19.923   1.984  51.638  1.00  0.00     0.210 C 
ENDBRANCH  32  35
ENDBRANCH   7   8
ENDBRANCH   5   7
TORSDOF 3
ENDMDL
MODEL 2
REMARK VINA RESULT:      -8.8      1.535      2.202
REMARK  3 active torsions:
REMARK  status: ('A' for Active; 'I' for Inactive)
REMARK       I    between atoms: C3_3  and  N1_5 
REMARK    1  A    between atoms: N1_5  and  C4_6 
REMARK    2  A    between atoms: C4_6  and  C5_7 
REMARK    3  A    between atoms: C23_29  and  O2_30 
ROOT
HETATM    1  C1  UNL     1      19.758   8.847  49.789  1.00  0.00     0.019 C 
HETATM    2  C2  UNL     1      19.737   8.179  48.794  1.00  0.00     0.065 C 
HETATM    3  C3  UNL     1      19.649   7.393  47.479  1.00  0.00     0.237 C 
HETATM    4  O1  UNL     1      19.232   7.318  46.334  1.00  0.00    -0.269 OA
HETATM    5  N1  UNL     1      20.304   6.110  47.425  1.00  0.00    -0.357 N 
HETATM    6  H4  UNL     1      20.745   5.953  48.392  1.00  0.00     0.162 HD
ENDROOT
BRANCH   5   7
HETATM    7  C4  UNL     1      20.889   4.830  47.196  1.00  0.00     0.137 C 
BRANCH   7   8
HETATM    8  C5  UNL     1      22.008   4.326  47.835  1.00  0.00     0.069 C 
HETATM    9  C6  UNL     1      22.033   2.843  48.316  1.00  0.00    -0.057 C 
HETATM   10  C7  UNL     1      21.400   1.708  48.132  1.00  0.00     0.020 C 
HETATM   11  C8  UNL     1      23.118   2.421  49.312  1.00  0.00     0.020 C 
HETATM   12  C9  UNL     1      24.196   3.100  49.799  1.00  0.00    -0.006 C 
HETATM   13  C10 UNL     1      24.366   3.073  51.288  1.00  0.00     0.148 C 
HETATM   14  C18 UNL     1      25.280   3.970  49.370  1.00  0.00    -0.011 A 
HETATM   15  N2  UNL     1      24.228   4.084  52.149  1.00  0.00    -0.073 NA
HETATM   16  C11 UNL     1      23.855   5.422  51.622  1.00  0.00     0.742 C 
HETATM   17  N3  UNL     1      23.849   6.572  51.109  1.00  0.00     0.014 NA
HETATM   18  N6  UNL     1      22.653   4.920  52.045  1.00  0.00    -0.194 N 
HETATM   19  N4  UNL     1      22.714   7.378  50.966  1.00  0.00    -0.296 N 
HETATM   20  C12 UNL     1      23.440   8.126  49.949  1.00  0.00     0.174 C 
HETATM   21  H12 UNL     1      21.950   7.061  51.629  1.00  0.00     0.182 HD
HETATM   22  C13 UNL     1      23.771   7.372  48.722  1.00  0.00     0.162 C 
HETATM   23  N5  UNL     1      25.163   7.489  48.351  1.00  0.00    -0.277 NA
HETATM   24  C20 UNL     1      23.700   5.918  48.945  1.00  0.00    -0.011 C 
HETATM   25  C14 UNL     1      25.761   6.357  48.628  1.00  0.00     0.063 A 
HETATM   26  C15 UNL     1      27.089   5.993  48.568  1.00  0.00     0.032 A 
HETATM   27  C19 UNL     1      24.923   5.318  49.021  1.00  0.00     0.012 A 
HETATM   28  C16 UNL     1      27.501   4.686  48.886  1.00  0.00     0.003 A 
HETATM   29  C17 UNL     1      26.591   3.781  49.257  1.00  0.00     0.013 A 
HETATM   30  C21 UNL     1      22.589   5.010  49.020  1.00  0.00    -0.036 C 
HETATM   31  C22 UNL     1      21.773   4.510  49.934  1.00  0.00     0.046 C 
HETATM   32  C23 UNL     1      21.031   4.099  51.114  1.00  0.00     0.084 C 
HETATM   33  C25 UNL     1      21.436   4.330  52.409  1.00  0.00     0.143 C 
HETATM   34  H24 UNL     1      22.360   5.599  52.854  1.00  0.00     0.183 HD
BRANCH  32  35
HETATM   35  O2  UNL     1      19.808   3.424  51.310  1.00  0.00    -0.355 OA
HETATM   36  C24 UNL     1      19.877   2.014  51.597  1.00  0.00     0.210 C 
ENDBRANCH  32  35
ENDBRANCH   7   8
ENDBRANCH   5   7
TORSDOF 3
ENDMDL
MODEL 3
REMARK VINA RESULT:      -8.8      6.676     10.231
REMARK  3 active torsions:
REMARK  status: ('A' for Active; 'I' for Inactive)
REMARK       I    between atoms: C3_3  and  N1_5 
REMARK    1  A    between atoms: N1_5  and  C4_6 
REMARK    2  A    between atoms: C4_6  and  C5_7 
REMARK    3  A    between atoms: C23_29  and  O2_30 
ROOT
HETATM    1  C1  UNL     1      32.764   3.194  46.355  1.00  0.00     0.019 C 
HETATM    2  C2  UNL     1      33.029   4.118  45.637  1.00  0.00     0.065 C 
HETATM    3  C3  UNL     1      33.458   5.258  44.704  1.00  0.00     0.237 C 
HETATM    4  O1  UNL     1      34.301   5.736  43.960  1.00  0.00    -0.269 OA
HETATM    5  N1  UNL     1      32.551   6.366  44.544  1.00  0.00    -0.357 N 
HETATM    6  H4  UNL     1      31.700   6.153  45.165  1.00  0.00     0.162 HD
ENDROOT
BRANCH   5   7
HETATM    7  C4  UNL     1      31.780   7.534  44.272  1.00  0.00     0.137 C 
BRANCH   7   8
HETATM    8  C5  UNL     1      30.647   7.934  44.958  1.00  0.00     0.069 C 
HETATM    9  C6  UNL     1      29.893   9.233  44.535  1.00  0.00    -0.057 C 
HETATM   10  C7  UNL     1      29.802  10.066  43.526  1.00  0.00     0.020 C 
HETATM   11  C8  UNL     1      28.873   9.830  45.510  1.00  0.00     0.020 C 
HETATM   12  C9  UNL     1      28.385   9.356  46.692  1.00  0.00    -0.006 C 
HETATM   13  C10 UNL     1      28.400  10.324  47.837  1.00  0.00     0.148 C 
HETATM   14  C18 UNL     1      27.888   8.138  47.311  1.00  0.00    -0.011 A 
HETATM   15  N2  UNL     1      29.151  10.280  48.940  1.00  0.00    -0.073 NA
HETATM   16  C11 UNL     1      30.114   9.161  49.101  1.00  0.00     0.742 C 
HETATM   17  N3  UNL     1      30.671   8.055  49.333  1.00  0.00     0.014 NA
HETATM   18  N6  UNL     1      30.906  10.171  48.621  1.00  0.00    -0.194 N 
HETATM   19  N4  UNL     1      32.036   7.795  49.161  1.00  0.00    -0.296 N 
HETATM   20  C12 UNL     1      31.706   6.377  49.131  1.00  0.00     0.174 C 
HETATM   21  H12 UNL     1      32.585   8.701  49.144  1.00  0.00     0.182 HD
HETATM   22  C13 UNL     1      30.886   5.940  47.981  1.00  0.00     0.162 C 
HETATM   23  N5  UNL     1      29.737   5.158  48.377  1.00  0.00    -0.277 NA
HETATM   24  C20 UNL     1      30.199   7.077  47.344  1.00  0.00    -0.011 C 
HETATM   25  C14 UNL     1      28.666   5.900  48.241  1.00  0.00     0.063 A 
HETATM   26  C15 UNL     1      27.350   5.667  48.581  1.00  0.00     0.032 A 
HETATM   27  C19 UNL     1      28.863   7.126  47.614  1.00  0.00     0.012 A 
HETATM   28  C16 UNL     1      26.347   6.613  48.301  1.00  0.00     0.003 A 
HETATM   29  C17 UNL     1      26.674   7.759  47.698  1.00  0.00     0.013 A 
HETATM   30  C21 UNL     1      30.659   8.090  46.436  1.00  0.00    -0.036 C 
HETATM   31  C22 UNL     1      31.184   9.305  46.483  1.00  0.00     0.046 C 
HETATM   32  C23 UNL     1      31.724  10.615  46.804  1.00  0.00     0.084 C 
HETATM   33  C25 UNL     1      31.656  11.204  48.046  1.00  0.00     0.143 C 
HETATM   34  H24 UNL     1      31.606  10.362  49.443  1.00  0.00     0.183 HD
BRANCH  32  35
HETATM   35  O2  UNL     1      32.415  11.593  46.059  1.00  0.00    -0.355 OA
HETATM   36  C24 UNL     1      33.094  11.151  44.868  1.00  0.00     0.210 C 
ENDBRANCH  32  35
ENDBRANCH   7   8
ENDBRANCH   5   7
TORSDOF 3
ENDMDL
MODEL 4
REMARK VINA RESULT:      -8.8      1.866      3.280
REMARK  3 active torsions:
REMARK  status: ('A' for Active; 'I' for Inactive)
REMARK       I    between atoms: C3_3  and  N1_5 
REMARK    1  A    between atoms: N1_5  and  C4_6 
REMARK    2  A    between atoms: C4_6  and  C5_7 
REMARK    3  A    between atoms: C23_29  and  O2_30 
ROOT
HETATM    1  C1  UNL     1      22.103   6.993  46.368  1.00  0.00     0.019 C 
HETATM    2  C2  UNL     1      22.040   5.836  46.060  1.00  0.00     0.065 C 
HETATM    3  C3  UNL     1      21.918   4.384  45.579  1.00  0.00     0.237 C 
HETATM    4  O1  UNL     1      21.608   3.601  44.694  1.00  0.00    -0.269 OA
HETATM    5  N1  UNL     1      22.289   3.343  46.503  1.00  0.00    -0.357 N 
HETATM    6  H4  UNL     1      22.589   3.834  47.410  1.00  0.00     0.162 HD
ENDROOT
BRANCH   5   7
HETATM    7  C4  UNL     1      22.610   2.192  47.282  1.00  0.00     0.137 C 
BRANCH   7   8
HETATM    8  C5  UNL     1      22.664   2.140  48.663  1.00  0.00     0.069 C 
HETATM    9  C6  UNL     1      21.374   1.841  49.487  1.00  0.00    -0.057 C 
HETATM   10  C7  UNL     1      20.164   1.358  49.333  1.00  0.00     0.020 C 
HETATM   11  C8  UNL     1      21.389   2.134  50.991  1.00  0.00     0.020 C 
HETATM   12  C9  UNL     1      22.405   2.518  51.816  1.00  0.00    -0.006 C 
HETATM   13  C10 UNL     1      22.114   3.688  52.707  1.00  0.00     0.148 C 
HETATM   14  C18 UNL     1      23.799   2.232  52.112  1.00  0.00    -0.011 A 
HETATM   15  N2  UNL     1      22.637   4.914  52.651  1.00  0.00    -0.073 NA
HETATM   16  C11 UNL     1      23.631   5.216  51.589  1.00  0.00     0.742 C 
HETATM   17  N3  UNL     1      24.673   5.328  50.890  1.00  0.00     0.014 NA
HETATM   18  N6  UNL     1      22.468   5.706  51.058  1.00  0.00    -0.194 N 
HETATM   19  N4  UNL     1      24.731   5.936  49.631  1.00  0.00    -0.296 N 
HETATM   20  C12 UNL     1      25.975   5.216  49.400  1.00  0.00     0.174 C 
HETATM   21  H12 UNL     1      23.896   6.575  49.492  1.00  0.00     0.182 HD
HETATM   22  C13 UNL     1      25.852   3.744  49.325  1.00  0.00     0.162 C 
HETATM   23  N5  UNL     1      26.799   3.059  50.174  1.00  0.00    -0.277 NA
HETATM   24  C20 UNL     1      24.595   3.275  49.933  1.00  0.00    -0.011 C 
HETATM   25  C14 UNL     1      26.154   2.577  51.207  1.00  0.00     0.063 A 
HETATM   26  C15 UNL     1      26.605   1.945  52.347  1.00  0.00     0.032 A 
HETATM   27  C19 UNL     1      24.768   2.680  51.149  1.00  0.00     0.012 A 
HETATM   28  C16 UNL     1      25.708   1.474  53.322  1.00  0.00     0.003 A 
HETATM   29  C17 UNL     1      24.394   1.643  53.144  1.00  0.00     0.013 A 
HETATM   30  C21 UNL     1      23.242   3.260  49.452  1.00  0.00    -0.036 C 
HETATM   31  C22 UNL     1      22.171   4.039  49.468  1.00  0.00     0.046 C 
HETATM   32  C23 UNL     1      21.149   5.056  49.641  1.00  0.00     0.084 C 
HETATM   33  C25 UNL     1      21.240   6.111  50.520  1.00  0.00     0.143 C 
HETATM   34  H24 UNL     1      22.653   6.784  50.981  1.00  0.00     0.183 HD
BRANCH  32  35
HETATM   35  O2  UNL     1      19.890   5.285  49.046  1.00  0.00    -0.355 OA
HETATM   36  C24 UNL     1      18.731   4.832  49.771  1.00  0.00     0.210 C 
ENDBRANCH  32  35
ENDBRANCH   7   8
ENDBRANCH   5   7
TORSDOF 3
ENDMDL
MODEL 5
REMARK VINA RESULT:      -8.4      1.306      1.551
REMARK  3 active torsions:
REMARK  status: ('A' for Active; 'I' for Inactive)
REMARK       I    between atoms: C3_3  and  N1_5 
REMARK    1  A    between atoms: N1_5  and  C4_6 
REMARK    2  A    between atoms: C4_6  and  C5_7 
REMARK    3  A    between atoms: C23_29  and  O2_30 
ROOT
HETATM    1  C1  UNL     1      22.921   7.467  43.653  1.00  0.00     0.019 C 
HETATM    2  C2  UNL     1      21.989   6.946  44.200  1.00  0.00     0.065 C 
HETATM    3  C3  UNL     1      20.736   6.330  44.836  1.00  0.00     0.237 C 
HETATM    4  O1  UNL     1      19.522   6.201  44.835  1.00  0.00    -0.269 OA
HETATM    5  N1  UNL     1      20.918   5.504  46.002  1.00  0.00    -0.357 N 
HETATM    6  H4  UNL     1      21.973   5.497  46.207  1.00  0.00     0.162 HD
ENDROOT
BRANCH   5   7
HETATM    7  C4  UNL     1      20.914   4.666  47.155  1.00  0.00     0.137 C 
BRANCH   7   8
HETATM    8  C5  UNL     1      22.033   4.205  47.825  1.00  0.00     0.069 C 
HETATM    9  C6  UNL     1      22.084   2.736  48.347  1.00  0.00    -0.057 C 
HETATM   10  C7  UNL     1      21.479   1.583  48.185  1.00  0.00     0.020 C 
HETATM   11  C8  UNL     1      23.162   2.366  49.370  1.00  0.00     0.020 C 
HETATM   12  C9  UNL     1      24.218   3.082  49.854  1.00  0.00    -0.006 C 
HETATM   13  C10 UNL     1      24.364   3.100  51.346  1.00  0.00     0.148 C 
HETATM   14  C18 UNL     1      25.288   3.964  49.418  1.00  0.00    -0.011 A 
HETATM   15  N2  UNL     1      24.191   4.130  52.177  1.00  0.00    -0.073 NA
HETATM   16  C11 UNL     1      23.797   5.444  51.607  1.00  0.00     0.742 C 
HETATM   17  N3  UNL     1      23.773   6.580  51.063  1.00  0.00     0.014 NA
HETATM   18  N6  UNL     1      22.599   4.927  52.026  1.00  0.00    -0.194 N 
HETATM   19  N4  UNL     1      22.623   7.356  50.880  1.00  0.00    -0.296 N 
HETATM   20  C12 UNL     1      23.348   8.092  49.855  1.00  0.00     0.174 C 
HETATM   21  H12 UNL     1      21.856   7.040  51.540  1.00  0.00     0.182 HD
HETATM   22  C13 UNL     1      23.715   7.312  48.653  1.00  0.00     0.162 C 
HETATM   23  N5  UNL     1      25.110   7.451  48.300  1.00  0.00    -0.277 NA
HETATM   24  C20 UNL     1      23.673   5.864  48.915  1.00  0.00    -0.011 C 
HETATM   25  C14 UNL     1      25.728   6.340  48.618  1.00  0.00     0.063 A 
HETATM   26  C15 UNL     1      27.065   6.005  48.587  1.00  0.00     0.032 A 
HETATM   27  C19 UNL     1      24.908   5.294  49.027  1.00  0.00     0.012 A 
HETATM   28  C16 UNL     1      27.500   4.717  48.948  1.00  0.00     0.003 A 
HETATM   29  C17 UNL     1      26.604   3.802  49.330  1.00  0.00     0.013 A 
HETATM   30  C21 UNL     1      22.581   4.934  48.999  1.00  0.00    -0.036 C 
HETATM   31  C22 UNL     1      21.762   4.440  49.914  1.00  0.00     0.046 C 
HETATM   32  C23 UNL     1      21.011   4.046  51.093  1.00  0.00     0.084 C 
HETATM   33  C25 UNL     1      21.390   4.320  52.387  1.00  0.00     0.143 C 
HETATM   34  H24 UNL     1      22.278   5.622  52.812  1.00  0.00     0.183 HD
BRANCH  32  35
HETATM   35  O2  UNL     1      19.800   3.349  51.290  1.00  0.00    -0.355 OA
HETATM   36  C24 UNL     1      18.585   4.033  50.928  1.00  0.00     0.210 C 
ENDBRANCH  32  35
ENDBRANCH   7   8
ENDBRANCH   5   7
TORSDOF 3
ENDMDL
MODEL 6
REMARK VINA RESULT:      -8.3      8.359     11.977
REMARK  3 active torsions:
REMARK  status: ('A' for Active; 'I' for Inactive)
REMARK       I    between atoms: C3_3  and  N1_5 
REMARK    1  A    between atoms: N1_5  and  C4_6 
REMARK    2  A    between atoms: C4_6  and  C5_7 
REMARK    3  A    between atoms: C23_29  and  O2_30 
ROOT
HETATM    1  C1  UNL     1      34.364   1.629  39.785  1.00  0.00     0.019 C 
HETATM    2  C2  UNL     1      33.775   2.554  40.270  1.00  0.00     0.065 C 
HETATM    3  C3  UNL     1      32.963   3.740  40.808  1.00  0.00     0.237 C 
HETATM    4  O1  UNL     1      32.028   4.514  40.668  1.00  0.00    -0.269 OA
HETATM    5  N1  UNL     1      33.399   4.340  42.043  1.00  0.00    -0.357 N 
HETATM    6  H4  UNL     1      34.275   3.799  42.351  1.00  0.00     0.162 HD
ENDROOT
BRANCH   5   7
HETATM    7  C4  UNL     1      33.688   5.051  43.245  1.00  0.00     0.137 C 
BRANCH   7   8
HETATM    8  C5  UNL     1      32.817   5.888  43.919  1.00  0.00     0.069 C 
HETATM    9  C6  UNL     1      32.320   7.206  43.250  1.00  0.00    -0.057 C 
HETATM   10  C7  UNL     1      32.246   7.776  42.070  1.00  0.00     0.020 C 
HETATM   11  C8  UNL     1      31.654   8.264  44.135  1.00  0.00     0.020 C 
HETATM   12  C9  UNL     1      31.286   8.226  45.449  1.00  0.00    -0.006 C 
HETATM   13  C10 UNL     1      31.725   9.391  46.282  1.00  0.00     0.148 C 
HETATM   14  C18 UNL     1      30.639   7.363  46.423  1.00  0.00    -0.011 A 
HETATM   15  N2  UNL     1      32.629   9.405  47.265  1.00  0.00    -0.073 NA
HETATM   16  C11 UNL     1      33.320   8.137  47.612  1.00  0.00     0.742 C 
HETATM   17  N3  UNL     1      33.640   7.008  48.069  1.00  0.00     0.014 NA
HETATM   18  N6  UNL     1      34.226   8.758  46.794  1.00  0.00    -0.194 N 
HETATM   19  N4  UNL     1      34.855   6.359  47.823  1.00  0.00    -0.296 N 
HETATM   20  C12 UNL     1      34.207   5.114  48.212  1.00  0.00     0.174 C 
HETATM   21  H12 UNL     1      35.587   7.056  47.502  1.00  0.00     0.182 HD
HETATM   22  C13 UNL     1      33.119   4.659  47.321  1.00  0.00     0.162 C 
HETATM   23  N5  UNL     1      31.909   4.328  48.038  1.00  0.00    -0.277 NA
HETATM   24  C20 UNL     1      32.611   5.759  46.482  1.00  0.00    -0.011 C 
HETATM   25  C14 UNL     1      31.031   5.276  47.828  1.00  0.00     0.063 A 
HETATM   26  C15 UNL     1      29.779   5.490  48.363  1.00  0.00     0.032 A 
HETATM   27  C19 UNL     1      31.392   6.226  46.877  1.00  0.00     0.012 A 
HETATM   28  C16 UNL     1      28.988   6.579  47.953  1.00  0.00     0.003 A 
HETATM   29  C17 UNL     1      29.458   7.424  47.031  1.00  0.00     0.013 A 
HETATM   30  C21 UNL     1      33.125   6.373  45.290  1.00  0.00    -0.036 C 
HETATM   31  C22 UNL     1      33.915   7.379  44.950  1.00  0.00     0.046 C 
HETATM   32  C23 UNL     1      34.791   8.533  44.844  1.00  0.00     0.084 C 
HETATM   33  C25 UNL     1      35.081   9.390  45.881  1.00  0.00     0.143 C 
HETATM   34  H24 UNL     1      35.086   8.940  47.451  1.00  0.00     0.183 HD
BRANCH  32  35
HETATM   35  O2  UNL     1      35.546   9.091  43.791  1.00  0.00    -0.355 OA
HETATM   36  C24 UNL     1      35.901   8.214  42.704  1.00  0.00     0.210 C 
ENDBRANCH  32  35
ENDBRANCH   7   8
ENDBRANCH   5   7
TORSDOF 3
ENDMDL
MODEL 7
REMARK VINA RESULT:      -8.2      5.994      9.058
REMARK  3 active torsions:
REMARK  status: ('A' for Active; 'I' for Inactive)
REMARK       I    between atoms: C3_3  and  N1_5 
REMARK    1  A    between atoms: N1_5  and  C4_6 
REMARK    2  A    between atoms: C4_6  and  C5_7 
REMARK    3  A    between atoms: C23_29  and  O2_30 
ROOT
HETATM    1  C1  UNL     1      32.865  11.341  46.486  1.00  0.00     0.019 C 
HETATM    2  C2  UNL     1      32.282  10.859  45.556  1.00  0.00     0.065 C 
HETATM    3  C3  UNL     1      31.620  10.250  44.313  1.00  0.00     0.237 C 
HETATM    4  O1  UNL     1      31.725   9.861  43.160  1.00  0.00    -0.269 OA
HETATM    5  N1  UNL     1      30.210   9.963  44.382  1.00  0.00    -0.357 N 
HETATM    6  H4  UNL     1      29.885  10.267  45.360  1.00  0.00     0.162 HD
ENDROOT
BRANCH   5   7
HETATM    7  C4  UNL     1      28.830   9.620  44.274  1.00  0.00     0.137 C 
BRANCH   7   8
HETATM    8  C5  UNL     1      28.027   9.166  45.305  1.00  0.00     0.069 C 
HETATM    9  C6  UNL     1      26.613   9.786  45.528  1.00  0.00    -0.057 C 
HETATM   10  C7  UNL     1      25.717  10.514  44.904  1.00  0.00     0.020 C 
HETATM   11  C8  UNL     1      25.906   9.520  46.861  1.00  0.00     0.020 C 
HETATM   12  C9  UNL     1      26.241   8.704  47.902  1.00  0.00    -0.006 C 
HETATM   13  C10 UNL     1      26.193   9.331  49.263  1.00  0.00     0.148 C 
HETATM   14  C18 UNL     1      26.737   7.367  48.184  1.00  0.00    -0.011 A 
HETATM   15  N2  UNL     1      27.215   9.612  50.073  1.00  0.00    -0.073 NA
HETATM   16  C11 UNL     1      28.593   9.291  49.619  1.00  0.00     0.742 C 
HETATM   17  N3  UNL     1      29.682   8.728  49.332  1.00  0.00     0.014 NA
HETATM   18  N6  UNL     1      28.483  10.625  49.324  1.00  0.00    -0.194 N 
HETATM   19  N4  UNL     1      30.788   9.367  48.761  1.00  0.00    -0.296 N 
HETATM   20  C12 UNL     1      31.264   8.056  48.346  1.00  0.00     0.174 C 
HETATM   21  H12 UNL     1      30.727  10.415  48.913  1.00  0.00     0.182 HD
HETATM   22  C13 UNL     1      30.421   7.361  47.349  1.00  0.00     0.162 C 
HETATM   23  N5  UNL     1      30.109   6.002  47.730  1.00  0.00    -0.277 NA
HETATM   24  C20 UNL     1      29.060   7.921  47.308  1.00  0.00    -0.011 C 
HETATM   25  C14 UNL     1      28.855   5.957  48.108  1.00  0.00     0.063 A 
HETATM   26  C15 UNL     1      28.109   4.937  48.659  1.00  0.00     0.032 A 
HETATM   27  C19 UNL     1      28.123   7.120  47.893  1.00  0.00     0.012 A 
HETATM   28  C16 UNL     1      26.745   5.112  48.957  1.00  0.00     0.003 A 
HETATM   29  C17 UNL     1      26.162   6.288  48.705  1.00  0.00     0.013 A 
HETATM   30  C21 UNL     1      28.529   9.110  46.703  1.00  0.00    -0.036 C 
HETATM   31  C22 UNL     1      28.313  10.378  47.020  1.00  0.00     0.046 C 
HETATM   32  C23 UNL     1      28.167  11.695  47.614  1.00  0.00     0.084 C 
HETATM   33  C25 UNL     1      28.291  11.963  48.958  1.00  0.00     0.143 C 
HETATM   34  H24 UNL     1      29.235  11.095  49.969  1.00  0.00     0.183 HD
BRANCH  32  35
HETATM   35  O2  UNL     1      27.894  12.976  47.090  1.00  0.00    -0.355 OA
HETATM   36  C24 UNL     1      26.996  13.814  47.843  1.00  0.00     0.210 C 
ENDBRANCH  32  35
ENDBRANCH   7   8
ENDBRANCH   5   7
TORSDOF 3
ENDMDL
MODEL 8
REMARK VINA RESULT:      -7.8      5.653      8.667
REMARK  3 active torsions:
REMARK  status: ('A' for Active; 'I' for Inactive)
REMARK       I    between atoms: C3_3  and  N1_5 
REMARK    1  A    between atoms: N1_5  and  C4_6 
REMARK    2  A    between atoms: C4_6  and  C5_7 
REMARK    3  A    between atoms: C23_29  and  O2_30 
ROOT
HETATM    1  C1  UNL     1      23.433   7.497  46.785  1.00  0.00     0.019 C 
HETATM    2  C2  UNL     1      24.273   7.964  46.069  1.00  0.00     0.065 C 
HETATM    3  C3  UNL     1      25.276   8.581  45.085  1.00  0.00     0.237 C 
HETATM    4  O1  UNL     1      25.483   9.145  44.021  1.00  0.00    -0.269 OA
HETATM    5  N1  UNL     1      26.673   8.530  45.437  1.00  0.00    -0.357 N 
HETATM    6  H4  UNL     1      26.729   8.024  46.384  1.00  0.00     0.162 HD
ENDROOT
BRANCH   5   7
HETATM    7  C4  UNL     1      28.086   8.565  45.624  1.00  0.00     0.137 C 
BRANCH   7   8
HETATM    8  C5  UNL     1      28.845   7.589  46.245  1.00  0.00     0.069 C 
HETATM    9  C6  UNL     1      28.307   6.873  47.522  1.00  0.00    -0.057 C 
HETATM   10  C7  UNL     1      27.187   6.679  48.178  1.00  0.00     0.020 C 
HETATM   11  C8  UNL     1      29.295   6.069  48.373  1.00  0.00     0.020 C 
HETATM   12  C9  UNL     1      30.603   5.745  48.157  1.00  0.00    -0.006 C 
HETATM   13  C10 UNL     1      31.538   6.014  49.298  1.00  0.00     0.148 C 
HETATM   14  C18 UNL     1      31.499   5.269  47.117  1.00  0.00    -0.011 A 
HETATM   15  N2  UNL     1      32.507   6.929  49.367  1.00  0.00    -0.073 NA
HETATM   16  C11 UNL     1      32.727   7.822  48.200  1.00  0.00     0.742 C 
HETATM   17  N3  UNL     1      33.073   8.329  47.100  1.00  0.00     0.014 NA
HETATM   18  N6  UNL     1      31.961   8.597  49.031  1.00  0.00    -0.194 N 
HETATM   19  N4  UNL     1      32.754   9.625  46.680  1.00  0.00    -0.296 N 
HETATM   20  C12 UNL     1      33.032   9.194  45.318  1.00  0.00     0.174 C 
HETATM   21  H12 UNL     1      32.492  10.228  47.512  1.00  0.00     0.182 HD
HETATM   22  C13 UNL     1      32.113   8.169  44.777  1.00  0.00     0.162 C 
HETATM   23  N5  UNL     1      32.809   7.047  44.191  1.00  0.00    -0.277 NA
HETATM   24  C20 UNL     1      31.387   7.472  45.852  1.00  0.00    -0.011 C 
HETATM   25  C14 UNL     1      32.697   6.024  45.001  1.00  0.00     0.063 A 
HETATM   26  C15 UNL     1      33.263   4.767  44.961  1.00  0.00     0.032 A 
HETATM   27  C19 UNL     1      31.836   6.204  46.079  1.00  0.00     0.012 A 
HETATM   28  C16 UNL     1      32.966   3.803  45.941  1.00  0.00     0.003 A 
HETATM   29  C17 UNL     1      32.122   4.109  46.931  1.00  0.00     0.013 A 
HETATM   30  C21 UNL     1      30.252   7.851  46.647  1.00  0.00    -0.036 C 
HETATM   31  C22 UNL     1      29.999   8.462  47.794  1.00  0.00     0.046 C 
HETATM   32  C23 UNL     1      29.994   9.140  49.078  1.00  0.00     0.084 C 
HETATM   33  C25 UNL     1      31.103   9.316  49.873  1.00  0.00     0.143 C 
HETATM   34  H24 UNL     1      32.623   9.432  49.289  1.00  0.00     0.183 HD
BRANCH  32  35
HETATM   35  O2  UNL     1      28.990   9.771  49.843  1.00  0.00    -0.355 OA
HETATM   36  C24 UNL     1      27.837  10.262  49.133  1.00  0.00     0.210 C 
ENDBRANCH  32  35
ENDBRANCH   7   8
ENDBRANCH   5   7
TORSDOF 3
ENDMDL
MODEL 9
REMARK VINA RESULT:      -7.8      4.838      8.750
REMARK  3 active torsions:
REMARK  status: ('A' for Active; 'I' for Inactive)
REMARK       I    between atoms: C3_3  and  N1_5 
REMARK    1  A    between atoms: N1_5  and  C4_6 
REMARK    2  A    between atoms: C4_6  and  C5_7 
REMARK    3  A    between atoms: C23_29  and  O2_30 
ROOT
HETATM    1  C1  UNL     1      33.367   9.283  47.524  1.00  0.00     0.019 C 
HETATM    2  C2  UNL     1      32.822   8.322  47.988  1.00  0.00     0.065 C 
HETATM    3  C3  UNL     1      32.213   7.065  48.625  1.00  0.00     0.237 C 
HETATM    4  O1  UNL     1      32.348   6.093  49.352  1.00  0.00    -0.269 OA
HETATM    5  N1  UNL     1      30.850   6.740  48.286  1.00  0.00    -0.357 N 
HETATM    6  H4  UNL     1      30.520   7.497  47.597  1.00  0.00     0.162 HD
ENDROOT
BRANCH   5   7
HETATM    7  C4  UNL     1      29.523   6.271  48.061  1.00  0.00     0.137 C 
BRANCH   7   8
HETATM    8  C5  UNL     1      28.537   6.938  47.356  1.00  0.00     0.069 C 
HETATM    9  C6  UNL     1      28.920   7.875  46.169  1.00  0.00    -0.057 C 
HETATM   10  C7  UNL     1      29.926   8.130  45.365  1.00  0.00     0.020 C 
HETATM   11  C8  UNL     1      27.865   8.854  45.646  1.00  0.00     0.020 C 
HETATM   12  C9  UNL     1      26.544   8.993  45.959  1.00  0.00    -0.006 C 
HETATM   13  C10 UNL     1      26.092  10.388  46.272  1.00  0.00     0.148 C 
HETATM   14  C18 UNL     1      25.341   8.209  46.189  1.00  0.00    -0.011 A 
HETATM   15  N2  UNL     1      25.697  10.879  47.449  1.00  0.00    -0.073 NA
HETATM   16  C11 UNL     1      25.692   9.977  48.630  1.00  0.00     0.742 C 
HETATM   17  N3  UNL     1      25.411   9.118  49.508  1.00  0.00     0.014 NA
HETATM   18  N6  UNL     1      26.880  10.646  48.769  1.00  0.00    -0.194 N 
HETATM   19  N4  UNL     1      26.207   8.819  50.619  1.00  0.00    -0.296 N 
HETATM   20  C12 UNL     1      25.495   7.554  50.721  1.00  0.00     0.174 C 
HETATM   21  H12 UNL     1      26.881   9.615  50.815  1.00  0.00     0.182 HD
HETATM   22  C13 UNL     1      25.700   6.617  49.596  1.00  0.00     0.162 C 
HETATM   23  N5  UNL     1      24.459   6.107  49.059  1.00  0.00    -0.277 NA
HETATM   24  C20 UNL     1      26.214   7.310  48.402  1.00  0.00    -0.011 C 
HETATM   25  C14 UNL     1      24.239   6.686  47.905  1.00  0.00     0.063 A 
HETATM   26  C15 UNL     1      23.156   6.631  47.053  1.00  0.00     0.032 A 
HETATM   27  C19 UNL     1      25.280   7.471  47.421  1.00  0.00     0.012 A 
HETATM   28  C16 UNL     1      23.159   7.323  45.828  1.00  0.00     0.003 A 
HETATM   29  C17 UNL     1      24.226   8.049  45.484  1.00  0.00     0.013 A 
HETATM   30  C21 UNL     1      27.527   7.776  48.054  1.00  0.00    -0.036 C 
HETATM   31  C22 UNL     1      28.260   8.873  48.177  1.00  0.00     0.046 C 
HETATM   32  C23 UNL     1      28.838  10.183  48.422  1.00  0.00     0.084 C 
HETATM   33  C25 UNL     1      28.123  11.289  48.819  1.00  0.00     0.143 C 
HETATM   34  H24 UNL     1      26.751  11.210  49.700  1.00  0.00     0.183 HD
BRANCH  32  35
HETATM   35  O2  UNL     1      30.150  10.697  48.355  1.00  0.00    -0.355 OA
HETATM   36  C24 UNL     1      30.434  11.629  47.294  1.00  0.00     0.210 C 
ENDBRANCH  32  35
ENDBRANCH   7   8
ENDBRANCH   5   7
TORSDOF 3
ENDMDL
