MODEL 1
REMARK VINA RESULT:      -7.6      0.000      0.000
REMARK  7 active torsions:
REMARK  status: ('A' for Active; 'I' for Inactive)
REMARK    1  A    between atoms: C2_2  and  C3_3 
REMARK    2  A    between atoms: C3_3  and  C4_4 
REMARK    3  A    between atoms: C4_4  and  C5_5 
REMARK    4  A    between atoms: C5_5  and  C6_6 
REMARK    5  A    between atoms: C6_6  and  N1_7 
REMARK    6  A    between atoms: C9_13  and  C10_14 
REMARK    7  A    between atoms: C10_14  and  C11_15 
ROOT
HETATM    1  N1  UNL     1      24.839   4.158  50.264  1.00  0.00    -0.279 N 
HETATM    2  N2  UNL     1      24.848   5.458  50.812  1.00  0.00    -0.291 N 
HETATM    3  C7  UNL     1      23.843   6.102  51.589  1.00  0.00     0.225 C 
HETATM    4  N3  UNL     1      22.747   5.423  51.856  1.00  0.00    -0.225 NA
HETATM    5  C8  UNL     1      22.662   4.079  51.338  1.00  0.00     0.156 A 
HETATM    6  N4  UNL     1      22.044   2.992  51.658  1.00  0.00    -0.235 NA
HETATM    7  C9  UNL     1      22.323   1.928  50.791  1.00  0.00     0.039 A 
HETATM    8  C17 UNL     1      23.175   2.385  49.862  1.00  0.00     0.035 A 
HETATM    9  C18 UNL     1      23.464   3.799  50.126  1.00  0.00     0.204 A 
HETATM   10  H8  UNL     1      25.706   6.072  50.652  1.00  0.00     0.188 HD
ENDROOT
BRANCH   7  11
HETATM   11  C10 UNL     1      21.736   0.595  51.006  1.00  0.00     0.099 C 
BRANCH  11  12
HETATM   12  C11 UNL     1      21.931   0.025  52.339  1.00  0.00    -0.029 A 
HETATM   13  C12 UNL     1      23.144  -0.177  52.946  1.00  0.00     0.033 A 
HETATM   14  C13 UNL     1      23.261  -0.703  54.210  1.00  0.00     0.034 A 
HETATM   15 CL1  UNL     1      24.841  -0.948  54.971  1.00  0.00    -0.084 Cl
HETATM   16  C14 UNL     1      22.148  -1.060  54.945  1.00  0.00     0.025 A 
HETATM   17  C15 UNL     1      20.894  -0.863  54.347  1.00  0.00     0.026 A 
HETATM   18  C16 UNL     1      20.805  -0.328  53.063  1.00  0.00     0.040 A 
HETATM   19 CL2  UNL     1      19.190  -0.110  52.376  1.00  0.00    -0.084 Cl
ENDBRANCH  11  12
ENDBRANCH   7  11
BRANCH   1  20
HETATM   20  C6  UNL     1      25.985   3.452  49.930  1.00  0.00     0.166 C 
BRANCH  20  21
HETATM   21  C5  UNL     1      26.452   2.639  50.869  1.00  0.00    -0.110 C 
BRANCH  21  22
HETATM   22  C4  UNL     1      26.921   2.011  51.932  1.00  0.00     0.057 C 
BRANCH  22  23
HETATM   23  C3  UNL     1      26.568   0.645  51.956  1.00  0.00     0.004 C 
BRANCH  23  24
HETATM   24  C2  UNL     1      26.981  -0.542  52.324  1.00  0.00    -0.030 C 
HETATM   25  C1  UNL     1      28.081  -1.124  53.117  1.00  0.00     0.036 C 
ENDBRANCH  23  24
ENDBRANCH  22  23
ENDBRANCH  21  22
ENDBRANCH  20  21
ENDBRANCH   1  20
TORSDOF 7
ENDMDL
MODEL 2
REMARK VINA RESULT:      -7.5      3.284      5.396
REMARK  7 active torsions:
REMARK  status: ('A' for Active; 'I' for Inactive)
REMARK    1  A    between atoms: C2_2  and  C3_3 
REMARK    2  A    between atoms: C3_3  and  C4_4 
REMARK    3  A    between atoms: C4_4  and  C5_5 
REMARK    4  A    between atoms: C5_5  and  C6_6 
REMARK    5  A    between atoms: C6_6  and  N1_7 
REMARK    6  A    between atoms: C9_13  and  C10_14 
REMARK    7  A    between atoms: C10_14  and  C11_15 
ROOT
HETATM    1  N1  UNL     1      28.148   1.327  53.437  1.00  0.00    -0.279 N 
HETATM    2  N2  UNL     1      29.438   0.758  53.393  1.00  0.00    -0.291 N 
HETATM    3  C7  UNL     1      29.809  -0.613  53.511  1.00  0.00     0.225 C 
HETATM    4  N3  UNL     1      28.847  -1.496  53.680  1.00  0.00    -0.225 NA
HETATM    5  C8  UNL     1      27.494  -0.994  53.727  1.00  0.00     0.156 A 
HETATM    6  N4  UNL     1      26.317  -1.459  53.475  1.00  0.00    -0.235 NA
HETATM    7  C9  UNL     1      25.300  -0.519  53.688  1.00  0.00     0.039 A 
HETATM    8  C17 UNL     1      25.885   0.612  54.105  1.00  0.00     0.035 A 
HETATM    9  C18 UNL     1      27.337   0.409  54.171  1.00  0.00     0.204 A 
HETATM   10  H8  UNL     1      30.275   1.403  53.247  1.00  0.00     0.188 HD
ENDROOT
BRANCH   7  11
HETATM   11  C10 UNL     1      23.889  -0.851  53.428  1.00  0.00     0.099 C 
BRANCH  11  12
HETATM   12  C11 UNL     1      23.082   0.226  52.853  1.00  0.00    -0.029 A 
HETATM   13  C12 UNL     1      23.392   0.932  51.720  1.00  0.00     0.033 A 
HETATM   14  C13 UNL     1      22.582   1.924  51.220  1.00  0.00     0.034 A 
HETATM   15 CL1  UNL     1      23.005   2.816  49.750  1.00  0.00    -0.084 Cl
HETATM   16  C14 UNL     1      21.398   2.265  51.843  1.00  0.00     0.025 A 
HETATM   17  C15 UNL     1      21.057   1.557  53.005  1.00  0.00     0.026 A 
HETATM   18  C16 UNL     1      21.897   0.556  53.489  1.00  0.00     0.040 A 
HETATM   19 CL2  UNL     1      21.400  -0.292  54.960  1.00  0.00    -0.084 Cl
ENDBRANCH  11  12
ENDBRANCH   7  11
BRANCH   1  20
HETATM   20  C6  UNL     1      27.825   2.553  52.874  1.00  0.00     0.166 C 
BRANCH  20  21
HETATM   21  C5  UNL     1      27.184   2.501  51.713  1.00  0.00    -0.110 C 
BRANCH  21  22
HETATM   22  C4  UNL     1      26.398   2.581  50.655  1.00  0.00     0.057 C 
BRANCH  22  23
HETATM   23  C3  UNL     1      26.531   3.809  49.971  1.00  0.00     0.004 C 
BRANCH  23  24
HETATM   24  C2  UNL     1      27.194   4.417  49.020  1.00  0.00    -0.030 C 
HETATM   25  C1  UNL     1      27.328   5.783  48.476  1.00  0.00     0.036 C 
ENDBRANCH  23  24
ENDBRANCH  22  23
ENDBRANCH  21  22
ENDBRANCH  20  21
ENDBRANCH   1  20
TORSDOF 7
ENDMDL
MODEL 3
REMARK VINA RESULT:      -7.3      3.385      6.468
REMARK  7 active torsions:
REMARK  status: ('A' for Active; 'I' for Inactive)
REMARK    1  A    between atoms: C2_2  and  C3_3 
REMARK    2  A    between atoms: C3_3  and  C4_4 
REMARK    3  A    between atoms: C4_4  and  C5_5 
REMARK    4  A    between atoms: C5_5  and  C6_6 
REMARK    5  A    between atoms: C6_6  and  N1_7 
REMARK    6  A    between atoms: C9_13  and  C10_14 
REMARK    7  A    between atoms: C10_14  and  C11_15 
ROOT
HETATM    1  N1  UNL     1      26.069  -0.266  53.426  1.00  0.00    -0.279 N 
HETATM    2  N2  UNL     1      26.775  -0.357  54.644  1.00  0.00    -0.291 N 
HETATM    3  C7  UNL     1      27.895   0.408  55.081  1.00  0.00     0.225 C 
HETATM    4  N3  UNL     1      28.358   1.336  54.269  1.00  0.00    -0.225 NA
HETATM    5  C8  UNL     1      27.684   1.498  53.003  1.00  0.00     0.156 A 
HETATM    6  N4  UNL     1      27.518   2.452  52.150  1.00  0.00    -0.235 NA
HETATM    7  C9  UNL     1      26.745   2.070  51.046  1.00  0.00     0.039 A 
HETATM    8  C17 UNL     1      26.407   0.785  51.222  1.00  0.00     0.035 A 
HETATM    9  C18 UNL     1      26.980   0.305  52.485  1.00  0.00     0.204 A 
HETATM   10  H8  UNL     1      26.457  -1.076  55.365  1.00  0.00     0.188 HD
ENDROOT
BRANCH   7  11
HETATM   11  C10 UNL     1      26.420   3.027  49.976  1.00  0.00     0.099 C 
BRANCH  11  12
HETATM   12  C11 UNL     1      25.482   4.090  50.340  1.00  0.00    -0.029 A 
HETATM   13  C12 UNL     1      24.406   3.945  51.177  1.00  0.00     0.033 A 
HETATM   14  C13 UNL     1      23.569   4.988  51.495  1.00  0.00     0.034 A 
HETATM   15 CL1  UNL     1      22.190   4.774  52.584  1.00  0.00    -0.084 Cl
HETATM   16  C14 UNL     1      23.772   6.253  50.979  1.00  0.00     0.025 A 
HETATM   17  C15 UNL     1      24.867   6.428  50.120  1.00  0.00     0.026 A 
HETATM   18  C16 UNL     1      25.699   5.352  49.815  1.00  0.00     0.040 A 
HETATM   19 CL2  UNL     1      27.059   5.650  48.723  1.00  0.00    -0.084 Cl
ENDBRANCH  11  12
ENDBRANCH   7  11
BRANCH   1  20
HETATM   20  C6  UNL     1      24.761  -0.695  53.257  1.00  0.00     0.166 C 
BRANCH  20  21
HETATM   21  C5  UNL     1      23.830   0.242  53.383  1.00  0.00    -0.110 C 
BRANCH  21  22
HETATM   22  C4  UNL     1      22.861   1.134  53.294  1.00  0.00     0.057 C 
BRANCH  22  23
HETATM   23  C3  UNL     1      22.203   1.101  52.046  1.00  0.00     0.004 C 
BRANCH  23  24
HETATM   24  C2  UNL     1      22.402   1.079  50.752  1.00  0.00    -0.030 C 
HETATM   25  C1  UNL     1      21.593   1.062  49.517  1.00  0.00     0.036 C 
ENDBRANCH  23  24
ENDBRANCH  22  23
ENDBRANCH  21  22
ENDBRANCH  20  21
ENDBRANCH   1  20
TORSDOF 7
ENDMDL
MODEL 4
REMARK VINA RESULT:      -7.1      2.514      4.457
REMARK  7 active torsions:
REMARK  status: ('A' for Active; 'I' for Inactive)
REMARK    1  A    between atoms: C2_2  and  C3_3 
REMARK    2  A    between atoms: C3_3  and  C4_4 
REMARK    3  A    between atoms: C4_4  and  C5_5 
REMARK    4  A    between atoms: C5_5  and  C6_6 
REMARK    5  A    between atoms: C6_6  and  N1_7 
REMARK    6  A    between atoms: C9_13  and  C10_14 
REMARK    7  A    between atoms: C10_14  and  C11_15 
ROOT
HETATM    1  N1  UNL     1      20.665   2.194  49.774  1.00  0.00    -0.279 N 
HETATM    2  N2  UNL     1      19.879   3.359  49.896  1.00  0.00    -0.291 N 
HETATM    3  C7  UNL     1      19.329   3.941  51.075  1.00  0.00     0.225 C 
HETATM    4  N3  UNL     1      19.568   3.342  52.222  1.00  0.00    -0.225 NA
HETATM    5  C8  UNL     1      20.374   2.145  52.185  1.00  0.00     0.156 A 
HETATM    6  N4  UNL     1      21.150   1.517  53.002  1.00  0.00    -0.235 NA
HETATM    7  C9  UNL     1      21.714   0.362  52.443  1.00  0.00     0.039 A 
HETATM    8  C17 UNL     1      21.255   0.263  51.188  1.00  0.00     0.035 A 
HETATM    9  C18 UNL     1      20.355   1.390  50.912  1.00  0.00     0.204 A 
HETATM   10  H8  UNL     1      19.648   3.913  49.013  1.00  0.00     0.188 HD
ENDROOT
BRANCH   7  11
HETATM   11  C10 UNL     1      22.650  -0.476  53.209  1.00  0.00     0.099 C 
BRANCH  11  12
HETATM   12  C11 UNL     1      24.045  -0.032  53.207  1.00  0.00    -0.029 A 
HETATM   13  C12 UNL     1      24.632   0.735  52.234  1.00  0.00     0.033 A 
HETATM   14  C13 UNL     1      25.945   1.134  52.297  1.00  0.00     0.034 A 
HETATM   15 CL1  UNL     1      26.676   2.130  51.028  1.00  0.00    -0.084 Cl
HETATM   16  C14 UNL     1      26.753   0.778  53.359  1.00  0.00     0.025 A 
HETATM   17  C15 UNL     1      26.176  -0.007  54.368  1.00  0.00     0.026 A 
HETATM   18  C16 UNL     1      24.842  -0.398  54.278  1.00  0.00     0.040 A 
HETATM   19 CL2  UNL     1      24.186  -1.388  55.590  1.00  0.00    -0.084 Cl
ENDBRANCH  11  12
ENDBRANCH   7  11
BRANCH   1  20
HETATM   20  C6  UNL     1      21.523   1.949  48.712  1.00  0.00     0.166 C 
BRANCH  20  21
HETATM   21  C5  UNL     1      22.690   2.578  48.759  1.00  0.00    -0.110 C 
BRANCH  21  22
HETATM   22  C4  UNL     1      23.739   3.367  48.908  1.00  0.00     0.057 C 
BRANCH  22  23
HETATM   23  C3  UNL     1      23.770   3.999  50.169  1.00  0.00     0.004 C 
BRANCH  23  24
HETATM   24  C2  UNL     1      23.196   4.028  51.346  1.00  0.00    -0.030 C 
HETATM   25  C1  UNL     1      23.591   4.222  52.755  1.00  0.00     0.036 C 
ENDBRANCH  23  24
ENDBRANCH  22  23
ENDBRANCH  21  22
ENDBRANCH  20  21
ENDBRANCH   1  20
TORSDOF 7
ENDMDL
MODEL 5
REMARK VINA RESULT:      -7.0      2.678      4.602
REMARK  7 active torsions:
REMARK  status: ('A' for Active; 'I' for Inactive)
REMARK    1  A    between atoms: C2_2  and  C3_3 
REMARK    2  A    between atoms: C3_3  and  C4_4 
REMARK    3  A    between atoms: C4_4  and  C5_5 
REMARK    4  A    between atoms: C5_5  and  C6_6 
REMARK    5  A    between atoms: C6_6  and  N1_7 
REMARK    6  A    between atoms: C9_13  and  C10_14 
REMARK    7  A    between atoms: C10_14  and  C11_15 
ROOT
HETATM    1  N1  UNL     1      26.613   2.474  51.680  1.00  0.00    -0.279 N 
HETATM    2  N2  UNL     1      27.812   2.814  52.340  1.00  0.00    -0.291 N 
HETATM    3  C7  UNL     1      28.249   2.431  53.641  1.00  0.00     0.225 C 
HETATM    4  N3  UNL     1      27.458   1.653  54.349  1.00  0.00    -0.225 NA
HETATM    5  C8  UNL     1      26.213   1.251  53.740  1.00  0.00     0.156 A 
HETATM    6  N4  UNL     1      25.394   0.260  53.855  1.00  0.00    -0.235 NA
HETATM    7  C9  UNL     1      24.294   0.356  52.992  1.00  0.00     0.039 A 
HETATM    8  C17 UNL     1      24.437   1.488  52.290  1.00  0.00     0.035 A 
HETATM    9  C18 UNL     1      25.672   2.163  52.708  1.00  0.00     0.204 A 
HETATM   10  H8  UNL     1      28.516   3.433  51.831  1.00  0.00     0.188 HD
ENDROOT
BRANCH   7  11
HETATM   11  C10 UNL     1      23.263  -0.694  52.953  1.00  0.00     0.099 C 
BRANCH  11  12
HETATM   12  C11 UNL     1      21.943  -0.267  52.487  1.00  0.00    -0.029 A 
HETATM   13  C12 UNL     1      21.687   0.361  51.296  1.00  0.00     0.033 A 
HETATM   14  C13 UNL     1      20.420   0.723  50.906  1.00  0.00     0.034 A 
HETATM   15 CL1  UNL     1      20.118   1.529  49.359  1.00  0.00    -0.084 Cl
HETATM   16  C14 UNL     1      19.324   0.469  51.707  1.00  0.00     0.025 A 
HETATM   17  C15 UNL     1      19.558  -0.173  52.931  1.00  0.00     0.026 A 
HETATM   18  C16 UNL     1      20.854  -0.529  53.301  1.00  0.00     0.040 A 
HETATM   19 CL2  UNL     1      21.071  -1.336  54.861  1.00  0.00    -0.084 Cl
ENDBRANCH  11  12
ENDBRANCH   7  11
BRANCH   1  20
HETATM   20  C6  UNL     1      26.458   2.490  50.301  1.00  0.00     0.166 C 
BRANCH  20  21
HETATM   21  C5  UNL     1      26.274   3.687  49.759  1.00  0.00    -0.110 C 
BRANCH  21  22
HETATM   22  C4  UNL     1      26.093   4.952  49.428  1.00  0.00     0.057 C 
BRANCH  22  23
HETATM   23  C3  UNL     1      27.158   5.472  48.660  1.00  0.00     0.004 C 
BRANCH  23  24
HETATM   24  C2  UNL     1      28.436   5.338  48.408  1.00  0.00    -0.030 C 
HETATM   25  C1  UNL     1      29.542   6.159  47.877  1.00  0.00     0.036 C 
ENDBRANCH  23  24
ENDBRANCH  22  23
ENDBRANCH  21  22
ENDBRANCH  20  21
ENDBRANCH   1  20
TORSDOF 7
ENDMDL
MODEL 6
REMARK VINA RESULT:      -7.0      3.060      4.307
REMARK  7 active torsions:
REMARK  status: ('A' for Active; 'I' for Inactive)
REMARK    1  A    between atoms: C2_2  and  C3_3 
REMARK    2  A    between atoms: C3_3  and  C4_4 
REMARK    3  A    between atoms: C4_4  and  C5_5 
REMARK    4  A    between atoms: C5_5  and  C6_6 
REMARK    5  A    between atoms: C6_6  and  N1_7 
REMARK    6  A    between atoms: C9_13  and  C10_14 
REMARK    7  A    between atoms: C10_14  and  C11_15 
ROOT
HETATM    1  N1  UNL     1      26.108   5.194  49.344  1.00  0.00    -0.279 N 
HETATM    2  N2  UNL     1      26.044   6.584  49.579  1.00  0.00    -0.291 N 
HETATM    3  C7  UNL     1      25.175   7.298  50.453  1.00  0.00     0.225 C 
HETATM    4  N3  UNL     1      24.305   6.602  51.155  1.00  0.00    -0.225 NA
HETATM    5  C8  UNL     1      24.311   5.170  50.978  1.00  0.00     0.156 A 
HETATM    6  N4  UNL     1      23.977   4.141  51.682  1.00  0.00    -0.235 NA
HETATM    7  C9  UNL     1      24.198   2.928  51.017  1.00  0.00     0.039 A 
HETATM    8  C17 UNL     1      24.705   3.222  49.811  1.00  0.00     0.035 A 
HETATM    9  C18 UNL     1      24.818   4.679  49.677  1.00  0.00     0.204 A 
HETATM   10  H8  UNL     1      26.724   7.221  49.058  1.00  0.00     0.188 HD
ENDROOT
BRANCH   7  11
HETATM   11  C10 UNL     1      23.906   1.639  51.665  1.00  0.00     0.099 C 
BRANCH  11  12
HETATM   12  C11 UNL     1      24.919   1.160  52.607  1.00  0.00    -0.029 A 
HETATM   13  C12 UNL     1      26.165   1.707  52.777  1.00  0.00     0.033 A 
HETATM   14  C13 UNL     1      27.068   1.221  53.692  1.00  0.00     0.034 A 
HETATM   15 CL1  UNL     1      28.669   1.950  53.895  1.00  0.00    -0.084 Cl
HETATM   16  C14 UNL     1      26.763   0.141  54.497  1.00  0.00     0.025 A 
HETATM   17  C15 UNL     1      25.494  -0.436  54.343  1.00  0.00     0.026 A 
HETATM   18  C16 UNL     1      24.598   0.078  53.407  1.00  0.00     0.040 A 
HETATM   19 CL2  UNL     1      23.017  -0.704  53.269  1.00  0.00    -0.084 Cl
ENDBRANCH  11  12
ENDBRANCH   7  11
BRANCH   1  20
HETATM   20  C6  UNL     1      27.233   4.544  48.858  1.00  0.00     0.166 C 
BRANCH  20  21
HETATM   21  C5  UNL     1      28.237   5.330  48.491  1.00  0.00    -0.110 C 
BRANCH  21  22
HETATM   22  C4  UNL     1      29.146   6.101  47.924  1.00  0.00     0.057 C 
BRANCH  22  23
HETATM   23  C3  UNL     1      30.463   5.642  48.146  1.00  0.00     0.004 C 
BRANCH  23  24
HETATM   24  C2  UNL     1      31.488   5.065  47.570  1.00  0.00    -0.030 C 
HETATM   25  C1  UNL     1      31.809   3.765  46.951  1.00  0.00     0.036 C 
ENDBRANCH  23  24
ENDBRANCH  22  23
ENDBRANCH  21  22
ENDBRANCH  20  21
ENDBRANCH   1  20
TORSDOF 7
ENDMDL
MODEL 7
REMARK VINA RESULT:      -7.0      3.016      5.612
REMARK  7 active torsions:
REMARK  status: ('A' for Active; 'I' for Inactive)
REMARK    1  A    between atoms: C2_2  and  C3_3 
REMARK    2  A    between atoms: C3_3  and  C4_4 
REMARK    3  A    between atoms: C4_4  and  C5_5 
REMARK    4  A    between atoms: C5_5  and  C6_6 
REMARK    5  A    between atoms: C6_6  and  N1_7 
REMARK    6  A    between atoms: C9_13  and  C10_14 
REMARK    7  A    between atoms: C10_14  and  C11_15 
ROOT
HETATM    1  N1  UNL     1      23.608  -0.374  53.618  1.00  0.00    -0.279 N 
HETATM    2  N2  UNL     1      22.670  -1.071  54.409  1.00  0.00    -0.291 N 
HETATM    3  C7  UNL     1      21.249  -0.970  54.398  1.00  0.00     0.225 C 
HETATM    4  N3  UNL     1      20.701  -0.129  53.546  1.00  0.00    -0.225 NA
HETATM    5  C8  UNL     1      21.594   0.618  52.692  1.00  0.00     0.156 A 
HETATM    6  N4  UNL     1      21.522   1.182  51.534  1.00  0.00    -0.235 NA
HETATM    7  C9  UNL     1      22.723   1.793  51.148  1.00  0.00     0.039 A 
HETATM    8  C17 UNL     1      23.605   1.597  52.138  1.00  0.00     0.035 A 
HETATM    9  C18 UNL     1      22.962   0.833  53.214  1.00  0.00     0.204 A 
HETATM   10  H8  UNL     1      23.030  -1.783  55.119  1.00  0.00     0.188 HD
ENDROOT
BRANCH   7  11
HETATM   11  C10 UNL     1      22.852   2.466  49.845  1.00  0.00     0.099 C 
BRANCH  11  12
HETATM   12  C11 UNL     1      23.775   3.601  49.807  1.00  0.00    -0.029 A 
HETATM   13  C12 UNL     1      25.074   3.552  49.369  1.00  0.00     0.033 A 
HETATM   14  C13 UNL     1      25.888   4.659  49.342  1.00  0.00     0.034 A 
HETATM   15 CL1  UNL     1      27.560   4.568  48.765  1.00  0.00    -0.084 Cl
HETATM   16  C14 UNL     1      25.435   5.894  49.762  1.00  0.00     0.025 A 
HETATM   17  C15 UNL     1      24.109   5.970  50.215  1.00  0.00     0.026 A 
HETATM   18  C16 UNL     1      23.306   4.832  50.231  1.00  0.00     0.040 A 
HETATM   19 CL2  UNL     1      21.646   5.007  50.817  1.00  0.00    -0.084 Cl
ENDBRANCH  11  12
ENDBRANCH   7  11
BRANCH   1  20
HETATM   20  C6  UNL     1      24.891  -0.833  53.358  1.00  0.00     0.166 C 
BRANCH  20  21
HETATM   21  C5  UNL     1      25.838  -0.379  54.170  1.00  0.00    -0.110 C 
BRANCH  21  22
HETATM   22  C4  UNL     1      26.623   0.209  55.054  1.00  0.00     0.057 C 
BRANCH  22  23
HETATM   23  C3  UNL     1      27.921   0.449  54.554  1.00  0.00     0.004 C 
BRANCH  23  24
HETATM   24  C2  UNL     1      29.111  -0.080  54.421  1.00  0.00    -0.030 C 
HETATM   25  C1  UNL     1      29.827  -0.944  53.462  1.00  0.00     0.036 C 
ENDBRANCH  23  24
ENDBRANCH  22  23
ENDBRANCH  21  22
ENDBRANCH  20  21
ENDBRANCH   1  20
TORSDOF 7
ENDMDL
MODEL 8
REMARK VINA RESULT:      -7.0      2.223      5.126
REMARK  7 active torsions:
REMARK  status: ('A' for Active; 'I' for Inactive)
REMARK    1  A    between atoms: C2_2  and  C3_3 
REMARK    2  A    between atoms: C3_3  and  C4_4 
REMARK    3  A    between atoms: C4_4  and  C5_5 
REMARK    4  A    between atoms: C5_5  and  C6_6 
REMARK    5  A    between atoms: C6_6  and  N1_7 
REMARK    6  A    between atoms: C9_13  and  C10_14 
REMARK    7  A    between atoms: C10_14  and  C11_15 
ROOT
HETATM    1  N1  UNL     1      22.858   4.025  51.659  1.00  0.00    -0.279 N 
HETATM    2  N2  UNL     1      23.034   4.953  50.612  1.00  0.00    -0.291 N 
HETATM    3  C7  UNL     1      24.158   5.118  49.751  1.00  0.00     0.225 C 
HETATM    4  N3  UNL     1      25.185   4.313  49.923  1.00  0.00    -0.225 NA
HETATM    5  C8  UNL     1      25.080   3.327  50.971  1.00  0.00     0.156 A 
HETATM    6  N4  UNL     1      25.591   2.168  51.216  1.00  0.00    -0.235 NA
HETATM    7  C9  UNL     1      25.133   1.611  52.419  1.00  0.00     0.039 A 
HETATM    8  C17 UNL     1      24.278   2.488  52.962  1.00  0.00     0.035 A 
HETATM    9  C18 UNL     1      24.171   3.663  52.089  1.00  0.00     0.204 A 
HETATM   10  H8  UNL     1      22.243   5.636  50.397  1.00  0.00     0.188 HD
ENDROOT
BRANCH   7  11
HETATM   11  C10 UNL     1      25.579   0.279  52.860  1.00  0.00     0.099 C 
BRANCH  11  12
HETATM   12  C11 UNL     1      26.994   0.171  53.216  1.00  0.00    -0.029 A 
HETATM   13  C12 UNL     1      27.743   1.159  53.801  1.00  0.00     0.033 A 
HETATM   14  C13 UNL     1      29.067   0.990  54.127  1.00  0.00     0.034 A 
HETATM   15 CL1  UNL     1      30.009   2.282  54.888  1.00  0.00    -0.084 Cl
HETATM   16  C14 UNL     1      29.721  -0.200  53.877  1.00  0.00     0.025 A 
HETATM   17  C15 UNL     1      28.977  -1.228  53.279  1.00  0.00     0.026 A 
HETATM   18  C16 UNL     1      27.636  -1.029  52.959  1.00  0.00     0.040 A 
HETATM   19 CL2  UNL     1      26.763  -2.371  52.205  1.00  0.00    -0.084 Cl
ENDBRANCH  11  12
ENDBRANCH   7  11
BRANCH   1  20
HETATM   20  C6  UNL     1      21.619   3.621  52.133  1.00  0.00     0.166 C 
BRANCH  20  21
HETATM   21  C5  UNL     1      21.241   2.399  51.781  1.00  0.00    -0.110 C 
BRANCH  21  22
HETATM   22  C4  UNL     1      20.831   1.271  51.231  1.00  0.00     0.057 C 
BRANCH  22  23
HETATM   23  C3  UNL     1      21.546   0.146  51.696  1.00  0.00     0.004 C 
BRANCH  23  24
HETATM   24  C2  UNL     1      21.935  -0.478  52.779  1.00  0.00    -0.030 C 
HETATM   25  C1  UNL     1      21.826  -0.311  54.242  1.00  0.00     0.036 C 
ENDBRANCH  23  24
ENDBRANCH  22  23
ENDBRANCH  21  22
ENDBRANCH  20  21
ENDBRANCH   1  20
TORSDOF 7
ENDMDL
MODEL 9
REMARK VINA RESULT:      -7.0      2.300      3.894
REMARK  7 active torsions:
REMARK  status: ('A' for Active; 'I' for Inactive)
REMARK    1  A    between atoms: C2_2  and  C3_3 
REMARK    2  A    between atoms: C3_3  and  C4_4 
REMARK    3  A    between atoms: C4_4  and  C5_5 
REMARK    4  A    between atoms: C5_5  and  C6_6 
REMARK    5  A    between atoms: C6_6  and  N1_7 
REMARK    6  A    between atoms: C9_13  and  C10_14 
REMARK    7  A    between atoms: C10_14  and  C11_15 
ROOT
HETATM    1  N1  UNL     1      25.324   4.416  50.076  1.00  0.00    -0.279 N 
HETATM    2  N2  UNL     1      24.989   5.771  50.282  1.00  0.00    -0.291 N 
HETATM    3  C7  UNL     1      24.139   6.335  51.277  1.00  0.00     0.225 C 
HETATM    4  N3  UNL     1      23.576   5.514  52.139  1.00  0.00    -0.225 NA
HETATM    5  C8  UNL     1      23.876   4.109  52.002  1.00  0.00     0.156 A 
HETATM    6  N4  UNL     1      23.902   3.080  52.780  1.00  0.00    -0.235 NA
HETATM    7  C9  UNL     1      24.277   1.903  52.118  1.00  0.00     0.039 A 
HETATM    8  C17 UNL     1      24.498   2.221  50.835  1.00  0.00     0.035 A 
HETATM    9  C18 UNL     1      24.257   3.657  50.645  1.00  0.00     0.204 A 
HETATM   10  H8  UNL     1      25.413   6.505  49.634  1.00  0.00     0.188 HD
ENDROOT
BRANCH   7  11
HETATM   11  C10 UNL     1      24.394   0.627  52.842  1.00  0.00     0.099 C 
BRANCH  11  12
HETATM   12  C11 UNL     1      23.131   0.017  53.259  1.00  0.00    -0.029 A 
HETATM   13  C12 UNL     1      21.922   0.193  52.637  1.00  0.00     0.033 A 
HETATM   14  C13 UNL     1      20.770  -0.421  53.069  1.00  0.00     0.034 A 
HETATM   15 CL1  UNL     1      19.223  -0.180  52.243  1.00  0.00    -0.084 Cl
HETATM   16  C14 UNL     1      20.772  -1.258  54.167  1.00  0.00     0.025 A 
HETATM   17  C15 UNL     1      21.997  -1.455  54.821  1.00  0.00     0.026 A 
HETATM   18  C16 UNL     1      23.149  -0.819  54.362  1.00  0.00     0.040 A 
HETATM   19 CL2  UNL     1      24.656  -1.116  55.240  1.00  0.00    -0.084 Cl
ENDBRANCH  11  12
ENDBRANCH   7  11
BRANCH   1  20
HETATM   20  C6  UNL     1      26.470   3.995  49.418  1.00  0.00     0.166 C 
BRANCH  20  21
HETATM   21  C5  UNL     1      27.242   4.961  48.936  1.00  0.00    -0.110 C 
BRANCH  21  22
HETATM   22  C4  UNL     1      27.944   5.850  48.257  1.00  0.00     0.057 C 
BRANCH  22  23
HETATM   23  C3  UNL     1      29.303   5.488  48.130  1.00  0.00     0.004 C 
BRANCH  23  24
HETATM   24  C2  UNL     1      30.527   5.918  48.306  1.00  0.00    -0.030 C 
HETATM   25  C1  UNL     1      31.879   5.346  48.459  1.00  0.00     0.036 C 
ENDBRANCH  23  24
ENDBRANCH  22  23
ENDBRANCH  21  22
ENDBRANCH  20  21
ENDBRANCH   1  20
TORSDOF 7
ENDMDL
