MODEL 1
REMARK VINA RESULT:      -8.9      0.000      0.000
REMARK  6 active torsions:
REMARK  status: ('A' for Active; 'I' for Inactive)
REMARK    1  A    between atoms: C2_2  and  N1_7 
REMARK    2  A    between atoms: C3_3  and  C4_4 
REMARK    3  A    between atoms: C4_4  and  C5_5 
REMARK    4  A    between atoms: N1_7  and  C6_8 
REMARK    5  A    between atoms: C6_8  and  C7_9 
REMARK    6  A    between atoms: C16_19  and  O1_20 
ROOT
HETATM    1  C7  UNL     1      24.836   0.365  54.006  1.00  0.00     0.078 A 
HETATM    2  C8  UNL     1      26.057   0.958  54.523  1.00  0.00     0.031 A 
HETATM    3  C9  UNL     1      26.168   2.165  53.775  1.00  0.00     0.023 A 
HETATM    4  C10 UNL     1      25.400   2.800  52.763  1.00  0.00     0.010 A 
HETATM    5  C11 UNL     1      24.187   2.345  52.164  1.00  0.00     0.048 A 
HETATM    6  C12 UNL     1      24.406   1.313  53.037  1.00  0.00     0.076 A 
HETATM    7  N2  UNL     1      25.671   0.606  52.777  1.00  0.00    -0.261 NA
HETATM    8  C13 UNL     1      26.148   0.356  51.643  1.00  0.00     0.074 C 
HETATM    9  C14 UNL     1      27.268  -0.264  52.386  1.00  0.00    -0.015 A 
HETATM   10  C15 UNL     1      27.527  -1.605  52.543  1.00  0.00     0.049 A 
HETATM   11  C16 UNL     1      28.562  -2.190  53.241  1.00  0.00     0.066 A 
HETATM   12  C17 UNL     1      29.434  -1.313  53.849  1.00  0.00     0.037 A 
HETATM   13  C18 UNL     1      29.237   0.047  53.732  1.00  0.00     0.012 A 
HETATM   14  C19 UNL     1      28.182   0.631  53.020  1.00  0.00    -0.029 A 
HETATM   15  C20 UNL     1      28.207   2.107  53.041  1.00  0.00     0.159 C 
HETATM   16  N3  UNL     1      27.427   2.712  54.108  1.00  0.00    -0.386 N 
HETATM   17  H22 UNL     1      27.659   3.355  54.903  1.00  0.00     0.160 HD
ENDROOT
BRANCH   1  18
HETATM   18  C6  UNL     1      23.920  -0.835  54.175  1.00  0.00     0.151 C 
BRANCH  18  19
HETATM   19  N1  UNL     1      23.026  -1.010  53.082  1.00  0.00    -0.391 N 
HETATM   20  H9  UNL     1      22.754  -1.329  52.134  1.00  0.00     0.159 HD
BRANCH  19  21
HETATM   21  C2  UNL     1      21.797  -0.420  53.517  1.00  0.00    -0.003 C 
HETATM   22  C1  UNL     1      21.158  -0.093  54.833  1.00  0.00     0.067 C 
HETATM   23  C3  UNL     1      21.009  -0.060  52.489  1.00  0.00    -0.002 C 
BRANCH  23  24
HETATM   24  C4  UNL     1      19.672   0.580  52.463  1.00  0.00     0.040 C 
BRANCH  24  25
HETATM   25  C5  UNL     1      18.637  -0.268  51.771  1.00  0.00     0.089 C 
HETATM   26 BR1  UNL     1      17.811  -1.375  53.155  1.00  0.00    -0.096 Br
ENDBRANCH  24  25
ENDBRANCH  23  24
ENDBRANCH  19  21
ENDBRANCH  18  19
ENDBRANCH   1  18
BRANCH  11  27
HETATM   27  O1  UNL     1      28.639  -3.571  53.276  1.00  0.00    -0.361 OA
HETATM   28  H17 UNL     1      28.718  -3.994  54.192  1.00  0.00     0.217 HD
ENDBRANCH  11  27
TORSDOF 6
ENDMDL
MODEL 2
REMARK VINA RESULT:      -8.1      3.978      6.476
REMARK  6 active torsions:
REMARK  status: ('A' for Active; 'I' for Inactive)
REMARK    1  A    between atoms: C2_2  and  N1_7 
REMARK    2  A    between atoms: C3_3  and  C4_4 
REMARK    3  A    between atoms: C4_4  and  C5_5 
REMARK    4  A    between atoms: N1_7  and  C6_8 
REMARK    5  A    between atoms: C6_8  and  C7_9 
REMARK    6  A    between atoms: C16_19  and  O1_20 
ROOT
HETATM    1  C7  UNL     1      24.088   2.690  52.822  1.00  0.00     0.078 A 
HETATM    2  C8  UNL     1      23.792   4.102  52.654  1.00  0.00     0.031 A 
HETATM    3  C9  UNL     1      22.408   4.101  52.318  1.00  0.00     0.023 A 
HETATM    4  C10 UNL     1      21.410   3.105  52.151  1.00  0.00     0.010 A 
HETATM    5  C11 UNL     1      21.549   1.691  52.286  1.00  0.00     0.048 A 
HETATM    6  C12 UNL     1      22.834   2.069  52.568  1.00  0.00     0.076 A 
HETATM    7  N2  UNL     1      23.479   2.772  51.448  1.00  0.00    -0.261 NA
HETATM    8  C13 UNL     1      23.341   2.490  50.232  1.00  0.00     0.074 C 
HETATM    9  C14 UNL     1      24.251   3.632  49.989  1.00  0.00    -0.015 A 
HETATM   10  C15 UNL     1      25.574   3.583  49.620  1.00  0.00     0.049 A 
HETATM   11  C16 UNL     1      26.430   4.642  49.402  1.00  0.00     0.066 A 
HETATM   12  C17 UNL     1      25.880   5.892  49.579  1.00  0.00     0.037 A 
HETATM   13  C18 UNL     1      24.558   6.017  49.949  1.00  0.00     0.012 A 
HETATM   14  C19 UNL     1      23.697   4.935  50.168  1.00  0.00    -0.029 A 
HETATM   15  C20 UNL     1      22.327   5.343  50.543  1.00  0.00     0.159 C 
HETATM   16  N3  UNL     1      22.093   5.434  51.975  1.00  0.00    -0.386 N 
HETATM   17  H22 UNL     1      21.788   6.209  52.613  1.00  0.00     0.160 HD
ENDROOT
BRANCH   1  18
HETATM   18  C6  UNL     1      25.211   1.734  53.185  1.00  0.00     0.151 C 
BRANCH  18  19
HETATM   19  N1  UNL     1      24.865   0.368  52.987  1.00  0.00    -0.391 N 
HETATM   20  H9  UNL     1      24.217  -0.416  52.783  1.00  0.00     0.159 HD
BRANCH  19  21
HETATM   21  C2  UNL     1      26.091  -0.348  53.159  1.00  0.00    -0.003 C 
HETATM   22  C1  UNL     1      26.713  -1.585  52.585  1.00  0.00     0.067 C 
HETATM   23  C3  UNL     1      26.899   0.230  54.065  1.00  0.00    -0.002 C 
BRANCH  23  24
HETATM   24  C4  UNL     1      28.246  -0.153  54.554  1.00  0.00     0.040 C 
BRANCH  24  25
HETATM   25  C5  UNL     1      29.349   0.617  53.876  1.00  0.00     0.089 C 
HETATM   26 BR1  UNL     1      28.679   2.435  53.618  1.00  0.00    -0.096 Br
ENDBRANCH  24  25
ENDBRANCH  23  24
ENDBRANCH  19  21
ENDBRANCH  18  19
ENDBRANCH   1  18
BRANCH  11  27
HETATM   27  O1  UNL     1      27.736   4.370  49.033  1.00  0.00    -0.361 OA
HETATM   28  H17 UNL     1      27.884   4.091  48.072  1.00  0.00     0.217 HD
ENDBRANCH  11  27
TORSDOF 6
ENDMDL
MODEL 3
REMARK VINA RESULT:      -8.0      3.700      6.603
REMARK  6 active torsions:
REMARK  status: ('A' for Active; 'I' for Inactive)
REMARK    1  A    between atoms: C2_2  and  N1_7 
REMARK    2  A    between atoms: C3_3  and  C4_4 
REMARK    3  A    between atoms: C4_4  and  C5_5 
REMARK    4  A    between atoms: N1_7  and  C6_8 
REMARK    5  A    between atoms: C6_8  and  C7_9 
REMARK    6  A    between atoms: C16_19  and  O1_20 
ROOT
HETATM    1  C7  UNL     1      25.001   3.380  50.127  1.00  0.00     0.078 A 
HETATM    2  C8  UNL     1      23.673   3.024  49.658  1.00  0.00     0.031 A 
HETATM    3  C9  UNL     1      22.959   4.253  49.756  1.00  0.00     0.023 A 
HETATM    4  C10 UNL     1      23.278   5.575  50.165  1.00  0.00     0.010 A 
HETATM    5  C11 UNL     1      24.528   6.071  50.641  1.00  0.00     0.048 A 
HETATM    6  C12 UNL     1      24.875   4.765  50.423  1.00  0.00     0.076 A 
HETATM    7  N2  UNL     1      24.092   3.824  51.241  1.00  0.00    -0.261 NA
HETATM    8  C13 UNL     1      23.737   4.012  52.431  1.00  0.00     0.074 C 
HETATM    9  C14 UNL     1      23.090   2.685  52.319  1.00  0.00    -0.015 A 
HETATM   10  C15 UNL     1      23.514   1.499  52.867  1.00  0.00     0.049 A 
HETATM   11  C16 UNL     1      22.922   0.258  52.759  1.00  0.00     0.066 A 
HETATM   12  C17 UNL     1      21.768   0.218  52.007  1.00  0.00     0.037 A 
HETATM   13  C18 UNL     1      21.283   1.371  51.427  1.00  0.00     0.012 A 
HETATM   14  C19 UNL     1      21.892   2.627  51.544  1.00  0.00    -0.029 A 
HETATM   15  C20 UNL     1      21.164   3.700  50.837  1.00  0.00     0.159 C 
HETATM   16  N3  UNL     1      21.611   3.941  49.475  1.00  0.00    -0.386 N 
HETATM   17  H22 UNL     1      21.139   3.910  48.539  1.00  0.00     0.160 HD
ENDROOT
BRANCH   1  18
HETATM   18  C6  UNL     1      26.387   2.802  50.356  1.00  0.00     0.151 C 
BRANCH  18  19
HETATM   19  N1  UNL     1      26.842   2.963  51.694  1.00  0.00    -0.391 N 
HETATM   20  H9  UNL     1      27.173   3.506  52.514  1.00  0.00     0.159 HD
BRANCH  19  21
HETATM   21  C2  UNL     1      26.859   1.640  52.237  1.00  0.00    -0.003 C 
HETATM   22  C1  UNL     1      26.613   0.254  51.723  1.00  0.00     0.067 C 
HETATM   23  C3  UNL     1      27.181   1.627  53.543  1.00  0.00    -0.002 C 
BRANCH  23  24
HETATM   24  C4  UNL     1      27.322   0.503  54.500  1.00  0.00     0.040 C 
BRANCH  24  25
HETATM   25  C5  UNL     1      28.745   0.304  54.955  1.00  0.00     0.089 C 
HETATM   26 BR1  UNL     1      29.600  -0.840  53.621  1.00  0.00    -0.096 Br
ENDBRANCH  24  25
ENDBRANCH  23  24
ENDBRANCH  19  21
ENDBRANCH  18  19
ENDBRANCH   1  18
BRANCH  11  27
HETATM   27  O1  UNL     1      23.518  -0.816  53.395  1.00  0.00    -0.361 OA
HETATM   28  H17 UNL     1      23.431  -0.847  54.403  1.00  0.00     0.217 HD
ENDBRANCH  11  27
TORSDOF 6
ENDMDL
MODEL 4
REMARK VINA RESULT:      -7.8      3.089      4.839
REMARK  6 active torsions:
REMARK  status: ('A' for Active; 'I' for Inactive)
REMARK    1  A    between atoms: C2_2  and  N1_7 
REMARK    2  A    between atoms: C3_3  and  C4_4 
REMARK    3  A    between atoms: C4_4  and  C5_5 
REMARK    4  A    between atoms: N1_7  and  C6_8 
REMARK    5  A    between atoms: C6_8  and  C7_9 
REMARK    6  A    between atoms: C16_19  and  O1_20 
ROOT
HETATM    1  C7  UNL     1      24.556   3.247  53.007  1.00  0.00     0.078 A 
HETATM    2  C8  UNL     1      25.206   2.179  53.746  1.00  0.00     0.031 A 
HETATM    3  C9  UNL     1      26.099   1.623  52.785  1.00  0.00     0.023 A 
HETATM    4  C10 UNL     1      26.421   1.897  51.429  1.00  0.00     0.010 A 
HETATM    5  C11 UNL     1      25.874   2.907  50.583  1.00  0.00     0.048 A 
HETATM    6  C12 UNL     1      25.166   3.167  51.725  1.00  0.00     0.076 A 
HETATM    7  N2  UNL     1      24.336   2.028  52.151  1.00  0.00    -0.261 NA
HETATM    8  C13 UNL     1      23.706   1.258  51.386  1.00  0.00     0.074 C 
HETATM    9  C14 UNL     1      23.288   0.566  52.627  1.00  0.00    -0.015 A 
HETATM   10  C15 UNL     1      22.056   0.608  53.234  1.00  0.00     0.049 A 
HETATM   11  C16 UNL     1      21.664  -0.026  54.394  1.00  0.00     0.066 A 
HETATM   12  C17 UNL     1      22.633  -0.789  55.007  1.00  0.00     0.037 A 
HETATM   13  C18 UNL     1      23.892  -0.878  54.453  1.00  0.00     0.012 A 
HETATM   14  C19 UNL     1      24.281  -0.231  53.274  1.00  0.00    -0.029 A 
HETATM   15  C20 UNL     1      25.681  -0.502  52.890  1.00  0.00     0.159 C 
HETATM   16  N3  UNL     1      26.644   0.468  53.387  1.00  0.00    -0.386 N 
HETATM   17  H22 UNL     1      27.493   0.400  53.999  1.00  0.00     0.160 HD
ENDROOT
BRANCH   1  18
HETATM   18  C6  UNL     1      23.533   4.359  53.158  1.00  0.00     0.151 C 
BRANCH  18  19
HETATM   19  N1  UNL     1      23.712   5.412  52.217  1.00  0.00    -0.391 N 
HETATM   20  H9  UNL     1      24.258   6.130  51.706  1.00  0.00     0.159 HD
BRANCH  19  21
HETATM   21  C2  UNL     1      22.422   5.602  51.629  1.00  0.00    -0.003 C 
HETATM   22  C1  UNL     1      21.711   6.708  50.910  1.00  0.00     0.067 C 
HETATM   23  C3  UNL     1      21.642   4.512  51.744  1.00  0.00    -0.002 C 
BRANCH  23  24
HETATM   24  C4  UNL     1      20.254   4.256  51.288  1.00  0.00     0.040 C 
BRANCH  24  25
HETATM   25  C5  UNL     1      19.695   2.966  51.830  1.00  0.00     0.089 C 
HETATM   26 BR1  UNL     1      19.791   1.665  50.375  1.00  0.00    -0.096 Br
ENDBRANCH  24  25
ENDBRANCH  23  24
ENDBRANCH  19  21
ENDBRANCH  18  19
ENDBRANCH   1  18
BRANCH  11  27
HETATM   27  O1  UNL     1      20.365   0.152  54.837  1.00  0.00    -0.361 OA
HETATM   28  H17 UNL     1      19.956  -0.618  55.351  1.00  0.00     0.217 HD
ENDBRANCH  11  27
TORSDOF 6
ENDMDL
MODEL 5
REMARK VINA RESULT:      -7.7      2.383      3.721
REMARK  6 active torsions:
REMARK  status: ('A' for Active; 'I' for Inactive)
REMARK    1  A    between atoms: C2_2  and  N1_7 
REMARK    2  A    between atoms: C3_3  and  C4_4 
REMARK    3  A    between atoms: C4_4  and  C5_5 
REMARK    4  A    between atoms: N1_7  and  C6_8 
REMARK    5  A    between atoms: C6_8  and  C7_9 
REMARK    6  A    between atoms: C16_19  and  O1_20 
ROOT
HETATM    1  C7  UNL     1      24.596   2.678  52.990  1.00  0.00     0.078 A 
HETATM    2  C8  UNL     1      25.323   2.165  54.137  1.00  0.00     0.031 A 
HETATM    3  C9  UNL     1      26.590   1.817  53.584  1.00  0.00     0.023 A 
HETATM    4  C10 UNL     1      27.180   1.883  52.294  1.00  0.00     0.010 A 
HETATM    5  C11 UNL     1      26.596   2.362  51.083  1.00  0.00     0.048 A 
HETATM    6  C12 UNL     1      25.543   2.564  51.934  1.00  0.00     0.076 A 
HETATM    7  N2  UNL     1      25.059   1.316  52.546  1.00  0.00    -0.261 NA
HETATM    8  C13 UNL     1      24.975   0.204  51.969  1.00  0.00     0.074 C 
HETATM    9  C14 UNL     1      24.473  -0.296  53.269  1.00  0.00    -0.015 A 
HETATM   10  C15 UNL     1      23.179  -0.621  53.597  1.00  0.00     0.049 A 
HETATM   11  C16 UNL     1      22.704  -1.077  54.809  1.00  0.00     0.066 A 
HETATM   12  C17 UNL     1      23.651  -1.220  55.799  1.00  0.00     0.037 A 
HETATM   13  C18 UNL     1      24.970  -0.913  55.540  1.00  0.00     0.012 A 
HETATM   14  C19 UNL     1      25.442  -0.451  54.306  1.00  0.00    -0.029 A 
HETATM   15  C20 UNL     1      26.900  -0.209  54.290  1.00  0.00     0.159 C 
HETATM   16  N3  UNL     1      27.292   1.153  54.613  1.00  0.00    -0.386 N 
HETATM   17  H22 UNL     1      27.897   1.578  55.358  1.00  0.00     0.160 HD
ENDROOT
BRANCH   1  18
HETATM   18  C6  UNL     1      23.262   3.282  52.587  1.00  0.00     0.151 C 
BRANCH  18  19
HETATM   19  N1  UNL     1      23.123   3.435  51.179  1.00  0.00    -0.391 N 
HETATM   20  H9  UNL     1      23.438   3.706  50.229  1.00  0.00     0.159 HD
BRANCH  19  21
HETATM   21  C2  UNL     1      21.815   2.937  50.884  1.00  0.00    -0.003 C 
HETATM   22  C1  UNL     1      20.481   3.530  50.541  1.00  0.00     0.067 C 
HETATM   23  C3  UNL     1      21.758   1.594  50.918  1.00  0.00    -0.002 C 
BRANCH  23  24
HETATM   24  C4  UNL     1      20.632   0.660  50.677  1.00  0.00     0.040 C 
BRANCH  24  25
HETATM   25  C5  UNL     1      19.975   0.204  51.954  1.00  0.00     0.089 C 
HETATM   26 BR1  UNL     1      18.091  -0.099  51.530  1.00  0.00    -0.096 Br
ENDBRANCH  24  25
ENDBRANCH  23  24
ENDBRANCH  19  21
ENDBRANCH  18  19
ENDBRANCH   1  18
BRANCH  11  27
HETATM   27  O1  UNL     1      21.352  -1.346  54.928  1.00  0.00    -0.361 OA
HETATM   28  H17 UNL     1      20.721  -0.686  54.492  1.00  0.00     0.217 HD
ENDBRANCH  11  27
TORSDOF 6
ENDMDL
MODEL 6
REMARK VINA RESULT:      -7.7      3.971      6.192
REMARK  6 active torsions:
REMARK  status: ('A' for Active; 'I' for Inactive)
REMARK    1  A    between atoms: C2_2  and  N1_7 
REMARK    2  A    between atoms: C3_3  and  C4_4 
REMARK    3  A    between atoms: C4_4  and  C5_5 
REMARK    4  A    between atoms: N1_7  and  C6_8 
REMARK    5  A    between atoms: C6_8  and  C7_9 
REMARK    6  A    between atoms: C16_19  and  O1_20 
ROOT
HETATM    1  C7  UNL     1      23.279   4.067  52.279  1.00  0.00     0.078 A 
HETATM    2  C8  UNL     1      23.180   5.364  51.634  1.00  0.00     0.031 A 
HETATM    3  C9  UNL     1      21.920   5.296  50.971  1.00  0.00     0.023 A 
HETATM    4  C10 UNL     1      20.891   4.324  50.856  1.00  0.00     0.010 A 
HETATM    5  C11 UNL     1      20.846   3.019  51.432  1.00  0.00     0.048 A 
HETATM    6  C12 UNL     1      22.061   3.431  51.909  1.00  0.00     0.076 A 
HETATM    7  N2  UNL     1      23.021   3.734  50.834  1.00  0.00    -0.261 NA
HETATM    8  C13 UNL     1      23.143   3.091  49.762  1.00  0.00     0.074 C 
HETATM    9  C14 UNL     1      24.199   4.076  49.435  1.00  0.00    -0.015 A 
HETATM   10  C15 UNL     1      25.559   3.879  49.446  1.00  0.00     0.049 A 
HETATM   11  C16 UNL     1      26.548   4.794  49.152  1.00  0.00     0.066 A 
HETATM   12  C17 UNL     1      26.105   6.052  48.808  1.00  0.00     0.037 A 
HETATM   13  C18 UNL     1      24.753   6.321  48.774  1.00  0.00     0.012 A 
HETATM   14  C19 UNL     1      23.756   5.385  49.074  1.00  0.00    -0.029 A 
HETATM   15  C20 UNL     1      22.387   5.925  48.950  1.00  0.00     0.159 C 
HETATM   16  N3  UNL     1      21.835   6.464  50.182  1.00  0.00    -0.386 N 
HETATM   17  H22 UNL     1      21.471   7.407  50.465  1.00  0.00     0.160 HD
ENDROOT
BRANCH   1  18
HETATM   18  C6  UNL     1      24.180   3.241  53.181  1.00  0.00     0.151 C 
BRANCH  18  19
HETATM   19  N1  UNL     1      25.490   3.070  52.652  1.00  0.00    -0.391 N 
HETATM   20  H9  UNL     1      26.412   3.394  52.307  1.00  0.00     0.159 HD
BRANCH  19  21
HETATM   21  C2  UNL     1      25.644   1.655  52.509  1.00  0.00    -0.003 C 
HETATM   22  C1  UNL     1      26.600   0.734  51.811  1.00  0.00     0.067 C 
HETATM   23  C3  UNL     1      24.695   0.967  53.168  1.00  0.00    -0.002 C 
BRANCH  23  24
HETATM   24  C4  UNL     1      24.466  -0.492  53.302  1.00  0.00     0.040 C 
BRANCH  24  25
HETATM   25  C5  UNL     1      23.418  -0.822  54.333  1.00  0.00     0.089 C 
HETATM   26 BR1  UNL     1      21.801   0.142  53.809  1.00  0.00    -0.096 Br
ENDBRANCH  24  25
ENDBRANCH  23  24
ENDBRANCH  19  21
ENDBRANCH  18  19
ENDBRANCH   1  18
BRANCH  11  27
HETATM   27  O1  UNL     1      27.868   4.386  49.226  1.00  0.00    -0.361 OA
HETATM   28  H17 UNL     1      28.568   5.112  49.144  1.00  0.00     0.217 HD
ENDBRANCH  11  27
TORSDOF 6
ENDMDL
MODEL 7
REMARK VINA RESULT:      -7.7      3.447      4.897
REMARK  6 active torsions:
REMARK  status: ('A' for Active; 'I' for Inactive)
REMARK    1  A    between atoms: C2_2  and  N1_7 
REMARK    2  A    between atoms: C3_3  and  C4_4 
REMARK    3  A    between atoms: C4_4  and  C5_5 
REMARK    4  A    between atoms: N1_7  and  C6_8 
REMARK    5  A    between atoms: C6_8  and  C7_9 
REMARK    6  A    between atoms: C16_19  and  O1_20 
ROOT
HETATM    1  C7  UNL     1      24.075   3.505  52.664  1.00  0.00     0.078 A 
HETATM    2  C8  UNL     1      24.851   2.555  53.441  1.00  0.00     0.031 A 
HETATM    3  C9  UNL     1      25.809   2.078  52.501  1.00  0.00     0.023 A 
HETATM    4  C10 UNL     1      26.099   2.339  51.136  1.00  0.00     0.010 A 
HETATM    5  C11 UNL     1      25.434   3.240  50.252  1.00  0.00     0.048 A 
HETATM    6  C12 UNL     1      24.695   3.453  51.384  1.00  0.00     0.076 A 
HETATM    7  N2  UNL     1      24.012   2.237  51.855  1.00  0.00    -0.261 NA
HETATM    8  C13 UNL     1      23.484   1.366  51.120  1.00  0.00     0.074 C 
HETATM    9  C14 UNL     1      23.152   0.674  52.387  1.00  0.00    -0.015 A 
HETATM   10  C15 UNL     1      21.922   0.586  52.994  1.00  0.00     0.049 A 
HETATM   11  C16 UNL     1      21.608  -0.047  54.178  1.00  0.00     0.066 A 
HETATM   12  C17 UNL     1      22.663  -0.660  54.818  1.00  0.00     0.037 A 
HETATM   13  C18 UNL     1      23.925  -0.613  54.266  1.00  0.00     0.012 A 
HETATM   14  C19 UNL     1      24.234   0.033  53.062  1.00  0.00    -0.029 A 
HETATM   15  C20 UNL     1      25.658  -0.076  52.687  1.00  0.00     0.159 C 
HETATM   16  N3  UNL     1      26.491   1.023  53.146  1.00  0.00    -0.386 N 
HETATM   17  H22 UNL     1      27.340   1.085  53.759  1.00  0.00     0.160 HD
ENDROOT
BRANCH   1  18
HETATM   18  C6  UNL     1      22.921   4.486  52.773  1.00  0.00     0.151 C 
BRANCH  18  19
HETATM   19  N1  UNL     1      22.517   5.013  51.515  1.00  0.00    -0.391 N 
HETATM   20  H9  UNL     1      22.596   5.634  50.688  1.00  0.00     0.159 HD
BRANCH  19  21
HETATM   21  C2  UNL     1      21.333   4.285  51.177  1.00  0.00    -0.003 C 
HETATM   22  C1  UNL     1      20.182   3.681  51.924  1.00  0.00     0.067 C 
HETATM   23  C3  UNL     1      21.211   4.092  49.851  1.00  0.00    -0.002 C 
BRANCH  23  24
HETATM   24  C4  UNL     1      20.161   3.407  49.059  1.00  0.00     0.040 C 
BRANCH  24  25
HETATM   25  C5  UNL     1      20.599   2.053  48.565  1.00  0.00     0.089 C 
HETATM   26 BR1  UNL     1      22.357   2.303  47.747  1.00  0.00    -0.096 Br
ENDBRANCH  24  25
ENDBRANCH  23  24
ENDBRANCH  19  21
ENDBRANCH  18  19
ENDBRANCH   1  18
BRANCH  11  27
HETATM   27  O1  UNL     1      20.295  -0.015  54.615  1.00  0.00    -0.361 OA
HETATM   28  H17 UNL     1      19.931  -0.874  55.008  1.00  0.00     0.217 HD
ENDBRANCH  11  27
TORSDOF 6
ENDMDL
MODEL 8
REMARK VINA RESULT:      -7.6      4.469      6.717
REMARK  6 active torsions:
REMARK  status: ('A' for Active; 'I' for Inactive)
REMARK    1  A    between atoms: C2_2  and  N1_7 
REMARK    2  A    between atoms: C3_3  and  C4_4 
REMARK    3  A    between atoms: C4_4  and  C5_5 
REMARK    4  A    between atoms: N1_7  and  C6_8 
REMARK    5  A    between atoms: C6_8  and  C7_9 
REMARK    6  A    between atoms: C16_19  and  O1_20 
ROOT
HETATM    1  C7  UNL     1      24.296   3.596  50.794  1.00  0.00     0.078 A 
HETATM    2  C8  UNL     1      24.078   2.160  50.816  1.00  0.00     0.031 A 
HETATM    3  C9  UNL     1      22.867   2.033  51.556  1.00  0.00     0.023 A 
HETATM    4  C10 UNL     1      21.964   2.936  52.178  1.00  0.00     0.010 A 
HETATM    5  C11 UNL     1      22.044   4.359  52.234  1.00  0.00     0.048 A 
HETATM    6  C12 UNL     1      23.179   4.101  51.515  1.00  0.00     0.076 A 
HETATM    7  N2  UNL     1      24.147   3.275  52.256  1.00  0.00    -0.261 NA
HETATM    8  C13 UNL     1      24.392   3.363  53.485  1.00  0.00     0.074 C 
HETATM    9  C14 UNL     1      25.341   2.251  53.251  1.00  0.00    -0.015 A 
HETATM   10  C15 UNL     1      26.712   2.318  53.200  1.00  0.00     0.049 A 
HETATM   11  C16 UNL     1      27.601   1.289  52.973  1.00  0.00     0.066 A 
HETATM   12  C17 UNL     1      27.032   0.050  52.775  1.00  0.00     0.037 A 
HETATM   13  C18 UNL     1      25.661  -0.092  52.813  1.00  0.00     0.012 A 
HETATM   14  C19 UNL     1      24.767   0.960  53.045  1.00  0.00    -0.029 A 
HETATM   15  C20 UNL     1      23.351   0.537  53.048  1.00  0.00     0.159 C 
HETATM   16  N3  UNL     1      22.683   0.648  51.762  1.00  0.00    -0.386 N 
HETATM   17  H22 UNL     1      22.200  -0.038  51.132  1.00  0.00     0.160 HD
ENDROOT
BRANCH   1  18
HETATM   18  C6  UNL     1      25.244   4.657  50.261  1.00  0.00     0.151 C 
BRANCH  18  19
HETATM   19  N1  UNL     1      25.190   5.872  51.000  1.00  0.00    -0.391 N 
HETATM   20  H9  UNL     1      25.091   6.444  51.859  1.00  0.00     0.159 HD
BRANCH  19  21
HETATM   21  C2  UNL     1      25.382   6.901  50.025  1.00  0.00    -0.003 C 
HETATM   22  C1  UNL     1      24.890   8.302  49.817  1.00  0.00     0.067 C 
HETATM   23  C3  UNL     1      26.218   6.526  49.041  1.00  0.00    -0.002 C 
BRANCH  23  24
HETATM   24  C4  UNL     1      26.703   7.254  47.844  1.00  0.00     0.040 C 
BRANCH  24  25
HETATM   25  C5  UNL     1      28.198   7.439  47.844  1.00  0.00     0.089 C 
HETATM   26 BR1  UNL     1      28.974   5.682  48.208  1.00  0.00    -0.096 Br
ENDBRANCH  24  25
ENDBRANCH  23  24
ENDBRANCH  19  21
ENDBRANCH  18  19
ENDBRANCH   1  18
BRANCH  11  27
HETATM   27  O1  UNL     1      28.955   1.575  52.962  1.00  0.00    -0.361 OA
HETATM   28  H17 UNL     1      29.212   2.521  52.710  1.00  0.00     0.217 HD
ENDBRANCH  11  27
TORSDOF 6
ENDMDL
MODEL 9
REMARK VINA RESULT:      -7.6      3.691      5.414
REMARK  6 active torsions:
REMARK  status: ('A' for Active; 'I' for Inactive)
REMARK    1  A    between atoms: C2_2  and  N1_7 
REMARK    2  A    between atoms: C3_3  and  C4_4 
REMARK    3  A    between atoms: C4_4  and  C5_5 
REMARK    4  A    between atoms: N1_7  and  C6_8 
REMARK    5  A    between atoms: C6_8  and  C7_9 
REMARK    6  A    between atoms: C16_19  and  O1_20 
ROOT
HETATM    1  C7  UNL     1      24.719   2.800  53.101  1.00  0.00     0.078 A 
HETATM    2  C8  UNL     1      25.465   2.144  54.160  1.00  0.00     0.031 A 
HETATM    3  C9  UNL     1      26.658   1.730  53.501  1.00  0.00     0.023 A 
HETATM    4  C10 UNL     1      27.173   1.840  52.182  1.00  0.00     0.010 A 
HETATM    5  C11 UNL     1      26.563   2.456  51.048  1.00  0.00     0.048 A 
HETATM    6  C12 UNL     1      25.586   2.684  51.979  1.00  0.00     0.076 A 
HETATM    7  N2  UNL     1      25.029   1.440  52.536  1.00  0.00    -0.261 NA
HETATM    8  C13 UNL     1      24.811   0.385  51.891  1.00  0.00     0.074 C 
HETATM    9  C14 UNL     1      24.345  -0.165  53.185  1.00  0.00    -0.015 A 
HETATM   10  C15 UNL     1      23.049  -0.401  53.575  1.00  0.00     0.049 A 
HETATM   11  C16 UNL     1      22.609  -0.903  54.782  1.00  0.00     0.066 A 
HETATM   12  C17 UNL     1      23.597  -1.199  55.695  1.00  0.00     0.037 A 
HETATM   13  C18 UNL     1      24.920  -0.988  55.370  1.00  0.00     0.012 A 
HETATM   14  C19 UNL     1      25.357  -0.478  54.141  1.00  0.00    -0.029 A 
HETATM   15  C20 UNL     1      26.827  -0.361  54.045  1.00  0.00     0.159 C 
HETATM   16  N3  UNL     1      27.359   0.935  54.434  1.00  0.00    -0.386 N 
HETATM   17  H22 UNL     1      28.044   1.250  55.163  1.00  0.00     0.160 HD
ENDROOT
BRANCH   1  18
HETATM   18  C6  UNL     1      23.422   3.544  52.830  1.00  0.00     0.151 C 
BRANCH  18  19
HETATM   19  N1  UNL     1      23.092   3.602  51.447  1.00  0.00    -0.391 N 
HETATM   20  H9  UNL     1      22.920   3.202  50.506  1.00  0.00     0.159 HD
BRANCH  19  21
HETATM   21  C2  UNL     1      22.860   4.989  51.184  1.00  0.00    -0.003 C 
HETATM   22  C1  UNL     1      21.667   5.856  50.918  1.00  0.00     0.067 C 
HETATM   23  C3  UNL     1      23.998   5.706  51.173  1.00  0.00    -0.002 C 
BRANCH  23  24
HETATM   24  C4  UNL     1      24.236   7.152  50.950  1.00  0.00     0.040 C 
BRANCH  24  25
HETATM   25  C5  UNL     1      25.577   7.429  50.324  1.00  0.00     0.089 C 
HETATM   26 BR1  UNL     1      25.968   5.911  49.157  1.00  0.00    -0.096 Br
ENDBRANCH  24  25
ENDBRANCH  23  24
ENDBRANCH  19  21
ENDBRANCH  18  19
ENDBRANCH   1  18
BRANCH  11  27
HETATM   27  O1  UNL     1      21.248  -1.064  54.973  1.00  0.00    -0.361 OA
HETATM   28  H17 UNL     1      20.661  -0.942  54.157  1.00  0.00     0.217 HD
ENDBRANCH  11  27
TORSDOF 6
ENDMDL
