MODEL 1
REMARK VINA RESULT:      -9.3      0.000      0.000
REMARK  3 active torsions:
REMARK  status: ('A' for Active; 'I' for Inactive)
REMARK    1  A    between atoms: N1_1  and  C1_2 
REMARK    2  A    between atoms: C2_3  and  C3_4 
REMARK    3  A    between atoms: C11_12  and  C12_13 
ROOT
HETATM    1  C3  UNL     1      25.467   0.454  52.480  1.00  0.00    -0.033 C 
HETATM    2  C4  UNL     1      24.137   0.384  52.697  1.00  0.00     0.040 C 
HETATM    3  C5  UNL     1      22.989   1.327  52.636  1.00  0.00     0.028 C 
HETATM    4  C6  UNL     1      23.090   2.637  53.015  1.00  0.00     0.030 C 
HETATM    5  C7  UNL     1      24.059   3.747  52.729  1.00  0.00     0.012 C 
HETATM    6  C8  UNL     1      24.808   3.583  51.615  1.00  0.00    -0.029 C 
HETATM    7  C9  UNL     1      25.961   2.700  51.325  1.00  0.00     0.010 C 
HETATM    8  C10 UNL     1      26.311   1.509  51.855  1.00  0.00     0.012 C 
HETATM    9  C11 UNL     1      24.509   4.298  50.316  1.00  0.00     0.175 C 
HETATM   10  N2  UNL     1      23.791   3.388  49.499  1.00  0.00    -0.268 NA
HETATM   11  C18 UNL     1      23.081   3.601  48.508  1.00  0.00     0.227 C 
HETATM   12  N3  UNL     1      23.006   2.160  48.660  1.00  0.00    -0.259 NA
HETATM   13  C19 UNL     1      21.933   1.691  49.261  1.00  0.00     0.092 C 
HETATM   14  C20 UNL     1      21.217   0.483  49.732  1.00  0.00     0.066 C 
HETATM   15  C21 UNL     1      20.810   0.541  51.176  1.00  0.00     0.125 C 
HETATM   16  N4  UNL     1      21.901   0.587  52.116  1.00  0.00    -0.390 N 
HETATM   17  H21 UNL     1      21.992  -0.265  52.731  1.00  0.00     0.159 HD
ENDROOT
BRANCH   9  18
HETATM   18  C12 UNL     1      25.632   4.964  49.713  1.00  0.00    -0.028 A 
HETATM   19  C13 UNL     1      26.687   4.271  49.165  1.00  0.00     0.010 A 
HETATM   20  C14 UNL     1      27.776   4.847  48.548  1.00  0.00     0.002 A 
HETATM   21  C15 UNL     1      27.862   6.216  48.448  1.00  0.00     0.019 A 
HETATM   22  C16 UNL     1      26.852   6.996  48.969  1.00  0.00     0.011 A 
HETATM   23 BR1  UNL     1      26.928   8.882  48.856  1.00  0.00    -0.051 Br
HETATM   24  C17 UNL     1      25.803   6.339  49.566  1.00  0.00     0.028 A 
ENDBRANCH   9  18
BRANCH   1  25
HETATM   25  C2  UNL     1      26.215  -0.704  52.927  1.00  0.00     0.028 C 
HETATM   26  C1  UNL     1      26.826  -1.655  52.288  1.00  0.00     0.081 C 
BRANCH  26  27
HETATM   27  N1  UNL     1      27.541  -2.761  52.880  1.00  0.00    -0.408 N 
HETATM   28  H1  UNL     1      27.611  -2.912  53.927  1.00  0.00     0.155 HD
HETATM   29  H2  UNL     1      28.020  -3.456  52.231  1.00  0.00     0.155 HD
ENDBRANCH  26  27
ENDBRANCH   1  25
TORSDOF 3
ENDMDL
MODEL 2
REMARK VINA RESULT:      -8.6      3.139      6.387
REMARK  3 active torsions:
REMARK  status: ('A' for Active; 'I' for Inactive)
REMARK    1  A    between atoms: N1_1  and  C1_2 
REMARK    2  A    between atoms: C2_3  and  C3_4 
REMARK    3  A    between atoms: C11_12  and  C12_13 
ROOT
HETATM    1  C3  UNL     1      25.764   5.010  49.085  1.00  0.00    -0.033 C 
HETATM    2  C4  UNL     1      24.741   5.673  48.506  1.00  0.00     0.040 C 
HETATM    3  C5  UNL     1      23.297   5.416  48.263  1.00  0.00     0.028 C 
HETATM    4  C6  UNL     1      22.809   4.177  47.952  1.00  0.00     0.030 C 
HETATM    5  C7  UNL     1      22.993   2.798  48.517  1.00  0.00     0.012 C 
HETATM    6  C8  UNL     1      23.442   2.755  49.792  1.00  0.00    -0.029 C 
HETATM    7  C9  UNL     1      24.779   3.011  50.374  1.00  0.00     0.010 C 
HETATM    8  C10 UNL     1      25.793   3.792  49.940  1.00  0.00     0.012 C 
HETATM    9  C11 UNL     1      22.533   2.482  50.970  1.00  0.00     0.175 C 
HETATM   10  N2  UNL     1      22.204   3.739  51.538  1.00  0.00    -0.268 NA
HETATM   11  C18 UNL     1      21.276   4.048  52.297  1.00  0.00     0.227 C 
HETATM   12  N3  UNL     1      21.973   5.306  52.102  1.00  0.00    -0.259 NA
HETATM   13  C19 UNL     1      21.454   6.131  51.219  1.00  0.00     0.092 C 
HETATM   14  C20 UNL     1      21.573   7.445  50.545  1.00  0.00     0.066 C 
HETATM   15  C21 UNL     1      21.539   7.365  49.045  1.00  0.00     0.125 C 
HETATM   16  N4  UNL     1      22.642   6.657  48.447  1.00  0.00    -0.390 N 
HETATM   17  H21 UNL     1      23.288   7.254  47.866  1.00  0.00     0.159 HD
ENDROOT
BRANCH   9  18
HETATM   18  C12 UNL     1      22.995   1.462  51.874  1.00  0.00    -0.028 A 
HETATM   19  C13 UNL     1      22.259   0.329  52.136  1.00  0.00     0.010 A 
HETATM   20  C14 UNL     1      22.656  -0.697  52.966  1.00  0.00     0.002 A 
HETATM   21  C15 UNL     1      23.871  -0.629  53.606  1.00  0.00     0.019 A 
HETATM   22  C16 UNL     1      24.680   0.470  53.405  1.00  0.00     0.011 A 
HETATM   23 BR1  UNL     1      26.359   0.606  54.264  1.00  0.00    -0.051 Br
HETATM   24  C17 UNL     1      24.206   1.445  52.561  1.00  0.00     0.028 A 
ENDBRANCH   9  18
BRANCH   1  25
HETATM   25  C2  UNL     1      27.072   5.584  48.842  1.00  0.00     0.028 C 
HETATM   26  C1  UNL     1      28.204   5.065  48.475  1.00  0.00     0.081 C 
BRANCH  26  27
HETATM   27  N1  UNL     1      29.444   5.776  48.272  1.00  0.00    -0.408 N 
HETATM   28  H1  UNL     1      30.282   5.678  48.914  1.00  0.00     0.155 HD
HETATM   29  H2  UNL     1      29.517   6.430  47.434  1.00  0.00     0.155 HD
ENDBRANCH  26  27
ENDBRANCH   1  25
TORSDOF 3
ENDMDL
MODEL 3
REMARK VINA RESULT:      -8.6      3.320      5.307
REMARK  3 active torsions:
REMARK  status: ('A' for Active; 'I' for Inactive)
REMARK    1  A    between atoms: N1_1  and  C1_2 
REMARK    2  A    between atoms: C2_3  and  C3_4 
REMARK    3  A    between atoms: C11_12  and  C12_13 
ROOT
HETATM    1  C3  UNL     1      21.388   1.716  52.601  1.00  0.00    -0.033 C 
HETATM    2  C4  UNL     1      21.120   2.926  52.066  1.00  0.00     0.040 C 
HETATM    3  C5  UNL     1      21.866   4.193  51.851  1.00  0.00     0.028 C 
HETATM    4  C6  UNL     1      22.778   4.674  52.750  1.00  0.00     0.030 C 
HETATM    5  C7  UNL     1      23.935   4.082  53.501  1.00  0.00     0.012 C 
HETATM    6  C8  UNL     1      24.442   2.946  52.970  1.00  0.00    -0.029 C 
HETATM    7  C9  UNL     1      23.933   1.555  52.950  1.00  0.00     0.010 C 
HETATM    8  C10 UNL     1      22.671   1.080  53.009  1.00  0.00     0.012 C 
HETATM    9  C11 UNL     1      25.715   2.923  52.153  1.00  0.00     0.175 C 
HETATM   10  N2  UNL     1      25.331   2.930  50.788  1.00  0.00    -0.268 NA
HETATM   11  C18 UNL     1      25.988   3.221  49.780  1.00  0.00     0.227 C 
HETATM   12  N3  UNL     1      24.686   2.884  49.236  1.00  0.00    -0.259 NA
HETATM   13  C19 UNL     1      23.894   3.895  48.946  1.00  0.00     0.092 C 
HETATM   14  C20 UNL     1      22.574   4.311  48.420  1.00  0.00     0.066 C 
HETATM   15  C21 UNL     1      21.826   5.247  49.325  1.00  0.00     0.125 C 
HETATM   16  N4  UNL     1      21.442   4.690  50.596  1.00  0.00    -0.390 N 
HETATM   17  H21 UNL     1      20.402   4.580  50.736  1.00  0.00     0.159 HD
ENDROOT
BRANCH   9  18
HETATM   18  C12 UNL     1      26.678   1.931  52.552  1.00  0.00    -0.028 A 
HETATM   19  C13 UNL     1      27.842   2.262  53.208  1.00  0.00     0.010 A 
HETATM   20  C14 UNL     1      28.789   1.360  53.642  1.00  0.00     0.002 A 
HETATM   21  C15 UNL     1      28.604   0.015  53.424  1.00  0.00     0.019 A 
HETATM   22  C16 UNL     1      27.467  -0.414  52.773  1.00  0.00     0.011 A 
HETATM   23 BR1  UNL     1      27.171  -2.254  52.452  1.00  0.00    -0.051 Br
HETATM   24  C17 UNL     1      26.575   0.553  52.376  1.00  0.00     0.028 A 
ENDBRANCH   9  18
BRANCH   1  25
HETATM   25  C2  UNL     1      20.227   0.875  52.812  1.00  0.00     0.028 C 
HETATM   26  C1  UNL     1      20.041  -0.209  53.501  1.00  0.00     0.081 C 
BRANCH  26  27
HETATM   27  N1  UNL     1      18.805  -0.947  53.617  1.00  0.00    -0.408 N 
HETATM   28  H1  UNL     1      18.252  -1.288  52.779  1.00  0.00     0.155 HD
HETATM   29  H2  UNL     1      18.434  -1.156  54.593  1.00  0.00     0.155 HD
ENDBRANCH  26  27
ENDBRANCH   1  25
TORSDOF 3
ENDMDL
MODEL 4
REMARK VINA RESULT:      -8.4      4.121      7.415
REMARK  3 active torsions:
REMARK  status: ('A' for Active; 'I' for Inactive)
REMARK    1  A    between atoms: N1_1  and  C1_2 
REMARK    2  A    between atoms: C2_3  and  C3_4 
REMARK    3  A    between atoms: C11_12  and  C12_13 
ROOT
HETATM    1  C3  UNL     1      23.739   0.803  52.196  1.00  0.00    -0.033 C 
HETATM    2  C4  UNL     1      23.969   1.865  51.397  1.00  0.00     0.040 C 
HETATM    3  C5  UNL     1      23.260   2.538  50.277  1.00  0.00     0.028 C 
HETATM    4  C6  UNL     1      22.546   1.850  49.335  1.00  0.00     0.030 C 
HETATM    5  C7  UNL     1      21.512   0.764  49.380  1.00  0.00     0.012 C 
HETATM    6  C8  UNL     1      20.863   0.637  50.560  1.00  0.00    -0.029 C 
HETATM    7  C9  UNL     1      21.291   0.081  51.864  1.00  0.00     0.010 C 
HETATM    8  C10 UNL     1      22.518  -0.021  52.417  1.00  0.00     0.012 C 
HETATM    9  C11 UNL     1      19.466   1.173  50.787  1.00  0.00     0.175 C 
HETATM   10  N2  UNL     1      19.604   2.425  51.438  1.00  0.00    -0.268 NA
HETATM   11  C18 UNL     1      18.795   3.355  51.549  1.00  0.00     0.227 C 
HETATM   12  N3  UNL     1      19.963   3.851  52.253  1.00  0.00    -0.259 NA
HETATM   13  C19 UNL     1      20.740   4.677  51.586  1.00  0.00     0.092 C 
HETATM   14  C20 UNL     1      21.966   5.508  51.617  1.00  0.00     0.066 C 
HETATM   15  C21 UNL     1      22.907   5.246  50.477  1.00  0.00     0.125 C 
HETATM   16  N4  UNL     1      23.481   3.925  50.450  1.00  0.00    -0.390 N 
HETATM   17  H21 UNL     1      24.522   3.891  50.615  1.00  0.00     0.159 HD
ENDROOT
BRANCH   9  18
HETATM   18  C12 UNL     1      18.540   0.237  51.367  1.00  0.00    -0.028 A 
HETATM   19  C13 UNL     1      18.760  -0.344  52.596  1.00  0.00     0.010 A 
HETATM   20  C14 UNL     1      17.901  -1.223  53.219  1.00  0.00     0.002 A 
HETATM   21  C15 UNL     1      16.722  -1.579  52.606  1.00  0.00     0.019 A 
HETATM   22  C16 UNL     1      16.415  -1.049  51.372  1.00  0.00     0.011 A 
HETATM   23 BR1  UNL     1      14.806  -1.511  50.492  1.00  0.00    -0.051 Br
HETATM   24  C17 UNL     1      17.328  -0.180  50.823  1.00  0.00     0.028 A 
ENDBRANCH   9  18
BRANCH   1  25
HETATM   25  C2  UNL     1      24.876   0.385  52.991  1.00  0.00     0.028 C 
HETATM   26  C1  UNL     1      24.977  -0.308  54.084  1.00  0.00     0.081 C 
BRANCH  26  27
HETATM   27  N1  UNL     1      26.200  -0.648  54.771  1.00  0.00    -0.408 N 
HETATM   28  H1  UNL     1      26.335  -0.521  55.815  1.00  0.00     0.155 HD
HETATM   29  H2  UNL     1      27.005  -1.046  54.197  1.00  0.00     0.155 HD
ENDBRANCH  26  27
ENDBRANCH   1  25
TORSDOF 3
ENDMDL
MODEL 5
REMARK VINA RESULT:      -8.3      3.501      6.768
REMARK  3 active torsions:
REMARK  status: ('A' for Active; 'I' for Inactive)
REMARK    1  A    between atoms: N1_1  and  C1_2 
REMARK    2  A    between atoms: C2_3  and  C3_4 
REMARK    3  A    between atoms: C11_12  and  C12_13 
ROOT
HETATM    1  C3  UNL     1      23.761   3.847  49.303  1.00  0.00    -0.033 C 
HETATM    2  C4  UNL     1      22.705   4.123  48.509  1.00  0.00     0.040 C 
HETATM    3  C5  UNL     1      21.409   3.473  48.182  1.00  0.00     0.028 C 
HETATM    4  C6  UNL     1      21.270   2.116  48.075  1.00  0.00     0.030 C 
HETATM    5  C7  UNL     1      21.685   0.943  48.915  1.00  0.00     0.012 C 
HETATM    6  C8  UNL     1      21.946   1.228  50.211  1.00  0.00    -0.029 C 
HETATM    7  C9  UNL     1      23.091   1.909  50.858  1.00  0.00     0.010 C 
HETATM    8  C10 UNL     1      23.948   2.836  50.380  1.00  0.00     0.012 C 
HETATM    9  C11 UNL     1      20.967   0.935  51.326  1.00  0.00     0.175 C 
HETATM   10  N2  UNL     1      20.279   2.144  51.601  1.00  0.00    -0.268 NA
HETATM   11  C18 UNL     1      19.207   2.331  52.191  1.00  0.00     0.227 C 
HETATM   12  N3  UNL     1      19.615   3.674  51.822  1.00  0.00    -0.259 NA
HETATM   13  C19 UNL     1      19.051   4.181  50.747  1.00  0.00     0.092 C 
HETATM   14  C20 UNL     1      18.958   5.350  49.843  1.00  0.00     0.066 C 
HETATM   15  C21 UNL     1      19.156   5.015  48.392  1.00  0.00     0.125 C 
HETATM   16  N4  UNL     1      20.466   4.520  48.054  1.00  0.00    -0.390 N 
HETATM   17  H21 UNL     1      21.033   5.156  47.432  1.00  0.00     0.159 HD
ENDROOT
BRANCH   9  18
HETATM   18  C12 UNL     1      21.518   0.231  52.453  1.00  0.00    -0.028 A 
HETATM   19  C13 UNL     1      20.733  -0.506  53.311  1.00  0.00     0.010 A 
HETATM   20  C14 UNL     1      21.201  -1.225  54.389  1.00  0.00     0.002 A 
HETATM   21  C15 UNL     1      22.547  -1.239  54.671  1.00  0.00     0.019 A 
HETATM   22  C16 UNL     1      23.413  -0.530  53.867  1.00  0.00     0.011 A 
HETATM   23 BR1  UNL     1      25.271  -0.519  54.218  1.00  0.00    -0.051 Br
HETATM   24  C17 UNL     1      22.861   0.159  52.814  1.00  0.00     0.028 A 
ENDBRANCH   9  18
BRANCH   1  25
HETATM   25  C2  UNL     1      24.922   4.684  49.080  1.00  0.00     0.028 C 
HETATM   26  C1  UNL     1      26.026   4.850  49.744  1.00  0.00     0.081 C 
BRANCH  26  27
HETATM   27  N1  UNL     1      27.110   5.736  49.391  1.00  0.00    -0.408 N 
HETATM   28  H1  UNL     1      27.505   5.809  48.410  1.00  0.00     0.155 HD
HETATM   29  H2  UNL     1      27.531   6.345  50.157  1.00  0.00     0.155 HD
ENDBRANCH  26  27
ENDBRANCH   1  25
TORSDOF 3
ENDMDL
MODEL 6
REMARK VINA RESULT:      -8.3      3.250      7.047
REMARK  3 active torsions:
REMARK  status: ('A' for Active; 'I' for Inactive)
REMARK    1  A    between atoms: N1_1  and  C1_2 
REMARK    2  A    between atoms: C2_3  and  C3_4 
REMARK    3  A    between atoms: C11_12  and  C12_13 
ROOT
HETATM    1  C3  UNL     1      22.409   3.908  48.076  1.00  0.00    -0.033 C 
HETATM    2  C4  UNL     1      23.178   5.015  48.128  1.00  0.00     0.040 C 
HETATM    3  C5  UNL     1      23.938   5.746  49.176  1.00  0.00     0.028 C 
HETATM    4  C6  UNL     1      23.491   5.867  50.463  1.00  0.00     0.030 C 
HETATM    5  C7  UNL     1      22.938   4.914  51.482  1.00  0.00     0.012 C 
HETATM    6  C8  UNL     1      23.234   3.611  51.271  1.00  0.00    -0.029 C 
HETATM    7  C9  UNL     1      22.718   2.630  50.290  1.00  0.00     0.010 C 
HETATM    8  C10 UNL     1      22.191   2.811  49.060  1.00  0.00     0.012 C 
HETATM    9  C11 UNL     1      24.317   2.885  52.038  1.00  0.00     0.175 C 
HETATM   10  N2  UNL     1      25.473   2.881  51.217  1.00  0.00    -0.268 NA
HETATM   11  C18 UNL     1      26.659   2.689  51.516  1.00  0.00     0.227 C 
HETATM   12  N3  UNL     1      26.717   2.926  50.086  1.00  0.00    -0.259 NA
HETATM   13  C19 UNL     1      27.064   4.138  49.708  1.00  0.00     0.092 C 
HETATM   14  C20 UNL     1      27.317   5.043  48.563  1.00  0.00     0.066 C 
HETATM   15  C21 UNL     1      26.555   6.336  48.630  1.00  0.00     0.125 C 
HETATM   16  N4  UNL     1      25.123   6.204  48.553  1.00  0.00    -0.390 N 
HETATM   17  H21 UNL     1      24.686   6.611  47.684  1.00  0.00     0.159 HD
ENDROOT
BRANCH   9  18
HETATM   18  C12 UNL     1      23.922   1.625  52.608  1.00  0.00    -0.028 A 
HETATM   19  C13 UNL     1      24.819   0.603  52.821  1.00  0.00     0.010 A 
HETATM   20  C14 UNL     1      24.511  -0.614  53.389  1.00  0.00     0.002 A 
HETATM   21  C15 UNL     1      23.222  -0.876  53.789  1.00  0.00     0.019 A 
HETATM   22  C16 UNL     1      22.251   0.087  53.616  1.00  0.00     0.011 A 
HETATM   23 BR1  UNL     1      20.465  -0.230  54.150  1.00  0.00    -0.051 Br
HETATM   24  C17 UNL     1      22.646   1.272  53.042  1.00  0.00     0.028 A 
ENDBRANCH   9  18
BRANCH   1  25
HETATM   25  C2  UNL     1      21.665   3.743  46.844  1.00  0.00     0.028 C 
HETATM   26  C1  UNL     1      21.915   4.076  45.615  1.00  0.00     0.081 C 
BRANCH  26  27
HETATM   27  N1  UNL     1      21.061   3.842  44.475  1.00  0.00    -0.408 N 
HETATM   28  H1  UNL     1      21.024   4.488  43.635  1.00  0.00     0.155 HD
HETATM   29  H2  UNL     1      20.440   2.977  44.481  1.00  0.00     0.155 HD
ENDBRANCH  26  27
ENDBRANCH   1  25
TORSDOF 3
ENDMDL
MODEL 7
REMARK VINA RESULT:      -7.9      5.438      9.346
REMARK  3 active torsions:
REMARK  status: ('A' for Active; 'I' for Inactive)
REMARK    1  A    between atoms: N1_1  and  C1_2 
REMARK    2  A    between atoms: C2_3  and  C3_4 
REMARK    3  A    between atoms: C11_12  and  C12_13 
ROOT
HETATM    1  C3  UNL     1      27.855   6.589  48.277  1.00  0.00    -0.033 C 
HETATM    2  C4  UNL     1      27.875   7.912  48.014  1.00  0.00     0.040 C 
HETATM    3  C5  UNL     1      28.912   8.974  47.934  1.00  0.00     0.028 C 
HETATM    4  C6  UNL     1      29.992   9.016  48.772  1.00  0.00     0.030 C 
HETATM    5  C7  UNL     1      31.008   8.013  49.236  1.00  0.00     0.012 C 
HETATM    6  C8  UNL     1      31.146   6.927  48.442  1.00  0.00    -0.029 C 
HETATM    7  C9  UNL     1      30.285   5.740  48.239  1.00  0.00     0.010 C 
HETATM    8  C10 UNL     1      28.951   5.586  48.383  1.00  0.00     0.012 C 
HETATM    9  C11 UNL     1      32.293   6.766  47.468  1.00  0.00     0.175 C 
HETATM   10  N2  UNL     1      31.810   7.156  46.193  1.00  0.00    -0.268 NA
HETATM   11  C18 UNL     1      32.433   7.483  45.175  1.00  0.00     0.227 C 
HETATM   12  N3  UNL     1      31.046   7.599  44.762  1.00  0.00    -0.259 NA
HETATM   13  C19 UNL     1      30.532   8.810  44.773  1.00  0.00     0.092 C 
HETATM   14  C20 UNL     1      29.331   9.638  44.517  1.00  0.00     0.066 C 
HETATM   15  C21 UNL     1      28.940  10.516  45.671  1.00  0.00     0.125 C 
HETATM   16  N4  UNL     1      28.531   9.814  46.861  1.00  0.00    -0.390 N 
HETATM   17  H21 UNL     1      27.516   9.935  47.119  1.00  0.00     0.159 HD
ENDROOT
BRANCH   9  18
HETATM   18  C12 UNL     1      32.986   5.507  47.543  1.00  0.00    -0.028 A 
HETATM   19  C13 UNL     1      34.261   5.403  48.053  1.00  0.00     0.010 A 
HETATM   20  C14 UNL     1      34.967   4.226  48.179  1.00  0.00     0.002 A 
HETATM   21  C15 UNL     1      34.398   3.040  47.779  1.00  0.00     0.019 A 
HETATM   22  C16 UNL     1      33.123   3.044  47.255  1.00  0.00     0.011 A 
HETATM   23 BR1  UNL     1      32.303   1.437  46.691  1.00  0.00    -0.051 Br
HETATM   24  C17 UNL     1      32.491   4.261  47.166  1.00  0.00     0.028 A 
ENDBRANCH   9  18
BRANCH   1  25
HETATM   25  C2  UNL     1      26.534   6.033  48.488  1.00  0.00     0.028 C 
HETATM   26  C1  UNL     1      26.103   5.039  49.205  1.00  0.00     0.081 C 
BRANCH  26  27
HETATM   27  N1  UNL     1      24.733   4.597  49.316  1.00  0.00    -0.408 N 
HETATM   28  H1  UNL     1      24.450   3.575  49.309  1.00  0.00     0.155 HD
HETATM   29  H2  UNL     1      23.972   5.336  49.409  1.00  0.00     0.155 HD
ENDBRANCH  26  27
ENDBRANCH   1  25
TORSDOF 3
ENDMDL
MODEL 8
REMARK VINA RESULT:      -7.7      8.041     10.260
REMARK  3 active torsions:
REMARK  status: ('A' for Active; 'I' for Inactive)
REMARK    1  A    between atoms: N1_1  and  C1_2 
REMARK    2  A    between atoms: C2_3  and  C3_4 
REMARK    3  A    between atoms: C11_12  and  C12_13 
ROOT
HETATM    1  C3  UNL     1      34.380   5.560  48.515  1.00  0.00    -0.033 C 
HETATM    2  C4  UNL     1      34.425   4.800  47.402  1.00  0.00     0.040 C 
HETATM    3  C5  UNL     1      33.453   4.343  46.375  1.00  0.00     0.028 C 
HETATM    4  C6  UNL     1      32.160   4.012  46.676  1.00  0.00     0.030 C 
HETATM    5  C7  UNL     1      31.064   4.656  47.475  1.00  0.00     0.012 C 
HETATM    6  C8  UNL     1      31.204   5.987  47.673  1.00  0.00    -0.029 C 
HETATM    7  C9  UNL     1      32.103   6.761  48.558  1.00  0.00     0.010 C 
HETATM    8  C10 UNL     1      33.323   6.460  49.054  1.00  0.00     0.012 C 
HETATM    9  C11 UNL     1      30.433   7.017  46.878  1.00  0.00     0.175 C 
HETATM   10  N2  UNL     1      31.293   7.472  45.847  1.00  0.00    -0.268 NA
HETATM   11  C18 UNL     1      31.025   8.062  44.792  1.00  0.00     0.227 C 
HETATM   12  N3  UNL     1      32.469   7.927  44.733  1.00  0.00    -0.259 NA
HETATM   13  C19 UNL     1      32.934   6.938  44.000  1.00  0.00     0.092 C 
HETATM   14  C20 UNL     1      34.141   6.236  43.505  1.00  0.00     0.066 C 
HETATM   15  C21 UNL     1      34.128   4.755  43.753  1.00  0.00     0.125 C 
HETATM   16  N4  UNL     1      34.145   4.368  45.141  1.00  0.00    -0.390 N 
HETATM   17  H21 UNL     1      35.022   3.872  45.451  1.00  0.00     0.159 HD
ENDROOT
BRANCH   9  18
HETATM   18  C12 UNL     1      29.772   8.025  47.663  1.00  0.00    -0.028 A 
HETATM   19  C13 UNL     1      28.592   7.777  48.328  1.00  0.00     0.010 A 
HETATM   20  C14 UNL     1      27.925   8.687  49.119  1.00  0.00     0.002 A 
HETATM   21  C15 UNL     1      28.435   9.953  49.287  1.00  0.00     0.019 A 
HETATM   22  C16 UNL     1      29.614  10.295  48.659  1.00  0.00     0.011 A 
HETATM   23 BR1  UNL     1      30.353  12.024  48.861  1.00  0.00    -0.051 Br
HETATM   24  C17 UNL     1      30.214   9.326  47.890  1.00  0.00     0.028 A 
ENDBRANCH   9  18
BRANCH   1  25
HETATM   25  C2  UNL     1      35.572   5.503  49.337  1.00  0.00     0.028 C 
HETATM   26  C1  UNL     1      36.591   6.298  49.464  1.00  0.00     0.081 C 
BRANCH  26  27
HETATM   27  N1  UNL     1      37.723   6.104  50.339  1.00  0.00    -0.408 N 
HETATM   28  H1  UNL     1      38.548   6.768  50.377  1.00  0.00     0.155 HD
HETATM   29  H2  UNL     1      37.725   5.250  50.976  1.00  0.00     0.155 HD
ENDBRANCH  26  27
ENDBRANCH   1  25
TORSDOF 3
ENDMDL
MODEL 9
REMARK VINA RESULT:      -7.6      5.467      9.328
REMARK  3 active torsions:
REMARK  status: ('A' for Active; 'I' for Inactive)
REMARK    1  A    between atoms: N1_1  and  C1_2 
REMARK    2  A    between atoms: C2_3  and  C3_4 
REMARK    3  A    between atoms: C11_12  and  C12_13 
ROOT
HETATM    1  C3  UNL     1      31.728   6.543  47.751  1.00  0.00    -0.033 C 
HETATM    2  C4  UNL     1      32.020   7.776  47.287  1.00  0.00     0.040 C 
HETATM    3  C5  UNL     1      31.270   8.885  46.642  1.00  0.00     0.028 C 
HETATM    4  C6  UNL     1      30.262   8.670  45.743  1.00  0.00     0.030 C 
HETATM    5  C7  UNL     1      29.050   7.785  45.707  1.00  0.00     0.012 C 
HETATM    6  C8  UNL     1      28.625   7.345  46.913  1.00  0.00    -0.029 C 
HETATM    7  C9  UNL     1      29.165   6.319  47.833  1.00  0.00     0.010 C 
HETATM    8  C10 UNL     1      30.426   5.866  48.003  1.00  0.00     0.012 C 
HETATM    9  C11 UNL     1      27.441   7.951  47.634  1.00  0.00     0.175 C 
HETATM   10  N2  UNL     1      27.959   8.868  48.583  1.00  0.00    -0.268 NA
HETATM   11  C18 UNL     1      27.399   9.801  49.173  1.00  0.00     0.227 C 
HETATM   12  N3  UNL     1      28.757   9.860  49.681  1.00  0.00    -0.259 NA
HETATM   13  C19 UNL     1      29.549  10.754  49.130  1.00  0.00     0.092 C 
HETATM   14  C20 UNL     1      30.906  11.349  49.110  1.00  0.00     0.066 C 
HETATM   15  C21 UNL     1      31.538  11.376  47.748  1.00  0.00     0.125 C 
HETATM   16  N4  UNL     1      31.806  10.082  47.173  1.00  0.00    -0.390 N 
HETATM   17  H21 UNL     1      32.828   9.853  47.055  1.00  0.00     0.159 HD
ENDROOT
BRANCH   9  18
HETATM   18  C12 UNL     1      26.466   7.005  48.109  1.00  0.00    -0.028 A 
HETATM   19  C13 UNL     1      25.115   7.187  47.916  1.00  0.00     0.010 A 
HETATM   20  C14 UNL     1      24.134   6.307  48.319  1.00  0.00     0.002 A 
HETATM   21  C15 UNL     1      24.480   5.146  48.969  1.00  0.00     0.019 A 
HETATM   22  C16 UNL     1      25.811   4.876  49.208  1.00  0.00     0.011 A 
HETATM   23 BR1  UNL     1      26.334   3.292  50.099  1.00  0.00    -0.051 Br
HETATM   24  C17 UNL     1      26.723   5.808  48.771  1.00  0.00     0.028 A 
ENDBRANCH   9  18
BRANCH   1  25
HETATM   25  C2  UNL     1      32.882   5.726  48.070  1.00  0.00     0.028 C 
HETATM   26  C1  UNL     1      33.934   5.938  48.801  1.00  0.00     0.081 C 
BRANCH  26  27
HETATM   27  N1  UNL     1      35.018   5.012  49.027  1.00  0.00    -0.408 N 
HETATM   28  H1  UNL     1      35.906   5.006  48.448  1.00  0.00     0.155 HD
HETATM   29  H2  UNL     1      34.916   4.302  49.814  1.00  0.00     0.155 HD
ENDBRANCH  26  27
ENDBRANCH   1  25
TORSDOF 3
ENDMDL
