MODEL 1
REMARK VINA RESULT:      -9.0      0.000      0.000
REMARK  0 active torsions:
REMARK  status: ('A' for Active; 'I' for Inactive)
ROOT
HETATM    1  O1  UNL     1      26.792   2.906  50.812  1.00  0.00    -0.271 OA
HETATM    2  C1  UNL     1      26.478   2.026  51.638  1.00  0.00     0.242 C 
HETATM    3  C2  UNL     1      25.178   1.434  51.580  1.00  0.00     0.163 C 
HETATM    4  C3  UNL     1      25.212   0.626  52.900  1.00  0.00     0.050 C 
HETATM    5  C4  UNL     1      26.359   0.518  53.535  1.00  0.00     0.065 A 
HETATM    6  C5  UNL     1      27.002  -0.059  54.702  1.00  0.00     0.032 A 
HETATM    7  C6  UNL     1      28.254   0.233  54.968  1.00  0.00     0.004 A 
HETATM    8  C7  UNL     1      29.119   1.110  54.195  1.00  0.00     0.018 A 
HETATM    9  C8  UNL     1      28.541   1.643  53.131  1.00  0.00     0.100 A 
HETATM   10  N1  UNL     1      27.178   1.399  52.742  1.00  0.00    -0.290 N 
HETATM   11  N2  UNL     1      23.951   0.100  53.356  1.00  0.00    -0.387 N 
HETATM   12  C9  UNL     1      22.871  -0.690  53.794  1.00  0.00     0.146 C 
HETATM   13  C10 UNL     1      21.493  -0.085  53.725  1.00  0.00    -0.010 C 
HETATM   14  C11 UNL     1      20.752   0.982  53.340  1.00  0.00    -0.009 C 
HETATM   15  C12 UNL     1      20.647   2.360  52.708  1.00  0.00     0.113 C 
HETATM   16 BR1  UNL     1      19.241   2.431  51.408  1.00  0.00    -0.082 Br
HETATM   17  C13 UNL     1      21.986   2.551  51.985  1.00  0.00    -0.040 A 
HETATM   18  C14 UNL     1      22.760   3.470  52.610  1.00  0.00     0.009 A 
HETATM   19  C15 UNL     1      24.141   3.303  52.389  1.00  0.00     0.009 A 
HETATM   20  C16 UNL     1      23.947   2.211  51.601  1.00  0.00    -0.039 A 
HETATM   21  C17 UNL     1      23.064   1.357  51.025  1.00  0.00     0.009 A 
HETATM   22  C18 UNL     1      21.727   1.461  51.187  1.00  0.00     0.009 A 
HETATM   23  H6  UNL     1      23.437   0.968  53.554  1.00  0.00     0.159 HD
ENDROOT
TORSDOF 0
ENDMDL
MODEL 2
REMARK VINA RESULT:      -8.7      3.069      6.274
REMARK  0 active torsions:
REMARK  status: ('A' for Active; 'I' for Inactive)
ROOT
HETATM    1  O1  UNL     1      22.258  -1.450  53.321  1.00  0.00    -0.271 OA
HETATM    2  C1  UNL     1      22.644  -0.352  52.875  1.00  0.00     0.242 C 
HETATM    3  C2  UNL     1      24.004  -0.196  52.460  1.00  0.00     0.163 C 
HETATM    4  C3  UNL     1      24.022   1.334  52.232  1.00  0.00     0.050 C 
HETATM    5  C4  UNL     1      22.876   1.982  52.251  1.00  0.00     0.065 A 
HETATM    6  C5  UNL     1      22.267   3.291  52.106  1.00  0.00     0.032 A 
HETATM    7  C6  UNL     1      20.984   3.444  52.333  1.00  0.00     0.004 A 
HETATM    8  C7  UNL     1      20.049   2.405  52.736  1.00  0.00     0.018 A 
HETATM    9  C8  UNL     1      20.594   1.206  52.874  1.00  0.00     0.100 A 
HETATM   10  N1  UNL     1      21.988   0.921  52.654  1.00  0.00    -0.290 N 
HETATM   11  N2  UNL     1      25.320   1.938  52.073  1.00  0.00    -0.387 N 
HETATM   12  C9  UNL     1      26.468   2.632  51.644  1.00  0.00     0.146 C 
HETATM   13  C10 UNL     1      27.771   2.309  52.327  1.00  0.00    -0.010 C 
HETATM   14  C11 UNL     1      28.399   1.524  53.236  1.00  0.00    -0.009 C 
HETATM   15  C12 UNL     1      28.369   0.403  54.260  1.00  0.00     0.113 C 
HETATM   16 BR1  UNL     1      29.795  -0.845  53.978  1.00  0.00    -0.082 Br
HETATM   17  C13 UNL     1      27.039  -0.314  54.001  1.00  0.00    -0.040 A 
HETATM   18  C14 UNL     1      26.150  -0.085  54.996  1.00  0.00     0.009 A 
HETATM   19  C15 UNL     1      24.802  -0.199  54.601  1.00  0.00     0.009 A 
HETATM   20  C16 UNL     1      25.139  -0.501  53.318  1.00  0.00    -0.039 A 
HETATM   21  C17 UNL     1      26.128  -0.713  52.413  1.00  0.00     0.009 A 
HETATM   22  C18 UNL     1      27.440  -0.628  52.723  1.00  0.00     0.009 A 
HETATM   23  H6  UNL     1      25.728   1.773  53.002  1.00  0.00     0.159 HD
ENDROOT
TORSDOF 0
ENDMDL
MODEL 3
REMARK VINA RESULT:      -8.6      2.867      5.391
REMARK  0 active torsions:
REMARK  status: ('A' for Active; 'I' for Inactive)
ROOT
HETATM    1  O1  UNL     1      19.935   2.640  52.058  1.00  0.00    -0.271 OA
HETATM    2  C1  UNL     1      20.929   2.047  52.520  1.00  0.00     0.242 C 
HETATM    3  C2  UNL     1      22.214   2.673  52.464  1.00  0.00     0.163 C 
HETATM    4  C3  UNL     1      23.092   1.483  52.920  1.00  0.00     0.050 C 
HETATM    5  C4  UNL     1      22.493   0.415  53.403  1.00  0.00     0.065 A 
HETATM    6  C5  UNL     1      22.722  -0.905  53.961  1.00  0.00     0.032 A 
HETATM    7  C6  UNL     1      21.703  -1.692  54.215  1.00  0.00     0.004 A 
HETATM    8  C7  UNL     1      20.299  -1.386  53.992  1.00  0.00     0.018 A 
HETATM    9  C8  UNL     1      20.079  -0.186  53.480  1.00  0.00     0.100 A 
HETATM   10  N1  UNL     1      21.115   0.760  53.159  1.00  0.00    -0.290 N 
HETATM   11  N2  UNL     1      24.512   1.628  52.723  1.00  0.00    -0.387 N 
HETATM   12  C9  UNL     1      25.912   1.714  52.841  1.00  0.00     0.146 C 
HETATM   13  C10 UNL     1      26.666   2.364  51.709  1.00  0.00    -0.010 C 
HETATM   14  C11 UNL     1      26.573   3.014  50.524  1.00  0.00    -0.009 C 
HETATM   15  C12 UNL     1      25.738   3.606  49.402  1.00  0.00     0.113 C 
HETATM   16 BR1  UNL     1      26.301   5.385  48.969  1.00  0.00    -0.082 Br
HETATM   17  C13 UNL     1      24.318   3.673  49.979  1.00  0.00    -0.040 A 
HETATM   18  C14 UNL     1      23.504   2.759  49.401  1.00  0.00     0.009 A 
HETATM   19  C15 UNL     1      22.420   2.361  50.210  1.00  0.00     0.009 A 
HETATM   20  C16 UNL     1      22.803   3.174  51.231  1.00  0.00    -0.039 A 
HETATM   21  C17 UNL     1      23.691   4.091  51.694  1.00  0.00     0.009 A 
HETATM   22  C18 UNL     1      24.747   4.523  50.972  1.00  0.00     0.009 A 
HETATM   23  H6  UNL     1      24.564   1.657  51.697  1.00  0.00     0.159 HD
ENDROOT
TORSDOF 0
ENDMDL
MODEL 4
REMARK VINA RESULT:      -8.4      2.864      5.818
REMARK  0 active torsions:
REMARK  status: ('A' for Active; 'I' for Inactive)
ROOT
HETATM    1  O1  UNL     1      23.039   4.899  51.114  1.00  0.00    -0.271 OA
HETATM    2  C1  UNL     1      22.705   3.736  51.415  1.00  0.00     0.242 C 
HETATM    3  C2  UNL     1      23.482   3.001  52.363  1.00  0.00     0.163 C 
HETATM    4  C3  UNL     1      22.820   1.611  52.206  1.00  0.00     0.050 C 
HETATM    5  C4  UNL     1      21.708   1.526  51.506  1.00  0.00     0.065 A 
HETATM    6  C5  UNL     1      20.685   0.608  51.040  1.00  0.00     0.032 A 
HETATM    7  C6  UNL     1      19.756   1.031  50.215  1.00  0.00     0.004 A 
HETATM    8  C7  UNL     1      19.622   2.377  49.682  1.00  0.00     0.018 A 
HETATM    9  C8  UNL     1      20.552   3.222  50.100  1.00  0.00     0.100 A 
HETATM   10  N1  UNL     1      21.618   2.872  51.000  1.00  0.00    -0.290 N 
HETATM   11  N2  UNL     1      23.520   0.502  52.802  1.00  0.00    -0.387 N 
HETATM   12  C9  UNL     1      23.931  -0.627  53.537  1.00  0.00     0.146 C 
HETATM   13  C10 UNL     1      25.411  -0.892  53.633  1.00  0.00    -0.010 C 
HETATM   14  C11 UNL     1      26.654  -0.447  53.333  1.00  0.00    -0.009 C 
HETATM   15  C12 UNL     1      27.572   0.590  52.708  1.00  0.00     0.113 C 
HETATM   16 BR1  UNL     1      28.983   1.092  53.904  1.00  0.00    -0.082 Br
HETATM   17  C13 UNL     1      26.671   1.810  52.481  1.00  0.00    -0.040 A 
HETATM   18  C14 UNL     1      26.418   2.002  51.165  1.00  0.00     0.009 A 
HETATM   19  C15 UNL     1      25.213   2.684  50.905  1.00  0.00     0.009 A 
HETATM   20  C16 UNL     1      24.917   2.794  52.228  1.00  0.00    -0.039 A 
HETATM   21  C17 UNL     1      25.288   2.544  53.509  1.00  0.00     0.009 A 
HETATM   22  C18 UNL     1      26.432   1.901  53.833  1.00  0.00     0.009 A 
HETATM   23  H6  UNL     1      24.378   0.486  52.236  1.00  0.00     0.159 HD
ENDROOT
TORSDOF 0
ENDMDL
MODEL 5
REMARK VINA RESULT:      -8.0      2.699      4.302
REMARK  0 active torsions:
REMARK  status: ('A' for Active; 'I' for Inactive)
ROOT
HETATM    1  O1  UNL     1      25.990   1.095  54.007  1.00  0.00    -0.271 OA
HETATM    2  C1  UNL     1      24.940   0.746  53.433  1.00  0.00     0.242 C 
HETATM    3  C2  UNL     1      24.646   1.251  52.128  1.00  0.00     0.163 C 
HETATM    4  C3  UNL     1      23.195   0.733  51.981  1.00  0.00     0.050 C 
HETATM    5  C4  UNL     1      22.744  -0.123  52.874  1.00  0.00     0.065 A 
HETATM    6  C5  UNL     1      21.593  -0.919  53.256  1.00  0.00     0.032 A 
HETATM    7  C6  UNL     1      21.608  -1.589  54.385  1.00  0.00     0.004 A 
HETATM    8  C7  UNL     1      22.695  -1.629  55.350  1.00  0.00     0.018 A 
HETATM    9  C8  UNL     1      23.749  -0.904  55.012  1.00  0.00     0.100 A 
HETATM   10  N1  UNL     1      23.845  -0.128  53.803  1.00  0.00    -0.290 N 
HETATM   11  N2  UNL     1      22.430   1.284  50.891  1.00  0.00    -0.387 N 
HETATM   12  C9  UNL     1      21.649   1.520  49.744  1.00  0.00     0.146 C 
HETATM   13  C10 UNL     1      21.638   2.920  49.186  1.00  0.00    -0.010 C 
HETATM   14  C11 UNL     1      22.143   4.173  49.286  1.00  0.00    -0.009 C 
HETATM   15  C12 UNL     1      23.059   5.180  49.960  1.00  0.00     0.113 C 
HETATM   16 BR1  UNL     1      24.096   6.156  48.677  1.00  0.00    -0.082 Br
HETATM   17  C13 UNL     1      24.011   4.324  50.803  1.00  0.00    -0.040 A 
HETATM   18  C14 UNL     1      23.755   4.454  52.126  1.00  0.00     0.009 A 
HETATM   19  C15 UNL     1      24.148   3.344  52.899  1.00  0.00     0.009 A 
HETATM   20  C16 UNL     1      24.613   2.672  51.812  1.00  0.00    -0.039 A 
HETATM   21  C17 UNL     1      24.820   2.667  50.471  1.00  0.00     0.009 A 
HETATM   22  C18 UNL     1      24.475   3.698  49.669  1.00  0.00     0.009 A 
HETATM   23  H6  UNL     1      22.365   2.269  51.178  1.00  0.00     0.159 HD
ENDROOT
TORSDOF 0
ENDMDL
MODEL 6
REMARK VINA RESULT:      -7.6      3.933      5.576
REMARK  0 active torsions:
REMARK  status: ('A' for Active; 'I' for Inactive)
ROOT
HETATM    1  O1  UNL     1      22.222   5.816  48.349  1.00  0.00    -0.271 OA
HETATM    2  C1  UNL     1      23.400   5.463  48.554  1.00  0.00     0.242 C 
HETATM    3  C2  UNL     1      23.666   4.160  49.079  1.00  0.00     0.163 C 
HETATM    4  C3  UNL     1      25.181   4.308  49.359  1.00  0.00     0.050 C 
HETATM    5  C4  UNL     1      25.801   5.370  48.890  1.00  0.00     0.065 A 
HETATM    6  C5  UNL     1      27.091   6.031  48.802  1.00  0.00     0.032 A 
HETATM    7  C6  UNL     1      27.177   7.226  48.268  1.00  0.00     0.004 A 
HETATM    8  C7  UNL     1      26.079   8.011  47.727  1.00  0.00     0.018 A 
HETATM    9  C8  UNL     1      24.898   7.419  47.804  1.00  0.00     0.100 A 
HETATM   10  N1  UNL     1      24.682   6.113  48.370  1.00  0.00    -0.290 N 
HETATM   11  N2  UNL     1      25.781   3.281  50.171  1.00  0.00    -0.387 N 
HETATM   12  C9  UNL     1      26.561   2.244  50.718  1.00  0.00     0.146 C 
HETATM   13  C10 UNL     1      26.000   1.504  51.904  1.00  0.00    -0.010 C 
HETATM   14  C11 UNL     1      24.940   1.349  52.734  1.00  0.00    -0.009 C 
HETATM   15  C12 UNL     1      23.535   1.729  53.169  1.00  0.00     0.113 C 
HETATM   16 BR1  UNL     1      22.436   0.181  53.429  1.00  0.00    -0.082 Br
HETATM   17  C13 UNL     1      22.974   2.530  51.988  1.00  0.00    -0.040 A 
HETATM   18  C14 UNL     1      22.861   3.845  52.289  1.00  0.00     0.009 A 
HETATM   19  C15 UNL     1      22.913   4.697  51.168  1.00  0.00     0.009 A 
HETATM   20  C16 UNL     1      23.065   3.657  50.305  1.00  0.00    -0.039 A 
HETATM   21  C17 UNL     1      23.162   2.314  50.137  1.00  0.00     0.009 A 
HETATM   22  C18 UNL     1      23.113   1.437  51.164  1.00  0.00     0.009 A 
HETATM   23  H6  UNL     1      25.299   3.434  51.066  1.00  0.00     0.159 HD
ENDROOT
TORSDOF 0
ENDMDL
MODEL 7
REMARK VINA RESULT:      -7.6      7.081      8.494
REMARK  0 active torsions:
REMARK  status: ('A' for Active; 'I' for Inactive)
ROOT
HETATM    1  O1  UNL     1      30.330  10.084  47.405  1.00  0.00    -0.271 OA
HETATM    2  C1  UNL     1      30.314   8.864  47.660  1.00  0.00     0.242 C 
HETATM    3  C2  UNL     1      29.079   8.146  47.605  1.00  0.00     0.163 C 
HETATM    4  C3  UNL     1      29.545   6.800  48.209  1.00  0.00     0.050 C 
HETATM    5  C4  UNL     1      30.835   6.606  48.380  1.00  0.00     0.065 A 
HETATM    6  C5  UNL     1      31.825   5.650  48.841  1.00  0.00     0.032 A 
HETATM    7  C6  UNL     1      33.088   6.001  48.910  1.00  0.00     0.004 A 
HETATM    8  C7  UNL     1      33.644   7.299  48.563  1.00  0.00     0.018 A 
HETATM    9  C8  UNL     1      32.749   8.179  48.144  1.00  0.00     0.100 A 
HETATM   10  N1  UNL     1      31.340   7.909  48.030  1.00  0.00    -0.290 N 
HETATM   11  N2  UNL     1      28.504   5.881  48.592  1.00  0.00    -0.387 N 
HETATM   12  C9  UNL     1      27.638   4.785  48.771  1.00  0.00     0.146 C 
HETATM   13  C10 UNL     1      26.288   5.059  49.383  1.00  0.00    -0.010 C 
HETATM   14  C11 UNL     1      25.432   6.004  49.839  1.00  0.00    -0.009 C 
HETATM   15  C12 UNL     1      25.093   7.459  50.114  1.00  0.00     0.113 C 
HETATM   16 BR1  UNL     1      23.352   7.913  49.454  1.00  0.00    -0.082 Br
HETATM   17  C13 UNL     1      26.136   8.250  49.316  1.00  0.00    -0.040 A 
HETATM   18  C14 UNL     1      27.036   8.848  50.132  1.00  0.00     0.009 A 
HETATM   19  C15 UNL     1      28.286   9.090  49.529  1.00  0.00     0.009 A 
HETATM   20  C16 UNL     1      27.892   8.545  48.347  1.00  0.00    -0.039 A 
HETATM   21  C17 UNL     1      26.900   7.956  47.632  1.00  0.00     0.009 A 
HETATM   22  C18 UNL     1      25.676   7.700  48.143  1.00  0.00     0.009 A 
HETATM   23  H6  UNL     1      28.050   6.405  49.351  1.00  0.00     0.159 HD
ENDROOT
TORSDOF 0
ENDMDL
MODEL 8
REMARK VINA RESULT:      -7.5      7.703      9.315
REMARK  0 active torsions:
REMARK  status: ('A' for Active; 'I' for Inactive)
ROOT
HETATM    1  O1  UNL     1      25.799  11.532  48.585  1.00  0.00    -0.271 OA
HETATM    2  C1  UNL     1      26.822  10.836  48.434  1.00  0.00     0.242 C 
HETATM    3  C2  UNL     1      26.694   9.465  48.049  1.00  0.00     0.163 C 
HETATM    4  C3  UNL     1      28.164   9.016  48.229  1.00  0.00     0.050 C 
HETATM    5  C4  UNL     1      29.078   9.940  48.438  1.00  0.00     0.065 A 
HETATM    6  C5  UNL     1      30.497  10.157  48.652  1.00  0.00     0.032 A 
HETATM    7  C6  UNL     1      30.937  11.360  48.935  1.00  0.00     0.004 A 
HETATM    8  C7  UNL     1      30.133  12.564  49.070  1.00  0.00     0.018 A 
HETATM    9  C8  UNL     1      28.837  12.377  48.879  1.00  0.00     0.100 A 
HETATM   10  N1  UNL     1      28.240  11.105  48.566  1.00  0.00    -0.290 N 
HETATM   11  N2  UNL     1      28.401   7.595  48.208  1.00  0.00    -0.387 N 
HETATM   12  C9  UNL     1      28.833   6.279  47.954  1.00  0.00     0.146 C 
HETATM   13  C10 UNL     1      27.995   5.154  48.504  1.00  0.00    -0.010 C 
HETATM   14  C11 UNL     1      26.861   4.816  49.164  1.00  0.00    -0.009 C 
HETATM   15  C12 UNL     1      25.570   5.208  49.859  1.00  0.00     0.113 C 
HETATM   16 BR1  UNL     1      24.089   4.166  49.233  1.00  0.00    -0.082 Br
HETATM   17  C13 UNL     1      25.343   6.668  49.447  1.00  0.00    -0.040 A 
HETATM   18  C14 UNL     1      25.548   7.514  50.485  1.00  0.00     0.009 A 
HETATM   19  C15 UNL     1      25.920   8.817  50.099  1.00  0.00     0.009 A 
HETATM   20  C16 UNL     1      25.875   8.506  48.775  1.00  0.00    -0.039 A 
HETATM   21  C17 UNL     1      25.635   7.564  47.828  1.00  0.00     0.009 A 
HETATM   22  C18 UNL     1      25.269   6.298  48.125  1.00  0.00     0.009 A 
HETATM   23  H6  UNL     1      27.897   7.300  49.053  1.00  0.00     0.159 HD
ENDROOT
TORSDOF 0
ENDMDL
MODEL 9
REMARK VINA RESULT:      -7.4      4.103      5.199
REMARK  0 active torsions:
REMARK  status: ('A' for Active; 'I' for Inactive)
ROOT
HETATM    1  O1  UNL     1      27.218   3.761  49.070  1.00  0.00    -0.271 OA
HETATM    2  C1  UNL     1      26.238   3.679  49.836  1.00  0.00     0.242 C 
HETATM    3  C2  UNL     1      25.008   4.316  49.480  1.00  0.00     0.163 C 
HETATM    4  C3  UNL     1      24.235   4.127  50.807  1.00  0.00     0.050 C 
HETATM    5  C4  UNL     1      24.750   3.332  51.721  1.00  0.00     0.065 A 
HETATM    6  C5  UNL     1      24.535   2.774  53.044  1.00  0.00     0.032 A 
HETATM    7  C6  UNL     1      25.473   2.046  53.605  1.00  0.00     0.004 A 
HETATM    8  C7  UNL     1      26.768   1.716  53.032  1.00  0.00     0.018 A 
HETATM    9  C8  UNL     1      26.974   2.222  51.827  1.00  0.00     0.100 A 
HETATM   10  N1  UNL     1      26.023   3.034  51.116  1.00  0.00    -0.290 N 
HETATM   11  N2  UNL     1      23.025   4.895  50.953  1.00  0.00    -0.387 N 
HETATM   12  C9  UNL     1      21.711   5.363  51.144  1.00  0.00     0.146 C 
HETATM   13  C10 UNL     1      21.400   6.766  50.690  1.00  0.00    -0.010 C 
HETATM   14  C11 UNL     1      21.866   7.876  50.068  1.00  0.00    -0.009 C 
HETATM   15  C12 UNL     1      22.980   8.621  49.354  1.00  0.00     0.113 C 
HETATM   16 BR1  UNL     1      22.357   9.435  47.735  1.00  0.00    -0.082 Br
HETATM   17  C13 UNL     1      23.996   7.531  48.990  1.00  0.00    -0.040 A 
HETATM   18  C14 UNL     1      25.119   7.629  49.739  1.00  0.00     0.009 A 
HETATM   19  C15 UNL     1      25.816   6.414  49.890  1.00  0.00     0.009 A 
HETATM   20  C16 UNL     1      24.911   5.728  49.141  1.00  0.00    -0.039 A 
HETATM   21  C17 UNL     1      23.771   5.765  48.407  1.00  0.00     0.009 A 
HETATM   22  C18 UNL     1      23.055   6.895  48.214  1.00  0.00     0.009 A 
HETATM   23  H6  UNL     1      23.402   5.852  50.964  1.00  0.00     0.159 HD
ENDROOT
TORSDOF 0
ENDMDL
