MODEL 1
REMARK VINA RESULT:      -8.6      0.000      0.000
REMARK  6 active torsions:
REMARK  status: ('A' for Active; 'I' for Inactive)
REMARK    1  A    between atoms: C5_5  and  S1_6 
REMARK    2  A    between atoms: S1_6  and  C6_7 
REMARK    3  A    between atoms: C7_9  and  N2_10 
REMARK       I    between atoms: N3_11  and  C8_12 
REMARK    4  A    between atoms: C8_12  and  C9_14 
REMARK    5  A    between atoms: C15_23  and  S2_24 
REMARK    6  A    between atoms: S2_24  and  N5_25 
ROOT
HETATM    1  C6  UNL     1      22.890   0.536  53.027  1.00  0.00     0.231 A 
HETATM    2  N1  UNL     1      23.189  -0.220  54.112  1.00  0.00    -0.035 NA
HETATM    3  C7  UNL     1      24.527  -0.486  54.059  1.00  0.00     0.726 A 
HETATM    4  N3  UNL     1      25.029   0.098  52.966  1.00  0.00    -0.020 N 
HETATM    5  C8  UNL     1      26.353   0.099  52.567  1.00  0.00     0.301 C 
HETATM    6  O1  UNL     1      26.527   0.627  51.411  1.00  0.00    -0.264 OA
HETATM    7  N4  UNL     1      24.031   0.708  52.355  1.00  0.00    -0.121 NA
ENDROOT
BRANCH   1   8
HETATM    8  S1  UNL     1      21.367   1.250  52.436  1.00  0.00    -0.047 SA
BRANCH   8   9
HETATM    9  C5  UNL     1      21.611   1.748  50.722  1.00  0.00     0.032 A 
HETATM   10  C4  UNL     1      21.239   0.967  49.540  1.00  0.00     0.021 A 
HETATM   11  C3  UNL     1      21.552   1.608  48.422  1.00  0.00     0.013 A 
HETATM   12  C2  UNL     1      22.156   2.866  48.849  1.00  0.00    -0.021 A 
HETATM   13  C1  UNL     1      22.637   3.856  48.084  1.00  0.00     0.025 C 
HETATM   14  C15 UNL     1      22.164   2.891  50.305  1.00  0.00     0.101 A 
BRANCH  14  15
HETATM   15  S2  UNL     1      22.782   4.180  51.311  1.00  0.00     0.241 S 
HETATM   16  O2  UNL     1      22.969   5.443  50.503  1.00  0.00    -0.206 OA
HETATM   17  O3  UNL     1      21.864   4.444  52.471  1.00  0.00    -0.206 OA
BRANCH  15  18
HETATM   18  N5  UNL     1      24.338   3.746  51.940  1.00  0.00    -0.225 NA
HETATM   19  H10 UNL     1      24.357   3.761  52.989  1.00  0.00     0.136 HD
HETATM   20  H11 UNL     1      24.508   2.736  51.671  1.00  0.00     0.136 HD
ENDBRANCH  15  18
ENDBRANCH  14  15
ENDBRANCH   8   9
ENDBRANCH   1   8
BRANCH   3  21
HETATM   21  N2  UNL     1      24.986  -1.298  55.111  1.00  0.00    -0.231 N 
HETATM   22  H5  UNL     1      24.734  -1.082  56.116  1.00  0.00     0.174 HD
HETATM   23  H6  UNL     1      25.566  -2.067  54.673  1.00  0.00     0.174 HD
ENDBRANCH   3  21
BRANCH   5  24
HETATM   24  C9  UNL     1      27.657  -0.298  53.001  1.00  0.00     0.111 A 
HETATM   25  C10 UNL     1      27.988  -1.656  52.927  1.00  0.00     0.135 A 
HETATM   26  F1  UNL     1      27.098  -2.607  52.486  1.00  0.00    -0.205 F 
HETATM   27  C11 UNL     1      29.242  -2.159  53.294  1.00  0.00     0.043 A 
HETATM   28  C12 UNL     1      30.153  -1.243  53.739  1.00  0.00     0.006 A 
HETATM   29  C13 UNL     1      29.927   0.112  53.847  1.00  0.00     0.043 A 
HETATM   30  C14 UNL     1      28.670   0.511  53.464  1.00  0.00     0.135 A 
HETATM   31  F2  UNL     1      28.515   1.850  53.533  1.00  0.00    -0.205 F 
ENDBRANCH   5  24
TORSDOF 6
ENDMDL
MODEL 2
REMARK VINA RESULT:      -8.5      0.149      1.596
REMARK  6 active torsions:
REMARK  status: ('A' for Active; 'I' for Inactive)
REMARK    1  A    between atoms: C5_5  and  S1_6 
REMARK    2  A    between atoms: S1_6  and  C6_7 
REMARK    3  A    between atoms: C7_9  and  N2_10 
REMARK       I    between atoms: N3_11  and  C8_12 
REMARK    4  A    between atoms: C8_12  and  C9_14 
REMARK    5  A    between atoms: C15_23  and  S2_24 
REMARK    6  A    between atoms: S2_24  and  N5_25 
ROOT
HETATM    1  C6  UNL     1      22.859   0.624  53.010  1.00  0.00     0.231 A 
HETATM    2  N1  UNL     1      23.148  -0.154  54.082  1.00  0.00    -0.035 NA
HETATM    3  C7  UNL     1      24.476  -0.459  54.009  1.00  0.00     0.726 A 
HETATM    4  N3  UNL     1      24.982   0.121  52.917  1.00  0.00    -0.020 N 
HETATM    5  C8  UNL     1      26.301   0.087  52.501  1.00  0.00     0.301 C 
HETATM    6  O1  UNL     1      26.478   0.624  51.350  1.00  0.00    -0.264 OA
HETATM    7  N4  UNL     1      23.997   0.768  52.326  1.00  0.00    -0.121 NA
ENDROOT
BRANCH   1   8
HETATM    8  S1  UNL     1      21.351   1.391  52.446  1.00  0.00    -0.047 SA
BRANCH   8   9
HETATM    9  C5  UNL     1      21.575   1.860  50.720  1.00  0.00     0.032 A 
HETATM   10  C4  UNL     1      21.157   1.074  49.556  1.00  0.00     0.021 A 
HETATM   11  C3  UNL     1      21.464   1.692  48.424  1.00  0.00     0.013 A 
HETATM   12  C2  UNL     1      22.112   2.938  48.822  1.00  0.00    -0.021 A 
HETATM   13  C1  UNL     1      22.603   3.904  48.034  1.00  0.00     0.025 C 
HETATM   14  C15 UNL     1      22.149   2.981  50.277  1.00  0.00     0.101 A 
BRANCH  14  15
HETATM   15  S2  UNL     1      22.823   4.266  51.253  1.00  0.00     0.241 S 
HETATM   16  O2  UNL     1      23.000   5.521  50.432  1.00  0.00    -0.206 OA
HETATM   17  O3  UNL     1      21.952   4.549  52.444  1.00  0.00    -0.206 OA
BRANCH  15  18
HETATM   18  N5  UNL     1      24.394   3.811  51.828  1.00  0.00    -0.225 NA
HETATM   19  H10 UNL     1      24.365   3.454  52.815  1.00  0.00     0.136 HD
HETATM   20  H11 UNL     1      24.709   2.988  51.241  1.00  0.00     0.136 HD
ENDBRANCH  15  18
ENDBRANCH  14  15
ENDBRANCH   8   9
ENDBRANCH   1   8
BRANCH   3  21
HETATM   21  N2  UNL     1      24.923  -1.297  55.047  1.00  0.00    -0.231 N 
HETATM   22  H5  UNL     1      25.423  -2.206  54.836  1.00  0.00     0.174 HD
HETATM   23  H6  UNL     1      24.656  -0.828  55.956  1.00  0.00     0.174 HD
ENDBRANCH   3  21
BRANCH   5  24
HETATM   24  C9  UNL     1      27.598  -0.354  52.915  1.00  0.00     0.111 A 
HETATM   25  C10 UNL     1      28.487   0.604  53.418  1.00  0.00     0.135 A 
HETATM   26  F1  UNL     1      28.164   1.939  53.494  1.00  0.00    -0.205 F 
HETATM   27  C11 UNL     1      29.770   0.289  53.881  1.00  0.00     0.043 A 
HETATM   28  C12 UNL     1      30.126  -1.028  53.820  1.00  0.00     0.006 A 
HETATM   29  C13 UNL     1      29.326  -2.046  53.346  1.00  0.00     0.043 A 
HETATM   30  C14 UNL     1      28.087  -1.640  52.915  1.00  0.00     0.135 A 
HETATM   31  F2  UNL     1      27.321  -2.676  52.514  1.00  0.00    -0.205 F 
ENDBRANCH   5  24
TORSDOF 6
ENDMDL
MODEL 3
REMARK VINA RESULT:      -7.9      3.535      7.033
REMARK  6 active torsions:
REMARK  status: ('A' for Active; 'I' for Inactive)
REMARK    1  A    between atoms: C5_5  and  S1_6 
REMARK    2  A    between atoms: S1_6  and  C6_7 
REMARK    3  A    between atoms: C7_9  and  N2_10 
REMARK       I    between atoms: N3_11  and  C8_12 
REMARK    4  A    between atoms: C8_12  and  C9_14 
REMARK    5  A    between atoms: C15_23  and  S2_24 
REMARK    6  A    between atoms: S2_24  and  N5_25 
ROOT
HETATM    1  C6  UNL     1      24.581   1.441  52.565  1.00  0.00     0.231 A 
HETATM    2  N1  UNL     1      24.050   2.611  52.997  1.00  0.00    -0.035 NA
HETATM    3  C7  UNL     1      24.391   3.567  52.084  1.00  0.00     0.726 A 
HETATM    4  N3  UNL     1      25.112   2.988  51.118  1.00  0.00    -0.020 N 
HETATM    5  C8  UNL     1      25.620   3.604  49.988  1.00  0.00     0.301 C 
HETATM    6  O1  UNL     1      26.382   2.835  49.299  1.00  0.00    -0.264 OA
HETATM    7  N4  UNL     1      25.219   1.710  51.422  1.00  0.00    -0.121 NA
ENDROOT
BRANCH   1   8
HETATM    8  S1  UNL     1      24.554  -0.215  53.228  1.00  0.00    -0.047 SA
BRANCH   8   9
HETATM    9  C5  UNL     1      26.210  -0.908  53.065  1.00  0.00     0.032 A 
HETATM   10  C4  UNL     1      26.565  -2.115  52.316  1.00  0.00     0.021 A 
HETATM   11  C3  UNL     1      27.866  -2.362  52.390  1.00  0.00     0.013 A 
HETATM   12  C2  UNL     1      28.420  -1.293  53.214  1.00  0.00    -0.021 A 
HETATM   13  C1  UNL     1      29.696  -1.105  53.579  1.00  0.00     0.025 C 
HETATM   14  C15 UNL     1      27.327  -0.414  53.606  1.00  0.00     0.101 A 
BRANCH  14  15
HETATM   15  S2  UNL     1      27.462   1.019  54.599  1.00  0.00     0.241 S 
HETATM   16  O2  UNL     1      26.289   1.121  55.547  1.00  0.00    -0.206 OA
HETATM   17  O3  UNL     1      28.750   1.018  55.373  1.00  0.00    -0.206 OA
BRANCH  15  18
HETATM   18  N5  UNL     1      27.431   2.436  53.602  1.00  0.00    -0.225 NA
HETATM   19  H10 UNL     1      27.078   2.230  52.635  1.00  0.00     0.136 HD
HETATM   20  H11 UNL     1      26.719   3.095  54.026  1.00  0.00     0.136 HD
ENDBRANCH  15  18
ENDBRANCH  14  15
ENDBRANCH   8   9
ENDBRANCH   1   8
BRANCH   3  21
HETATM   21  N2  UNL     1      23.935   4.856  52.415  1.00  0.00    -0.231 N 
HETATM   22  H5  UNL     1      22.929   5.137  52.249  1.00  0.00     0.174 HD
HETATM   23  H6  UNL     1      24.763   5.379  52.815  1.00  0.00     0.174 HD
ENDBRANCH   3  21
BRANCH   5  24
HETATM   24  C9  UNL     1      25.599   4.847  49.281  1.00  0.00     0.111 A 
HETATM   25  C10 UNL     1      26.823   5.389  48.871  1.00  0.00     0.135 A 
HETATM   26  F1  UNL     1      28.026   4.784  49.152  1.00  0.00    -0.205 F 
HETATM   27  C11 UNL     1      26.928   6.583  48.147  1.00  0.00     0.043 A 
HETATM   28  C12 UNL     1      25.753   7.212  47.850  1.00  0.00     0.006 A 
HETATM   29  C13 UNL     1      24.499   6.763  48.206  1.00  0.00     0.043 A 
HETATM   30  C14 UNL     1      24.498   5.585  48.912  1.00  0.00     0.135 A 
HETATM   31  F2  UNL     1      23.249   5.156  49.187  1.00  0.00    -0.205 F 
ENDBRANCH   5  24
TORSDOF 6
ENDMDL
MODEL 4
REMARK VINA RESULT:      -7.9      4.601      6.744
REMARK  6 active torsions:
REMARK  status: ('A' for Active; 'I' for Inactive)
REMARK    1  A    between atoms: C5_5  and  S1_6 
REMARK    2  A    between atoms: S1_6  and  C6_7 
REMARK    3  A    between atoms: C7_9  and  N2_10 
REMARK       I    between atoms: N3_11  and  C8_12 
REMARK    4  A    between atoms: C8_12  and  C9_14 
REMARK    5  A    between atoms: C15_23  and  S2_24 
REMARK    6  A    between atoms: S2_24  and  N5_25 
ROOT
HETATM    1  C6  UNL     1      24.300   5.255  49.987  1.00  0.00     0.231 A 
HETATM    2  N1  UNL     1      23.639   4.371  49.201  1.00  0.00    -0.035 NA
HETATM    3  C7  UNL     1      23.328   3.295  49.982  1.00  0.00     0.726 A 
HETATM    4  N3  UNL     1      23.791   3.522  51.215  1.00  0.00    -0.020 N 
HETATM    5  C8  UNL     1      23.651   2.693  52.314  1.00  0.00     0.301 C 
HETATM    6  O1  UNL     1      24.305   3.104  53.338  1.00  0.00    -0.264 OA
HETATM    7  N4  UNL     1      24.373   4.705  51.202  1.00  0.00    -0.121 NA
ENDROOT
BRANCH   1   8
HETATM    8  S1  UNL     1      25.006   6.861  49.668  1.00  0.00    -0.047 SA
BRANCH   8   9
HETATM    9  C5  UNL     1      26.682   6.623  49.052  1.00  0.00     0.032 A 
HETATM   10  C4  UNL     1      27.259   5.353  48.605  1.00  0.00     0.021 A 
HETATM   11  C3  UNL     1      28.516   5.508  48.210  1.00  0.00     0.013 A 
HETATM   12  C2  UNL     1      28.810   6.926  48.391  1.00  0.00    -0.021 A 
HETATM   13  C1  UNL     1      29.953   7.574  48.133  1.00  0.00     0.025 C 
HETATM   14  C15 UNL     1      27.616   7.569  48.923  1.00  0.00     0.101 A 
BRANCH  14  15
HETATM   15  S2  UNL     1      27.447   9.264  49.317  1.00  0.00     0.241 S 
HETATM   16  O2  UNL     1      28.573  10.067  48.708  1.00  0.00    -0.206 OA
HETATM   17  O3  UNL     1      26.123   9.795  48.845  1.00  0.00    -0.206 OA
BRANCH  15  18
HETATM   18  N5  UNL     1      27.537   9.486  51.034  1.00  0.00    -0.225 NA
HETATM   19  H10 UNL     1      27.908   8.633  51.522  1.00  0.00     0.136 HD
HETATM   20  H11 UNL     1      28.255  10.244  51.208  1.00  0.00     0.136 HD
ENDBRANCH  15  18
ENDBRANCH  14  15
ENDBRANCH   8   9
ENDBRANCH   1   8
BRANCH   3  21
HETATM   21  N2  UNL     1      22.662   2.266  49.292  1.00  0.00    -0.231 N 
HETATM   22  H5  UNL     1      22.119   1.523  49.813  1.00  0.00     0.174 HD
HETATM   23  H6  UNL     1      22.836   2.427  48.261  1.00  0.00     0.174 HD
ENDBRANCH   3  21
BRANCH   5  24
HETATM   24  C9  UNL     1      23.010   1.486  52.735  1.00  0.00     0.111 A 
HETATM   25  C10 UNL     1      21.617   1.498  52.878  1.00  0.00     0.135 A 
HETATM   26  F1  UNL     1      20.865   2.629  52.659  1.00  0.00    -0.205 F 
HETATM   27  C11 UNL     1      20.876   0.371  53.254  1.00  0.00     0.043 A 
HETATM   28  C12 UNL     1      21.590  -0.771  53.481  1.00  0.00     0.006 A 
HETATM   29  C13 UNL     1      22.958  -0.888  53.367  1.00  0.00     0.043 A 
HETATM   30  C14 UNL     1      23.598   0.269  52.992  1.00  0.00     0.135 A 
HETATM   31  F2  UNL     1      24.926   0.091  52.838  1.00  0.00    -0.205 F 
ENDBRANCH   5  24
TORSDOF 6
ENDMDL
MODEL 5
REMARK VINA RESULT:      -7.9      2.816      4.328
REMARK  6 active torsions:
REMARK  status: ('A' for Active; 'I' for Inactive)
REMARK    1  A    between atoms: C5_5  and  S1_6 
REMARK    2  A    between atoms: S1_6  and  C6_7 
REMARK    3  A    between atoms: C7_9  and  N2_10 
REMARK       I    between atoms: N3_11  and  C8_12 
REMARK    4  A    between atoms: C8_12  and  C9_14 
REMARK    5  A    between atoms: C15_23  and  S2_24 
REMARK    6  A    between atoms: S2_24  and  N5_25 
ROOT
HETATM    1  C6  UNL     1      23.214   1.864  51.931  1.00  0.00     0.231 A 
HETATM    2  N1  UNL     1      24.238   2.385  51.211  1.00  0.00    -0.035 NA
HETATM    3  C7  UNL     1      25.383   1.789  51.653  1.00  0.00     0.726 A 
HETATM    4  N3  UNL     1      25.062   0.924  52.620  1.00  0.00    -0.020 N 
HETATM    5  C8  UNL     1      25.930   0.092  53.305  1.00  0.00     0.301 C 
HETATM    6  O1  UNL     1      25.364  -0.538  54.268  1.00  0.00    -0.264 OA
HETATM    7  N4  UNL     1      23.753   0.981  52.776  1.00  0.00    -0.121 NA
ENDROOT
BRANCH   1   8
HETATM    8  S1  UNL     1      21.455   2.155  51.914  1.00  0.00    -0.047 SA
BRANCH   8   9
HETATM    9  C5  UNL     1      20.648   0.740  52.684  1.00  0.00     0.032 A 
HETATM   10  C4  UNL     1      21.210  -0.094  53.749  1.00  0.00     0.021 A 
HETATM   11  C3  UNL     1      20.369  -1.057  54.101  1.00  0.00     0.013 A 
HETATM   12  C2  UNL     1      19.194  -0.878  53.253  1.00  0.00    -0.021 A 
HETATM   13  C1  UNL     1      18.070  -1.607  53.231  1.00  0.00     0.025 C 
HETATM   14  C15 UNL     1      19.434   0.267  52.387  1.00  0.00     0.101 A 
BRANCH  14  15
HETATM   15  S2  UNL     1      18.334   0.899  51.183  1.00  0.00     0.241 S 
HETATM   16  O2  UNL     1      17.168  -0.041  50.983  1.00  0.00    -0.206 OA
HETATM   17  O3  UNL     1      17.834   2.261  51.575  1.00  0.00    -0.206 OA
BRANCH  15  18
HETATM   18  N5  UNL     1      19.142   1.037  49.656  1.00  0.00    -0.225 NA
HETATM   19  H10 UNL     1      19.145   2.024  49.300  1.00  0.00     0.136 HD
HETATM   20  H11 UNL     1      20.159   0.796  49.824  1.00  0.00     0.136 HD
ENDBRANCH  15  18
ENDBRANCH  14  15
ENDBRANCH   8   9
ENDBRANCH   1   8
BRANCH   3  21
HETATM   21  N2  UNL     1      26.548   2.256  51.018  1.00  0.00    -0.231 N 
HETATM   22  H5  UNL     1      27.468   1.743  51.122  1.00  0.00     0.174 HD
HETATM   23  H6  UNL     1      26.278   3.131  50.488  1.00  0.00     0.174 HD
ENDBRANCH   3  21
BRANCH   5  24
HETATM   24  C9  UNL     1      27.295  -0.335  53.324  1.00  0.00     0.111 A 
HETATM   25  C10 UNL     1      28.265   0.588  53.733  1.00  0.00     0.135 A 
HETATM   26  F1  UNL     1      27.950   1.881  54.080  1.00  0.00    -0.205 F 
HETATM   27  C11 UNL     1      29.627   0.278  53.821  1.00  0.00     0.043 A 
HETATM   28  C12 UNL     1      29.978  -0.999  53.482  1.00  0.00     0.006 A 
HETATM   29  C13 UNL     1      29.102  -1.980  53.070  1.00  0.00     0.043 A 
HETATM   30  C14 UNL     1      27.789  -1.581  53.016  1.00  0.00     0.135 A 
HETATM   31  F2  UNL     1      26.964  -2.590  52.663  1.00  0.00    -0.205 F 
ENDBRANCH   5  24
TORSDOF 6
ENDMDL
MODEL 6
REMARK VINA RESULT:      -7.9      2.608      3.110
REMARK  6 active torsions:
REMARK  status: ('A' for Active; 'I' for Inactive)
REMARK    1  A    between atoms: C5_5  and  S1_6 
REMARK    2  A    between atoms: S1_6  and  C6_7 
REMARK    3  A    between atoms: C7_9  and  N2_10 
REMARK       I    between atoms: N3_11  and  C8_12 
REMARK    4  A    between atoms: C8_12  and  C9_14 
REMARK    5  A    between atoms: C15_23  and  S2_24 
REMARK    6  A    between atoms: S2_24  and  N5_25 
ROOT
HETATM    1  C6  UNL     1      22.670   1.523  52.515  1.00  0.00     0.231 A 
HETATM    2  N1  UNL     1      22.802   0.571  53.471  1.00  0.00    -0.035 NA
HETATM    3  C7  UNL     1      24.122   0.225  53.512  1.00  0.00     0.726 A 
HETATM    4  N3  UNL     1      24.776   0.953  52.601  1.00  0.00    -0.020 N 
HETATM    5  C8  UNL     1      26.137   0.930  52.351  1.00  0.00     0.301 C 
HETATM    6  O1  UNL     1      26.470   1.638  51.334  1.00  0.00    -0.264 OA
HETATM    7  N4  UNL     1      23.889   1.728  52.009  1.00  0.00    -0.121 NA
ENDROOT
BRANCH   1   8
HETATM    8  S1  UNL     1      21.264   2.435  51.906  1.00  0.00    -0.047 SA
BRANCH   8   9
HETATM    9  C5  UNL     1      19.903   1.276  51.677  1.00  0.00     0.032 A 
HETATM   10  C4  UNL     1      19.570   0.157  52.563  1.00  0.00     0.021 A 
HETATM   11  C3  UNL     1      18.513  -0.509  52.120  1.00  0.00     0.013 A 
HETATM   12  C2  UNL     1      18.107   0.172  50.895  1.00  0.00    -0.021 A 
HETATM   13  C1  UNL     1      17.087  -0.128  50.079  1.00  0.00     0.025 C 
HETATM   14  C15 UNL     1      19.021   1.283  50.673  1.00  0.00     0.101 A 
BRANCH  14  15
HETATM   15  S2  UNL     1      18.969   2.412  49.339  1.00  0.00     0.241 S 
HETATM   16  O2  UNL     1      17.643   2.324  48.621  1.00  0.00    -0.206 OA
HETATM   17  O3  UNL     1      19.202   3.818  49.816  1.00  0.00    -0.206 OA
BRANCH  15  18
HETATM   18  N5  UNL     1      20.199   2.021  48.183  1.00  0.00    -0.225 NA
HETATM   19  H10 UNL     1      21.027   2.662  48.257  1.00  0.00     0.136 HD
HETATM   20  H11 UNL     1      20.564   1.060  48.436  1.00  0.00     0.136 HD
ENDBRANCH  15  18
ENDBRANCH  14  15
ENDBRANCH   8   9
ENDBRANCH   1   8
BRANCH   3  21
HETATM   21  N2  UNL     1      24.415  -0.788  54.443  1.00  0.00    -0.231 N 
HETATM   22  H5  UNL     1      25.113  -1.551  54.216  1.00  0.00     0.174 HD
HETATM   23  H6  UNL     1      23.826  -0.595  55.300  1.00  0.00     0.174 HD
ENDBRANCH   3  21
BRANCH   5  24
HETATM   24  C9  UNL     1      27.360   0.374  52.841  1.00  0.00     0.111 A 
HETATM   25  C10 UNL     1      27.550  -1.007  52.713  1.00  0.00     0.135 A 
HETATM   26  F1  UNL     1      26.595  -1.834  52.167  1.00  0.00    -0.205 F 
HETATM   27  C11 UNL     1      28.716  -1.662  53.127  1.00  0.00     0.043 A 
HETATM   28  C12 UNL     1      29.687  -0.872  53.677  1.00  0.00     0.006 A 
HETATM   29  C13 UNL     1      29.599   0.492  53.845  1.00  0.00     0.043 A 
HETATM   30  C14 UNL     1      28.419   1.044  53.408  1.00  0.00     0.135 A 
HETATM   31  F2  UNL     1      28.403   2.386  53.542  1.00  0.00    -0.205 F 
ENDBRANCH   5  24
TORSDOF 6
ENDMDL
MODEL 7
REMARK VINA RESULT:      -7.8      4.615      6.116
REMARK  6 active torsions:
REMARK  status: ('A' for Active; 'I' for Inactive)
REMARK    1  A    between atoms: C5_5  and  S1_6 
REMARK    2  A    between atoms: S1_6  and  C6_7 
REMARK    3  A    between atoms: C7_9  and  N2_10 
REMARK       I    between atoms: N3_11  and  C8_12 
REMARK    4  A    between atoms: C8_12  and  C9_14 
REMARK    5  A    between atoms: C15_23  and  S2_24 
REMARK    6  A    between atoms: S2_24  and  N5_25 
ROOT
HETATM    1  C6  UNL     1      24.947   5.490  49.955  1.00  0.00     0.231 A 
HETATM    2  N1  UNL     1      23.910   5.383  50.821  1.00  0.00    -0.035 NA
HETATM    3  C7  UNL     1      24.095   4.229  51.528  1.00  0.00     0.726 A 
HETATM    4  N3  UNL     1      25.221   3.650  51.100  1.00  0.00    -0.020 N 
HETATM    5  C8  UNL     1      25.782   2.482  51.584  1.00  0.00     0.301 C 
HETATM    6  O1  UNL     1      26.795   2.092  50.900  1.00  0.00    -0.264 OA
HETATM    7  N4  UNL     1      25.722   4.419  50.153  1.00  0.00    -0.121 NA
ENDROOT
BRANCH   1   8
HETATM    8  S1  UNL     1      25.376   6.712  48.730  1.00  0.00    -0.047 SA
BRANCH   8   9
HETATM    9  C5  UNL     1      27.173   6.766  48.599  1.00  0.00     0.032 A 
HETATM   10  C4  UNL     1      28.037   5.656  48.190  1.00  0.00     0.021 A 
HETATM   11  C3  UNL     1      29.314   6.013  48.195  1.00  0.00     0.013 A 
HETATM   12  C2  UNL     1      29.327   7.409  48.621  1.00  0.00    -0.021 A 
HETATM   13  C1  UNL     1      30.385   8.215  48.782  1.00  0.00     0.025 C 
HETATM   14  C15 UNL     1      27.951   7.820  48.859  1.00  0.00     0.101 A 
BRANCH  14  15
HETATM   15  S2  UNL     1      27.423   9.402  49.386  1.00  0.00     0.241 S 
HETATM   16  O2  UNL     1      28.287  10.481  48.776  1.00  0.00    -0.206 OA
HETATM   17  O3  UNL     1      25.982   9.634  49.029  1.00  0.00    -0.206 OA
BRANCH  15  18
HETATM   18  N5  UNL     1      27.583   9.537  51.107  1.00  0.00    -0.225 NA
HETATM   19  H10 UNL     1      28.437   9.041  51.463  1.00  0.00     0.136 HD
HETATM   20  H11 UNL     1      27.744  10.561  51.321  1.00  0.00     0.136 HD
ENDBRANCH  15  18
ENDBRANCH  14  15
ENDBRANCH   8   9
ENDBRANCH   1   8
BRANCH   3  21
HETATM   21  N2  UNL     1      23.071   3.960  52.453  1.00  0.00    -0.231 N 
HETATM   22  H5  UNL     1      22.442   3.116  52.341  1.00  0.00     0.174 HD
HETATM   23  H6  UNL     1      23.107   4.728  53.181  1.00  0.00     0.174 HD
ENDBRANCH   3  21
BRANCH   5  24
HETATM   24  C9  UNL     1      25.629   1.509  52.621  1.00  0.00     0.111 A 
HETATM   25  C10 UNL     1      24.513   0.665  52.570  1.00  0.00     0.135 A 
HETATM   26  F1  UNL     1      23.560   0.766  51.584  1.00  0.00    -0.205 F 
HETATM   27  C11 UNL     1      24.272  -0.345  53.510  1.00  0.00     0.043 A 
HETATM   28  C12 UNL     1      25.199  -0.474  54.506  1.00  0.00     0.006 A 
HETATM   29  C13 UNL     1      26.329   0.303  54.645  1.00  0.00     0.043 A 
HETATM   30  C14 UNL     1      26.479   1.264  53.675  1.00  0.00     0.135 A 
HETATM   31  F2  UNL     1      27.626   1.960  53.820  1.00  0.00    -0.205 F 
ENDBRANCH   5  24
TORSDOF 6
ENDMDL
MODEL 8
REMARK VINA RESULT:      -7.8      2.710      3.732
REMARK  6 active torsions:
REMARK  status: ('A' for Active; 'I' for Inactive)
REMARK    1  A    between atoms: C5_5  and  S1_6 
REMARK    2  A    between atoms: S1_6  and  C6_7 
REMARK    3  A    between atoms: C7_9  and  N2_10 
REMARK       I    between atoms: N3_11  and  C8_12 
REMARK    4  A    between atoms: C8_12  and  C9_14 
REMARK    5  A    between atoms: C15_23  and  S2_24 
REMARK    6  A    between atoms: S2_24  and  N5_25 
ROOT
HETATM    1  C6  UNL     1      23.418   2.737  52.212  1.00  0.00     0.231 A 
HETATM    2  N1  UNL     1      24.463   3.259  51.524  1.00  0.00    -0.035 NA
HETATM    3  C7  UNL     1      25.585   2.601  51.938  1.00  0.00     0.726 A 
HETATM    4  N3  UNL     1      25.228   1.698  52.857  1.00  0.00    -0.020 N 
HETATM    5  C8  UNL     1      26.064   0.802  53.499  1.00  0.00     0.301 C 
HETATM    6  O1  UNL     1      25.472   0.142  54.426  1.00  0.00    -0.264 OA
HETATM    7  N4  UNL     1      23.922   1.792  53.011  1.00  0.00    -0.121 NA
ENDROOT
BRANCH   1   8
HETATM    8  S1  UNL     1      21.670   3.089  52.205  1.00  0.00    -0.047 SA
BRANCH   8   9
HETATM    9  C5  UNL     1      20.791   1.565  52.595  1.00  0.00     0.032 A 
HETATM   10  C4  UNL     1      21.280   0.491  53.462  1.00  0.00     0.021 A 
HETATM   11  C3  UNL     1      20.399  -0.497  53.547  1.00  0.00     0.013 A 
HETATM   12  C2  UNL     1      19.273  -0.089  52.714  1.00  0.00    -0.021 A 
HETATM   13  C1  UNL     1      18.134  -0.754  52.477  1.00  0.00     0.025 C 
HETATM   14  C15 UNL     1      19.583   1.215  52.144  1.00  0.00     0.101 A 
BRANCH  14  15
HETATM   15  S2  UNL     1      18.560   2.142  51.072  1.00  0.00     0.241 S 
HETATM   16  O2  UNL     1      19.310   2.519  49.816  1.00  0.00    -0.206 OA
HETATM   17  O3  UNL     1      17.317   1.374  50.718  1.00  0.00    -0.206 OA
BRANCH  15  18
HETATM   18  N5  UNL     1      18.082   3.621  51.840  1.00  0.00    -0.225 NA
HETATM   19  H10 UNL     1      17.050   3.651  52.028  1.00  0.00     0.136 HD
HETATM   20  H11 UNL     1      18.541   3.633  52.794  1.00  0.00     0.136 HD
ENDBRANCH  15  18
ENDBRANCH  14  15
ENDBRANCH   8   9
ENDBRANCH   1   8
BRANCH   3  21
HETATM   21  N2  UNL     1      26.768   3.060  51.331  1.00  0.00    -0.231 N 
HETATM   22  H5  UNL     1      27.715   2.711  51.651  1.00  0.00     0.174 HD
HETATM   23  H6  UNL     1      26.480   3.747  50.580  1.00  0.00     0.174 HD
ENDBRANCH   3  21
BRANCH   5  24
HETATM   24  C9  UNL     1      27.413   0.328  53.500  1.00  0.00     0.111 A 
HETATM   25  C10 UNL     1      27.638  -1.010  53.155  1.00  0.00     0.135 A 
HETATM   26  F1  UNL     1      26.612  -1.874  52.851  1.00  0.00    -0.205 F 
HETATM   27  C11 UNL     1      28.915  -1.580  53.091  1.00  0.00     0.043 A 
HETATM   28  C12 UNL     1      29.960  -0.752  53.388  1.00  0.00     0.006 A 
HETATM   29  C13 UNL     1      29.846   0.577  53.737  1.00  0.00     0.043 A 
HETATM   30  C14 UNL     1      28.555   1.045  53.771  1.00  0.00     0.135 A 
HETATM   31  F2  UNL     1      28.498   2.362  54.061  1.00  0.00    -0.205 F 
ENDBRANCH   5  24
TORSDOF 6
ENDMDL
MODEL 9
REMARK VINA RESULT:      -7.8      2.241      3.128
REMARK  6 active torsions:
REMARK  status: ('A' for Active; 'I' for Inactive)
REMARK    1  A    between atoms: C5_5  and  S1_6 
REMARK    2  A    between atoms: S1_6  and  C6_7 
REMARK    3  A    between atoms: C7_9  and  N2_10 
REMARK       I    between atoms: N3_11  and  C8_12 
REMARK    4  A    between atoms: C8_12  and  C9_14 
REMARK    5  A    between atoms: C15_23  and  S2_24 
REMARK    6  A    between atoms: S2_24  and  N5_25 
ROOT
HETATM    1  C6  UNL     1      23.102   2.638  52.192  1.00  0.00     0.231 A 
HETATM    2  N1  UNL     1      22.985   1.537  52.975  1.00  0.00    -0.035 NA
HETATM    3  C7  UNL     1      24.229   0.984  53.078  1.00  0.00     0.726 A 
HETATM    4  N3  UNL     1      25.083   1.734  52.374  1.00  0.00    -0.020 N 
HETATM    5  C8  UNL     1      26.446   1.535  52.251  1.00  0.00     0.301 C 
HETATM    6  O1  UNL     1      26.995   2.333  51.409  1.00  0.00    -0.264 OA
HETATM    7  N4  UNL     1      24.390   2.724  51.846  1.00  0.00    -0.121 NA
ENDROOT
BRANCH   1   8
HETATM    8  S1  UNL     1      21.921   3.846  51.622  1.00  0.00    -0.047 SA
BRANCH   8   9
HETATM    9  C5  UNL     1      22.241   4.159  49.876  1.00  0.00     0.032 A 
HETATM   10  C4  UNL     1      23.054   5.251  49.335  1.00  0.00     0.021 A 
HETATM   11  C3  UNL     1      23.095   5.209  48.010  1.00  0.00     0.013 A 
HETATM   12  C2  UNL     1      22.286   4.056  47.631  1.00  0.00    -0.021 A 
HETATM   13  C1  UNL     1      22.022   3.598  46.399  1.00  0.00     0.025 C 
HETATM   14  C15 UNL     1      21.778   3.440  48.849  1.00  0.00     0.101 A 
BRANCH  14  15
HETATM   15  S2  UNL     1      20.755   2.026  48.942  1.00  0.00     0.241 S 
HETATM   16  O2  UNL     1      21.465   0.818  48.374  1.00  0.00    -0.206 OA
HETATM   17  O3  UNL     1      20.338   1.756  50.360  1.00  0.00    -0.206 OA
BRANCH  15  18
HETATM   18  N5  UNL     1      19.325   2.266  47.993  1.00  0.00    -0.225 NA
HETATM   19  H10 UNL     1      19.412   1.845  47.035  1.00  0.00     0.136 HD
HETATM   20  H11 UNL     1      18.548   1.724  48.467  1.00  0.00     0.136 HD
ENDBRANCH  15  18
ENDBRANCH  14  15
ENDBRANCH   8   9
ENDBRANCH   1   8
BRANCH   3  21
HETATM   21  N2  UNL     1      24.263  -0.197  53.841  1.00  0.00    -0.231 N 
HETATM   22  H5  UNL     1      25.178  -0.581  54.209  1.00  0.00     0.174 HD
HETATM   23  H6  UNL     1      23.264  -0.535  53.925  1.00  0.00     0.174 HD
ENDBRANCH   3  21
BRANCH   5  24
HETATM   24  C9  UNL     1      27.511   0.721  52.749  1.00  0.00     0.111 A 
HETATM   25  C10 UNL     1      28.543   1.351  53.456  1.00  0.00     0.135 A 
HETATM   26  F1  UNL     1      28.575   2.712  53.653  1.00  0.00    -0.205 F 
HETATM   27  C11 UNL     1      29.622   0.657  54.017  1.00  0.00     0.043 A 
HETATM   28  C12 UNL     1      29.624  -0.698  53.840  1.00  0.00     0.006 A 
HETATM   29  C13 UNL     1      28.658  -1.412  53.164  1.00  0.00     0.043 A 
HETATM   30  C14 UNL     1      27.641  -0.645  52.651  1.00  0.00     0.135 A 
HETATM   31  F2  UNL     1      26.692  -1.392  52.049  1.00  0.00    -0.205 F 
ENDBRANCH   5  24
TORSDOF 6
ENDMDL
