MODEL 1
REMARK VINA RESULT:      -8.5      0.000      0.000
REMARK  8 active torsions:
REMARK  status: ('A' for Active; 'I' for Inactive)
REMARK    1  A    between atoms: C2_2  and  C3_3 
REMARK    2  A    between atoms: C7_9  and  N3_10 
REMARK    3  A    between atoms: C13_17  and  C14_18 
REMARK    4  A    between atoms: C14_18  and  C15_19 
REMARK    5  A    between atoms: C15_19  and  N4_20 
REMARK       I    between atoms: N4_20  and  C16_21 
REMARK    6  A    between atoms: C16_21  and  C17_23 
REMARK    7  A    between atoms: C18_24  and  C19_25 
REMARK    8  A    between atoms: C19_25  and  N5_26 
ROOT
HETATM    1  C3  UNL     1      22.800   0.979  51.533  1.00  0.00     0.109 A 
HETATM    2  N1  UNL     1      22.067   0.158  52.256  1.00  0.00    -0.250 NA
HETATM    3  C4  UNL     1      22.646  -0.425  53.319  1.00  0.00     0.143 A 
HETATM    4  C5  UNL     1      23.960  -0.163  53.626  1.00  0.00     0.089 A 
HETATM    5  C6  UNL     1      24.552  -0.799  54.764  1.00  0.00     0.103 C 
HETATM    6  N2  UNL     1      25.023  -1.301  55.693  1.00  0.00    -0.191 NA
HETATM    7  C7  UNL     1      24.649   0.706  52.815  1.00  0.00     0.070 A 
HETATM    8  C13 UNL     1      24.086   1.339  51.695  1.00  0.00     0.027 A 
ENDROOT
BRANCH   7   9
HETATM    9  N3  UNL     1      26.011   0.912  53.217  1.00  0.00    -0.350 N 
HETATM   10  C8  UNL     1      26.949  -0.161  53.095  1.00  0.00     0.110 A 
HETATM   11  C9  UNL     1      28.215  -0.107  53.433  1.00  0.00     0.026 A 
HETATM   12 BR1  UNL     1      29.366  -1.606  53.223  1.00  0.00    -0.050 Br
HETATM   13  C10 UNL     1      28.735   1.130  53.974  1.00  0.00     0.018 A 
HETATM   14  C11 UNL     1      27.884   2.114  54.085  1.00  0.00    -0.005 A 
HETATM   15  C12 UNL     1      26.461   2.163  53.741  1.00  0.00     0.156 A 
ENDBRANCH   7   9
BRANCH   8  16
HETATM   16  C14 UNL     1      24.862   2.145  51.018  1.00  0.00     0.009 C 
BRANCH  16  17
HETATM   17  C15 UNL     1      25.068   3.581  50.928  1.00  0.00     0.151 C 
BRANCH  17  18
HETATM   18  N4  UNL     1      26.375   3.973  50.400  1.00  0.00    -0.347 N 
HETATM   19  C16 UNL     1      26.500   4.827  49.267  1.00  0.00     0.296 C 
HETATM   20  O1  UNL     1      25.448   5.263  48.697  1.00  0.00    -0.258 OA
HETATM   21  H12 UNL     1      27.326   3.700  50.761  1.00  0.00     0.163 HD
BRANCH  19  22
HETATM   22  C17 UNL     1      27.761   5.243  48.710  1.00  0.00    -0.004 C 
HETATM   23  C18 UNL     1      28.829   5.586  48.259  1.00  0.00    -0.066 C 
BRANCH  23  24
HETATM   24  C19 UNL     1      30.129   6.001  47.731  1.00  0.00     0.369 C 
BRANCH  24  25
HETATM   25  N5  UNL     1      30.843   6.843  48.664  1.00  0.00     0.124 N 
HETATM   26  C20 UNL     1      31.654   6.050  49.565  1.00  0.00     0.302 C 
HETATM   27  C21 UNL     1      32.852   5.706  48.733  1.00  0.00     0.200 C 
HETATM   28  O2  UNL     1      32.724   6.465  47.556  1.00  0.00    -0.361 OA
HETATM   29  C22 UNL     1      31.883   7.526  47.896  1.00  0.00     0.441 C 
ENDBRANCH  24  25
ENDBRANCH  23  24
ENDBRANCH  19  22
ENDBRANCH  17  18
ENDBRANCH  16  17
ENDBRANCH   8  16
BRANCH   1  30
HETATM   30  C2  UNL     1      22.207   1.542  50.488  1.00  0.00    -0.123 C 
HETATM   31  C1  UNL     1      21.521   1.793  49.400  1.00  0.00     0.099 C 
ENDBRANCH   1  30
TORSDOF 8
ENDMDL
MODEL 2
REMARK VINA RESULT:      -8.4      3.232      4.890
REMARK  8 active torsions:
REMARK  status: ('A' for Active; 'I' for Inactive)
REMARK    1  A    between atoms: C2_2  and  C3_3 
REMARK    2  A    between atoms: C7_9  and  N3_10 
REMARK    3  A    between atoms: C13_17  and  C14_18 
REMARK    4  A    between atoms: C14_18  and  C15_19 
REMARK    5  A    between atoms: C15_19  and  N4_20 
REMARK       I    between atoms: N4_20  and  C16_21 
REMARK    6  A    between atoms: C16_21  and  C17_23 
REMARK    7  A    between atoms: C18_24  and  C19_25 
REMARK    8  A    between atoms: C19_25  and  N5_26 
ROOT
HETATM    1  C3  UNL     1      26.121   0.031  54.087  1.00  0.00     0.109 A 
HETATM    2  N1  UNL     1      25.463  -0.890  54.760  1.00  0.00    -0.250 NA
HETATM    3  C4  UNL     1      24.125  -0.915  54.636  1.00  0.00     0.143 A 
HETATM    4  C5  UNL     1      23.484  -0.004  53.831  1.00  0.00     0.089 A 
HETATM    5  C6  UNL     1      22.056  -0.054  53.719  1.00  0.00     0.103 C 
HETATM    6  N2  UNL     1      20.906  -0.106  53.617  1.00  0.00    -0.191 NA
HETATM    7  C7  UNL     1      24.251   0.921  53.167  1.00  0.00     0.070 A 
HETATM    8  C13 UNL     1      25.651   0.986  53.265  1.00  0.00     0.027 A 
ENDROOT
BRANCH   7   9
HETATM    9  N3  UNL     1      23.490   1.827  52.356  1.00  0.00    -0.350 N 
HETATM   10  C8  UNL     1      22.981   1.380  51.095  1.00  0.00     0.110 A 
HETATM   11  C9  UNL     1      22.280   2.106  50.257  1.00  0.00     0.026 A 
HETATM   12 BR1  UNL     1      21.658   1.397  48.606  1.00  0.00    -0.050 Br
HETATM   13  C10 UNL     1      21.980   3.476  50.612  1.00  0.00     0.018 A 
HETATM   14  C11 UNL     1      22.440   3.889  51.762  1.00  0.00    -0.005 A 
HETATM   15  C12 UNL     1      23.225   3.169  52.768  1.00  0.00     0.156 A 
ENDBRANCH   7   9
BRANCH   8  16
HETATM   16  C14 UNL     1      26.251   1.918  52.572  1.00  0.00     0.009 C 
BRANCH  16  17
HETATM   17  C15 UNL     1      26.709   2.083  51.202  1.00  0.00     0.151 C 
BRANCH  17  18
HETATM   18  N4  UNL     1      26.871   3.476  50.782  1.00  0.00    -0.347 N 
HETATM   19  C16 UNL     1      26.093   4.035  49.728  1.00  0.00     0.296 C 
HETATM   20  O1  UNL     1      25.235   3.307  49.134  1.00  0.00    -0.258 OA
HETATM   21  H12 UNL     1      27.531   4.196  51.175  1.00  0.00     0.163 HD
BRANCH  19  22
HETATM   22  C17 UNL     1      26.213   5.398  49.278  1.00  0.00    -0.004 C 
HETATM   23  C18 UNL     1      26.318   6.535  48.881  1.00  0.00    -0.066 C 
BRANCH  23  24
HETATM   24  C19 UNL     1      26.456   7.905  48.387  1.00  0.00     0.369 C 
BRANCH  24  25
HETATM   25  N5  UNL     1      27.653   8.540  48.893  1.00  0.00     0.124 N 
HETATM   26  C20 UNL     1      28.002   9.700  48.099  1.00  0.00     0.302 C 
HETATM   27  C21 UNL     1      27.059  10.751  48.597  1.00  0.00     0.200 C 
HETATM   28  O2  UNL     1      26.424  10.187  49.718  1.00  0.00    -0.361 OA
HETATM   29  C22 UNL     1      27.284   9.178  50.155  1.00  0.00     0.441 C 
ENDBRANCH  24  25
ENDBRANCH  23  24
ENDBRANCH  19  22
ENDBRANCH  17  18
ENDBRANCH  16  17
ENDBRANCH   8  16
BRANCH   1  30
HETATM   30  C2  UNL     1      27.442   0.037  54.226  1.00  0.00    -0.123 C 
HETATM   31  C1  UNL     1      28.671   0.098  54.675  1.00  0.00     0.099 C 
ENDBRANCH   1  30
TORSDOF 8
ENDMDL
MODEL 3
REMARK VINA RESULT:      -8.3      3.580      5.711
REMARK  8 active torsions:
REMARK  status: ('A' for Active; 'I' for Inactive)
REMARK    1  A    between atoms: C2_2  and  C3_3 
REMARK    2  A    between atoms: C7_9  and  N3_10 
REMARK    3  A    between atoms: C13_17  and  C14_18 
REMARK    4  A    between atoms: C14_18  and  C15_19 
REMARK    5  A    between atoms: C15_19  and  N4_20 
REMARK       I    between atoms: N4_20  and  C16_21 
REMARK    6  A    between atoms: C16_21  and  C17_23 
REMARK    7  A    between atoms: C18_24  and  C19_25 
REMARK    8  A    between atoms: C19_25  and  N5_26 
ROOT
HETATM    1  C3  UNL     1      26.200  -0.457  53.382  1.00  0.00     0.109 A 
HETATM    2  N1  UNL     1      25.558  -1.188  54.269  1.00  0.00    -0.250 NA
HETATM    3  C4  UNL     1      24.246  -0.954  54.438  1.00  0.00     0.143 A 
HETATM    4  C5  UNL     1      23.613   0.019  53.702  1.00  0.00     0.089 A 
HETATM    5  C6  UNL     1      22.213   0.248  53.904  1.00  0.00     0.103 C 
HETATM    6  N2  UNL     1      21.080   0.420  54.057  1.00  0.00    -0.191 NA
HETATM    7  C7  UNL     1      24.362   0.734  52.800  1.00  0.00     0.070 A 
HETATM    8  C13 UNL     1      25.735   0.525  52.588  1.00  0.00     0.027 A 
ENDROOT
BRANCH   7   9
HETATM    9  N3  UNL     1      23.611   1.725  52.084  1.00  0.00    -0.350 N 
HETATM   10  C8  UNL     1      23.047   1.394  50.812  1.00  0.00     0.110 A 
HETATM   11  C9  UNL     1      22.350   2.206  50.054  1.00  0.00     0.026 A 
HETATM   12 BR1  UNL     1      21.650   1.647  48.376  1.00  0.00    -0.050 Br
HETATM   13  C10 UNL     1      22.113   3.555  50.520  1.00  0.00     0.018 A 
HETATM   14  C11 UNL     1      22.623   3.862  51.682  1.00  0.00    -0.005 A 
HETATM   15  C12 UNL     1      23.410   3.041  52.604  1.00  0.00     0.156 A 
ENDBRANCH   7   9
BRANCH   8  16
HETATM   16  C14 UNL     1      26.318   1.278  51.693  1.00  0.00     0.009 C 
BRANCH  16  17
HETATM   17  C15 UNL     1      27.018   2.553  51.683  1.00  0.00     0.151 C 
BRANCH  17  18
HETATM   18  N4  UNL     1      26.241   3.665  51.134  1.00  0.00    -0.347 N 
HETATM   19  C16 UNL     1      26.359   4.060  49.771  1.00  0.00     0.296 C 
HETATM   20  O1  UNL     1      27.162   3.432  49.008  1.00  0.00    -0.258 OA
HETATM   21  H12 UNL     1      25.541   4.273  51.634  1.00  0.00     0.163 HD
BRANCH  19  22
HETATM   22  C17 UNL     1      25.618   5.146  49.182  1.00  0.00    -0.004 C 
HETATM   23  C18 UNL     1      24.979   6.052  48.700  1.00  0.00    -0.066 C 
BRANCH  23  24
HETATM   24  C19 UNL     1      24.191   7.141  48.123  1.00  0.00     0.369 C 
BRANCH  24  25
HETATM   25  N5  UNL     1      24.410   8.389  48.821  1.00  0.00     0.124 N 
HETATM   26  C20 UNL     1      23.600   9.449  48.258  1.00  0.00     0.302 C 
HETATM   27  C21 UNL     1      22.245   9.191  48.843  1.00  0.00     0.200 C 
HETATM   28  O2  UNL     1      22.435   8.180  49.802  1.00  0.00    -0.361 OA
HETATM   29  C22 UNL     1      23.789   8.245  50.136  1.00  0.00     0.441 C 
ENDBRANCH  24  25
ENDBRANCH  23  24
ENDBRANCH  19  22
ENDBRANCH  17  18
ENDBRANCH  16  17
ENDBRANCH   8  16
BRANCH   1  30
HETATM   30  C2  UNL     1      27.496  -0.705  53.233  1.00  0.00    -0.123 C 
HETATM   31  C1  UNL     1      28.776  -0.922  53.410  1.00  0.00     0.099 C 
ENDBRANCH   1  30
TORSDOF 8
ENDMDL
MODEL 4
REMARK VINA RESULT:      -7.7      3.551      5.276
REMARK  8 active torsions:
REMARK  status: ('A' for Active; 'I' for Inactive)
REMARK    1  A    between atoms: C2_2  and  C3_3 
REMARK    2  A    between atoms: C7_9  and  N3_10 
REMARK    3  A    between atoms: C13_17  and  C14_18 
REMARK    4  A    between atoms: C14_18  and  C15_19 
REMARK    5  A    between atoms: C15_19  and  N4_20 
REMARK       I    between atoms: N4_20  and  C16_21 
REMARK    6  A    between atoms: C16_21  and  C17_23 
REMARK    7  A    between atoms: C18_24  and  C19_25 
REMARK    8  A    between atoms: C19_25  and  N5_26 
ROOT
HETATM    1  C3  UNL     1      23.766   0.211  53.108  1.00  0.00     0.109 A 
HETATM    2  N1  UNL     1      22.714  -0.575  53.204  1.00  0.00    -0.250 NA
HETATM    3  C4  UNL     1      21.537  -0.099  52.764  1.00  0.00     0.143 A 
HETATM    4  C5  UNL     1      21.453   1.167  52.236  1.00  0.00     0.089 A 
HETATM    5  C6  UNL     1      20.185   1.649  51.775  1.00  0.00     0.103 C 
HETATM    6  N2  UNL     1      19.164   2.030  51.389  1.00  0.00    -0.191 NA
HETATM    7  C7  UNL     1      22.601   1.918  52.176  1.00  0.00     0.070 A 
HETATM    8  C13 UNL     1      23.854   1.463  52.622  1.00  0.00     0.027 A 
ENDROOT
BRANCH   7   9
HETATM    9  N3  UNL     1      22.409   3.222  51.611  1.00  0.00    -0.350 N 
HETATM   10  C8  UNL     1      22.482   3.390  50.192  1.00  0.00     0.110 A 
HETATM   11  C9  UNL     1      22.335   4.525  49.551  1.00  0.00     0.026 A 
HETATM   12 BR1  UNL     1      22.455   4.620  47.655  1.00  0.00    -0.050 Br
HETATM   13  C10 UNL     1      22.072   5.723  50.318  1.00  0.00     0.018 A 
HETATM   14  C11 UNL     1      22.001   5.576  51.613  1.00  0.00    -0.005 A 
HETATM   15  C12 UNL     1      22.147   4.366  52.426  1.00  0.00     0.156 A 
ENDBRANCH   7   9
BRANCH   8  16
HETATM   16  C14 UNL     1      24.861   2.286  52.499  1.00  0.00     0.009 C 
BRANCH  16  17
HETATM   17  C15 UNL     1      25.881   2.562  51.500  1.00  0.00     0.151 C 
BRANCH  17  18
HETATM   18  N4  UNL     1      25.838   3.916  50.949  1.00  0.00    -0.347 N 
HETATM   19  C16 UNL     1      26.472   4.244  49.717  1.00  0.00     0.296 C 
HETATM   20  O1  UNL     1      27.094   3.336  49.076  1.00  0.00    -0.258 OA
HETATM   21  H12 UNL     1      25.366   4.764  51.357  1.00  0.00     0.163 HD
BRANCH  19  22
HETATM   22  C17 UNL     1      26.459   5.560  49.131  1.00  0.00    -0.004 C 
HETATM   23  C18 UNL     1      26.440   6.656  48.621  1.00  0.00    -0.066 C 
BRANCH  23  24
HETATM   24  C19 UNL     1      26.416   7.974  47.989  1.00  0.00     0.369 C 
BRANCH  24  25
HETATM   25  N5  UNL     1      27.581   8.757  48.337  1.00  0.00     0.124 N 
HETATM   26  C20 UNL     1      27.568  10.039  47.664  1.00  0.00     0.302 C 
HETATM   27  C21 UNL     1      26.603  10.843  48.480  1.00  0.00     0.200 C 
HETATM   28  O2  UNL     1      26.319  10.058  49.610  1.00  0.00    -0.361 OA
HETATM   29  C22 UNL     1      27.399   9.180  49.725  1.00  0.00     0.441 C 
ENDBRANCH  24  25
ENDBRANCH  23  24
ENDBRANCH  19  22
ENDBRANCH  17  18
ENDBRANCH  16  17
ENDBRANCH   8  16
BRANCH   1  30
HETATM   30  C2  UNL     1      24.917  -0.280  53.550  1.00  0.00    -0.123 C 
HETATM   31  C1  UNL     1      26.075  -0.879  53.682  1.00  0.00     0.099 C 
ENDBRANCH   1  30
TORSDOF 8
ENDMDL
MODEL 5
REMARK VINA RESULT:      -7.7      4.436     10.052
REMARK  8 active torsions:
REMARK  status: ('A' for Active; 'I' for Inactive)
REMARK    1  A    between atoms: C2_2  and  C3_3 
REMARK    2  A    between atoms: C7_9  and  N3_10 
REMARK    3  A    between atoms: C13_17  and  C14_18 
REMARK    4  A    between atoms: C14_18  and  C15_19 
REMARK    5  A    between atoms: C15_19  and  N4_20 
REMARK       I    between atoms: N4_20  and  C16_21 
REMARK    6  A    between atoms: C16_21  and  C17_23 
REMARK    7  A    between atoms: C18_24  and  C19_25 
REMARK    8  A    between atoms: C19_25  and  N5_26 
ROOT
HETATM    1  C3  UNL     1      29.074   5.899  48.376  1.00  0.00     0.109 A 
HETATM    2  N1  UNL     1      30.165   5.190  48.172  1.00  0.00    -0.250 NA
HETATM    3  C4  UNL     1      31.316   5.858  47.982  1.00  0.00     0.143 A 
HETATM    4  C5  UNL     1      31.336   7.231  48.004  1.00  0.00     0.089 A 
HETATM    5  C6  UNL     1      32.577   7.916  47.798  1.00  0.00     0.103 C 
HETATM    6  N2  UNL     1      33.583   8.466  47.648  1.00  0.00    -0.191 NA
HETATM    7  C7  UNL     1      30.150   7.889  48.222  1.00  0.00     0.070 A 
HETATM    8  C13 UNL     1      28.923   7.235  48.426  1.00  0.00     0.027 A 
ENDROOT
BRANCH   7   9
HETATM    9  N3  UNL     1      30.275   9.318  48.225  1.00  0.00    -0.350 N 
HETATM   10  C8  UNL     1      30.094  10.040  47.003  1.00  0.00     0.110 A 
HETATM   11  C9  UNL     1      30.189  11.341  46.867  1.00  0.00     0.026 A 
HETATM   12 BR1  UNL     1      29.927  12.187  45.184  1.00  0.00    -0.050 Br
HETATM   13  C10 UNL     1      30.497  12.138  48.034  1.00  0.00     0.018 A 
HETATM   14  C11 UNL     1      30.660  11.485  49.153  1.00  0.00    -0.005 A 
HETATM   15  C12 UNL     1      30.577  10.046  49.416  1.00  0.00     0.156 A 
ENDBRANCH   7   9
BRANCH   8  16
HETATM   16  C14 UNL     1      27.876   7.991  48.626  1.00  0.00     0.009 C 
BRANCH  16  17
HETATM   17  C15 UNL     1      27.170   8.531  49.777  1.00  0.00     0.151 C 
BRANCH  17  18
HETATM   18  N4  UNL     1      26.420   7.538  50.547  1.00  0.00    -0.347 N 
HETATM   19  C16 UNL     1      25.079   7.191  50.217  1.00  0.00     0.296 C 
HETATM   20  O1  UNL     1      24.515   7.760  49.227  1.00  0.00    -0.258 OA
HETATM   21  H12 UNL     1      26.748   6.986  51.382  1.00  0.00     0.163 HD
BRANCH  19  22
HETATM   22  C17 UNL     1      24.298   6.221  50.941  1.00  0.00    -0.004 C 
HETATM   23  C18 UNL     1      23.656   5.408  51.565  1.00  0.00    -0.066 C 
BRANCH  23  24
HETATM   24  C19 UNL     1      22.893   4.423  52.331  1.00  0.00     0.369 C 
BRANCH  24  25
HETATM   25  N5  UNL     1      22.327   3.402  51.478  1.00  0.00     0.124 N 
HETATM   26  C20 UNL     1      23.363   2.694  50.755  1.00  0.00     0.302 C 
HETATM   27  C21 UNL     1      23.905   1.744  51.778  1.00  0.00     0.200 C 
HETATM   28  O2  UNL     1      23.039   1.843  52.880  1.00  0.00    -0.361 OA
HETATM   29  C22 UNL     1      21.843   2.343  52.361  1.00  0.00     0.441 C 
ENDBRANCH  24  25
ENDBRANCH  23  24
ENDBRANCH  19  22
ENDBRANCH  17  18
ENDBRANCH  16  17
ENDBRANCH   8  16
BRANCH   1  30
HETATM   30  C2  UNL     1      27.950   5.219  48.559  1.00  0.00    -0.123 C 
HETATM   31  C1  UNL     1      27.033   4.353  48.914  1.00  0.00     0.099 C 
ENDBRANCH   1  30
TORSDOF 8
ENDMDL
MODEL 6
REMARK VINA RESULT:      -7.6      1.973      2.786
REMARK  8 active torsions:
REMARK  status: ('A' for Active; 'I' for Inactive)
REMARK    1  A    between atoms: C2_2  and  C3_3 
REMARK    2  A    between atoms: C7_9  and  N3_10 
REMARK    3  A    between atoms: C13_17  and  C14_18 
REMARK    4  A    between atoms: C14_18  and  C15_19 
REMARK    5  A    between atoms: C15_19  and  N4_20 
REMARK       I    between atoms: N4_20  and  C16_21 
REMARK    6  A    between atoms: C16_21  and  C17_23 
REMARK    7  A    between atoms: C18_24  and  C19_25 
REMARK    8  A    between atoms: C19_25  and  N5_26 
ROOT
HETATM    1  C3  UNL     1      21.697   2.199  48.632  1.00  0.00     0.109 A 
HETATM    2  N1  UNL     1      20.696   1.380  48.876  1.00  0.00    -0.250 NA
HETATM    3  C4  UNL     1      20.684   0.745  50.061  1.00  0.00     0.143 A 
HETATM    4  C5  UNL     1      21.689   0.956  50.973  1.00  0.00     0.089 A 
HETATM    5  C6  UNL     1      21.651   0.266  52.228  1.00  0.00     0.103 C 
HETATM    6  N2  UNL     1      21.610  -0.280  53.246  1.00  0.00    -0.191 NA
HETATM    7  C7  UNL     1      22.694   1.828  50.633  1.00  0.00     0.070 A 
HETATM    8  C13 UNL     1      22.749   2.515  49.408  1.00  0.00     0.027 A 
ENDROOT
BRANCH   7   9
HETATM    9  N3  UNL     1      23.695   1.980  51.650  1.00  0.00    -0.350 N 
HETATM   10  C8  UNL     1      24.787   1.057  51.702  1.00  0.00     0.110 A 
HETATM   11  C9  UNL     1      25.760   1.078  52.582  1.00  0.00     0.026 A 
HETATM   12 BR1  UNL     1      27.160  -0.209  52.548  1.00  0.00    -0.050 Br
HETATM   13  C10 UNL     1      25.755   2.112  53.594  1.00  0.00     0.018 A 
HETATM   14  C11 UNL     1      24.763   2.959  53.549  1.00  0.00    -0.005 A 
HETATM   15  C12 UNL     1      23.634   3.028  52.618  1.00  0.00     0.156 A 
ENDBRANCH   7   9
BRANCH   8  16
HETATM   16  C14 UNL     1      23.765   3.317  49.224  1.00  0.00     0.009 C 
BRANCH  16  17
HETATM   17  C15 UNL     1      24.088   4.698  49.542  1.00  0.00     0.151 C 
BRANCH  17  18
HETATM   18  N4  UNL     1      25.333   5.181  48.943  1.00  0.00    -0.347 N 
HETATM   19  C16 UNL     1      26.599   4.643  49.310  1.00  0.00     0.296 C 
HETATM   20  O1  UNL     1      26.652   3.717  50.182  1.00  0.00    -0.258 OA
HETATM   21  H12 UNL     1      25.449   5.932  48.213  1.00  0.00     0.163 HD
BRANCH  19  22
HETATM   22  C17 UNL     1      27.852   5.082  48.750  1.00  0.00    -0.004 C 
HETATM   23  C18 UNL     1      28.911   5.431  48.283  1.00  0.00    -0.066 C 
BRANCH  23  24
HETATM   24  C19 UNL     1      30.200   5.840  47.728  1.00  0.00     0.369 C 
BRANCH  24  25
HETATM   25  N5  UNL     1      30.256   7.266  47.496  1.00  0.00     0.124 N 
HETATM   26  C20 UNL     1      30.166   8.000  48.741  1.00  0.00     0.302 C 
HETATM   27  C21 UNL     1      31.550   7.890  49.304  1.00  0.00     0.200 C 
HETATM   28  O2  UNL     1      32.325   7.307  48.286  1.00  0.00    -0.361 OA
HETATM   29  C22 UNL     1      31.631   7.570  47.103  1.00  0.00     0.441 C 
ENDBRANCH  24  25
ENDBRANCH  23  24
ENDBRANCH  19  22
ENDBRANCH  17  18
ENDBRANCH  16  17
ENDBRANCH   8  16
BRANCH   1  30
HETATM   30  C2  UNL     1      21.688   2.813  47.455  1.00  0.00    -0.123 C 
HETATM   31  C1  UNL     1      21.978   3.291  46.270  1.00  0.00     0.099 C 
ENDBRANCH   1  30
TORSDOF 8
ENDMDL
MODEL 7
REMARK VINA RESULT:      -7.6      2.532      4.468
REMARK  8 active torsions:
REMARK  status: ('A' for Active; 'I' for Inactive)
REMARK    1  A    between atoms: C2_2  and  C3_3 
REMARK    2  A    between atoms: C7_9  and  N3_10 
REMARK    3  A    between atoms: C13_17  and  C14_18 
REMARK    4  A    between atoms: C14_18  and  C15_19 
REMARK    5  A    between atoms: C15_19  and  N4_20 
REMARK       I    between atoms: N4_20  and  C16_21 
REMARK    6  A    between atoms: C16_21  and  C17_23 
REMARK    7  A    between atoms: C18_24  and  C19_25 
REMARK    8  A    between atoms: C19_25  and  N5_26 
ROOT
HETATM    1  C3  UNL     1      25.330   0.593  52.755  1.00  0.00     0.109 A 
HETATM    2  N1  UNL     1      24.768  -0.407  53.402  1.00  0.00    -0.250 NA
HETATM    3  C4  UNL     1      23.426  -0.438  53.458  1.00  0.00     0.143 A 
HETATM    4  C5  UNL     1      22.681   0.548  52.857  1.00  0.00     0.089 A 
HETATM    5  C6  UNL     1      21.252   0.490  52.935  1.00  0.00     0.103 C 
HETATM    6  N2  UNL     1      20.099   0.433  52.984  1.00  0.00    -0.191 NA
HETATM    7  C7  UNL     1      23.352   1.554  52.205  1.00  0.00     0.070 A 
HETATM    8  C13 UNL     1      24.752   1.628  52.119  1.00  0.00     0.027 A 
ENDROOT
BRANCH   7   9
HETATM    9  N3  UNL     1      22.488   2.534  51.613  1.00  0.00    -0.350 N 
HETATM   10  C8  UNL     1      21.924   2.283  50.322  1.00  0.00     0.110 A 
HETATM   11  C9  UNL     1      21.129   3.096  49.667  1.00  0.00     0.026 A 
HETATM   12 BR1  UNL     1      20.442   2.648  47.951  1.00  0.00    -0.050 Br
HETATM   13  C10 UNL     1      20.773   4.358  50.280  1.00  0.00     0.018 A 
HETATM   14  C11 UNL     1      21.283   4.591  51.459  1.00  0.00    -0.005 A 
HETATM   15  C12 UNL     1      22.172   3.760  52.274  1.00  0.00     0.156 A 
ENDBRANCH   7   9
BRANCH   8  16
HETATM   16  C14 UNL     1      25.252   2.642  51.462  1.00  0.00     0.009 C 
BRANCH  16  17
HETATM   17  C15 UNL     1      25.319   3.068  50.073  1.00  0.00     0.151 C 
BRANCH  17  18
HETATM   18  N4  UNL     1      26.650   3.482  49.631  1.00  0.00    -0.347 N 
HETATM   19  C16 UNL     1      26.877   4.749  49.021  1.00  0.00     0.296 C 
HETATM   20  O1  UNL     1      25.896   5.544  48.856  1.00  0.00    -0.258 OA
HETATM   21  H12 UNL     1      27.551   2.941  49.701  1.00  0.00     0.163 HD
BRANCH  19  22
HETATM   22  C17 UNL     1      28.167   5.204  48.570  1.00  0.00    -0.004 C 
HETATM   23  C18 UNL     1      29.249   5.572  48.176  1.00  0.00    -0.066 C 
BRANCH  23  24
HETATM   24  C19 UNL     1      30.560   6.002  47.690  1.00  0.00     0.369 C 
BRANCH  24  25
HETATM   25  N5  UNL     1      31.635   5.439  48.479  1.00  0.00     0.124 N 
HETATM   26  C20 UNL     1      32.241   4.312  47.803  1.00  0.00     0.302 C 
HETATM   27  C21 UNL     1      33.131   4.960  46.787  1.00  0.00     0.200 C 
HETATM   28  O2  UNL     1      33.112   6.333  47.092  1.00  0.00    -0.361 OA
HETATM   29  C22 UNL     1      32.733   6.403  48.433  1.00  0.00     0.441 C 
ENDBRANCH  24  25
ENDBRANCH  23  24
ENDBRANCH  19  22
ENDBRANCH  17  18
ENDBRANCH  16  17
ENDBRANCH   8  16
BRANCH   1  30
HETATM   30  C2  UNL     1      26.656   0.603  52.713  1.00  0.00    -0.123 C 
HETATM   31  C1  UNL     1      27.935   0.670  52.991  1.00  0.00     0.099 C 
ENDBRANCH   1  30
TORSDOF 8
ENDMDL
MODEL 8
REMARK VINA RESULT:      -7.6      3.797      5.512
REMARK  8 active torsions:
REMARK  status: ('A' for Active; 'I' for Inactive)
REMARK    1  A    between atoms: C2_2  and  C3_3 
REMARK    2  A    between atoms: C7_9  and  N3_10 
REMARK    3  A    between atoms: C13_17  and  C14_18 
REMARK    4  A    between atoms: C14_18  and  C15_19 
REMARK    5  A    between atoms: C15_19  and  N4_20 
REMARK       I    between atoms: N4_20  and  C16_21 
REMARK    6  A    between atoms: C16_21  and  C17_23 
REMARK    7  A    between atoms: C18_24  and  C19_25 
REMARK    8  A    between atoms: C19_25  and  N5_26 
ROOT
HETATM    1  C3  UNL     1      24.757   1.316  52.169  1.00  0.00     0.109 A 
HETATM    2  N1  UNL     1      23.717   0.690  52.680  1.00  0.00    -0.250 NA
HETATM    3  C4  UNL     1      22.534   1.328  52.659  1.00  0.00     0.143 A 
HETATM    4  C5  UNL     1      22.432   2.588  52.121  1.00  0.00     0.089 A 
HETATM    5  C6  UNL     1      21.159   3.243  52.113  1.00  0.00     0.103 C 
HETATM    6  N2  UNL     1      20.127   3.764  52.094  1.00  0.00    -0.191 NA
HETATM    7  C7  UNL     1      23.570   3.165  51.612  1.00  0.00     0.070 A 
HETATM    8  C13 UNL     1      24.828   2.538  51.610  1.00  0.00     0.027 A 
ENDROOT
BRANCH   7   9
HETATM    9  N3  UNL     1      23.360   4.478  51.075  1.00  0.00    -0.350 N 
HETATM   10  C8  UNL     1      22.884   4.620  49.733  1.00  0.00     0.110 A 
HETATM   11  C9  UNL     1      22.660   5.759  49.122  1.00  0.00     0.026 A 
HETATM   12 BR1  UNL     1      22.025   5.817  47.330  1.00  0.00    -0.050 Br
HETATM   13  C10 UNL     1      22.903   6.990  49.841  1.00  0.00     0.018 A 
HETATM   14  C11 UNL     1      23.334   6.867  51.068  1.00  0.00    -0.005 A 
HETATM   15  C12 UNL     1      23.616   5.656  51.842  1.00  0.00     0.156 A 
ENDBRANCH   7   9
BRANCH   8  16
HETATM   16  C14 UNL     1      25.822   3.206  51.088  1.00  0.00     0.009 C 
BRANCH  16  17
HETATM   17  C15 UNL     1      26.380   3.399  49.759  1.00  0.00     0.151 C 
BRANCH  17  18
HETATM   18  N4  UNL     1      26.387   4.788  49.301  1.00  0.00    -0.347 N 
HETATM   19  C16 UNL     1      27.515   5.354  48.642  1.00  0.00     0.296 C 
HETATM   20  O1  UNL     1      28.547   4.633  48.446  1.00  0.00    -0.258 OA
HETATM   21  H12 UNL     1      25.616   5.500  49.388  1.00  0.00     0.163 HD
BRANCH  19  22
HETATM   22  C17 UNL     1      27.573   6.714  48.171  1.00  0.00    -0.004 C 
HETATM   23  C18 UNL     1      27.618   7.849  47.756  1.00  0.00    -0.066 C 
BRANCH  23  24
HETATM   24  C19 UNL     1      27.677   9.215  47.238  1.00  0.00     0.369 C 
BRANCH  24  25
HETATM   25  N5  UNL     1      28.533  10.058  48.044  1.00  0.00     0.124 N 
HETATM   26  C20 UNL     1      28.488  11.432  47.589  1.00  0.00     0.302 C 
HETATM   27  C21 UNL     1      27.201  11.940  48.163  1.00  0.00     0.200 C 
HETATM   28  O2  UNL     1      26.746  10.925  49.024  1.00  0.00    -0.361 OA
HETATM   29  C22 UNL     1      27.884  10.184  49.348  1.00  0.00     0.441 C 
ENDBRANCH  24  25
ENDBRANCH  23  24
ENDBRANCH  19  22
ENDBRANCH  17  18
ENDBRANCH  16  17
ENDBRANCH   8  16
BRANCH   1  30
HETATM   30  C2  UNL     1      25.915   0.668  52.202  1.00  0.00    -0.123 C 
HETATM   31  C1  UNL     1      26.866  -0.234  52.202  1.00  0.00     0.099 C 
ENDBRANCH   1  30
TORSDOF 8
ENDMDL
MODEL 9
REMARK VINA RESULT:      -7.4      4.910      9.832
REMARK  8 active torsions:
REMARK  status: ('A' for Active; 'I' for Inactive)
REMARK    1  A    between atoms: C2_2  and  C3_3 
REMARK    2  A    between atoms: C7_9  and  N3_10 
REMARK    3  A    between atoms: C13_17  and  C14_18 
REMARK    4  A    between atoms: C14_18  and  C15_19 
REMARK    5  A    between atoms: C15_19  and  N4_20 
REMARK       I    between atoms: N4_20  and  C16_21 
REMARK    6  A    between atoms: C16_21  and  C17_23 
REMARK    7  A    between atoms: C18_24  and  C19_25 
REMARK    8  A    between atoms: C19_25  and  N5_26 
ROOT
HETATM    1  C3  UNL     1      26.180   1.502  52.153  1.00  0.00     0.109 A 
HETATM    2  N1  UNL     1      27.037   2.118  51.366  1.00  0.00    -0.250 NA
HETATM    3  C4  UNL     1      26.557   3.067  50.543  1.00  0.00     0.143 A 
HETATM    4  C5  UNL     1      25.217   3.369  50.537  1.00  0.00     0.089 A 
HETATM    5  C6  UNL     1      24.733   4.384  49.649  1.00  0.00     0.103 C 
HETATM    6  N2  UNL     1      24.348   5.214  48.943  1.00  0.00    -0.191 NA
HETATM    7  C7  UNL     1      24.396   2.674  51.391  1.00  0.00     0.070 A 
HETATM    8  C13 UNL     1      24.851   1.675  52.269  1.00  0.00     0.027 A 
ENDROOT
BRANCH   7   9
HETATM    9  N3  UNL     1      23.017   3.061  51.308  1.00  0.00    -0.350 N 
HETATM   10  C8  UNL     1      22.231   2.623  50.196  1.00  0.00     0.110 A 
HETATM   11  C9  UNL     1      20.967   2.912  49.996  1.00  0.00     0.026 A 
HETATM   12 BR1  UNL     1      20.028   2.269  48.473  1.00  0.00    -0.050 Br
HETATM   13  C10 UNL     1      20.284   3.737  50.969  1.00  0.00     0.018 A 
HETATM   14  C11 UNL     1      20.996   4.137  51.988  1.00  0.00    -0.005 A 
HETATM   15  C12 UNL     1      22.401   3.875  52.307  1.00  0.00     0.156 A 
ENDBRANCH   7   9
BRANCH   8  16
HETATM   16  C14 UNL     1      23.955   1.101  53.027  1.00  0.00     0.009 C 
BRANCH  16  17
HETATM   17  C15 UNL     1      23.258  -0.175  53.053  1.00  0.00     0.151 C 
BRANCH  17  18
HETATM   18  N4  UNL     1      22.029  -0.209  52.259  1.00  0.00    -0.347 N 
HETATM   19  C16 UNL     1      20.777   0.203  52.798  1.00  0.00     0.296 C 
HETATM   20  O1  UNL     1      20.723   0.611  54.003  1.00  0.00    -0.258 OA
HETATM   21  H12 UNL     1      21.916  -0.515  51.258  1.00  0.00     0.163 HD
BRANCH  19  22
HETATM   22  C17 UNL     1      19.541   0.190  52.059  1.00  0.00    -0.004 C 
HETATM   23  C18 UNL     1      18.511   0.194  51.426  1.00  0.00    -0.066 C 
BRANCH  23  24
HETATM   24  C19 UNL     1      17.270   0.214  50.652  1.00  0.00     0.369 C 
BRANCH  24  25
HETATM   25  N5  UNL     1      16.888   1.560  50.286  1.00  0.00     0.124 N 
HETATM   26  C20 UNL     1      15.699   1.557  49.459  1.00  0.00     0.302 C 
HETATM   27  C21 UNL     1      14.594   1.358  50.450  1.00  0.00     0.200 C 
HETATM   28  O2  UNL     1      15.199   1.463  51.715  1.00  0.00    -0.361 OA
HETATM   29  C22 UNL     1      16.371   2.191  51.499  1.00  0.00     0.441 C 
ENDBRANCH  24  25
ENDBRANCH  23  24
ENDBRANCH  19  22
ENDBRANCH  17  18
ENDBRANCH  16  17
ENDBRANCH   8  16
BRANCH   1  30
HETATM   30  C2  UNL     1      26.676   0.568  52.955  1.00  0.00    -0.123 C 
HETATM   31  C1  UNL     1      27.354  -0.417  53.490  1.00  0.00     0.099 C 
ENDBRANCH   1  30
TORSDOF 8
ENDMDL
