MODEL 1
REMARK VINA RESULT:      -7.9      0.000      0.000
REMARK  4 active torsions:
REMARK  status: ('A' for Active; 'I' for Inactive)
REMARK    1  A    between atoms: O1_2  and  C2_3 
REMARK    2  A    between atoms: C5_6  and  N1_7 
REMARK    3  A    between atoms: N1_7  and  C6_8 
REMARK    4  A    between atoms: C16_20  and  O2_21 
ROOT
HETATM    1  C2  UNL     1      26.573   1.497  52.294  1.00  0.00     0.102 A 
HETATM    2  C3  UNL     1      25.267   1.394  52.124  1.00  0.00     0.054 A 
HETATM    3  C4  UNL     1      24.601   0.528  53.075  1.00  0.00     0.012 A 
HETATM    4  C5  UNL     1      23.305   0.308  53.053  1.00  0.00     0.102 C 
HETATM    5  C13 UNL     1      25.277  -0.185  54.141  1.00  0.00     0.083 A 
HETATM    6  N2  UNL     1      24.939  -0.970  55.061  1.00  0.00    -0.173 NA
HETATM    7  C14 UNL     1      23.652  -1.396  55.304  1.00  0.00     0.206 C 
HETATM    8  N3  UNL     1      22.554  -1.765  55.532  1.00  0.00    -0.170 NA
HETATM    9  C15 UNL     1      26.743   0.035  54.200  1.00  0.00     0.073 A 
HETATM   10  C16 UNL     1      27.355   0.834  53.324  1.00  0.00     0.103 A 
ENDROOT
BRANCH   4  11
HETATM   11  N1  UNL     1      22.638   1.003  52.010  1.00  0.00    -0.365 N 
HETATM   12  H6  UNL     1      23.099   1.728  51.412  1.00  0.00     0.165 HD
BRANCH  11  13
HETATM   13  C6  UNL     1      21.252   0.756  51.686  1.00  0.00     0.032 A 
HETATM   14  C7  UNL     1      20.650   1.254  50.550  1.00  0.00     0.029 A 
HETATM   15  C8  UNL     1      19.306   0.958  50.331  1.00  0.00     0.003 A 
HETATM   16  C9  UNL     1      18.585   0.187  51.219  1.00  0.00     0.007 A 
HETATM   17  C10 UNL     1      19.197  -0.312  52.362  1.00  0.00    -0.060 A 
HETATM   18  C11 UNL     1      18.416  -1.147  53.320  1.00  0.00     0.048 C 
HETATM   19  C12 UNL     1      20.541  -0.023  52.592  1.00  0.00     0.036 A 
ENDBRANCH  11  13
ENDBRANCH   4  11
BRANCH  10  20
HETATM   20  O2  UNL     1      28.698   1.103  53.291  1.00  0.00    -0.353 OA
HETATM   21  C17 UNL     1      29.715   0.166  53.625  1.00  0.00     0.210 C 
ENDBRANCH  10  20
BRANCH   1  22
HETATM   22  O1  UNL     1      27.155   2.353  51.337  1.00  0.00    -0.353 OA
HETATM   23  C1  UNL     1      26.361   3.037  50.408  1.00  0.00     0.210 C 
ENDBRANCH   1  22
TORSDOF 4
ENDMDL
MODEL 2
REMARK VINA RESULT:      -7.7      2.418      6.519
REMARK  4 active torsions:
REMARK  status: ('A' for Active; 'I' for Inactive)
REMARK    1  A    between atoms: O1_2  and  C2_3 
REMARK    2  A    between atoms: C5_6  and  N1_7 
REMARK    3  A    between atoms: N1_7  and  C6_8 
REMARK    4  A    between atoms: C16_20  and  O2_21 
ROOT
HETATM    1  C2  UNL     1      22.661   1.629  50.508  1.00  0.00     0.102 A 
HETATM    2  C3  UNL     1      23.663   1.604  51.370  1.00  0.00     0.054 A 
HETATM    3  C4  UNL     1      23.455   0.738  52.512  1.00  0.00     0.012 A 
HETATM    4  C5  UNL     1      24.345   0.592  53.469  1.00  0.00     0.102 C 
HETATM    5  C13 UNL     1      22.259  -0.054  52.728  1.00  0.00     0.083 A 
HETATM    6  N2  UNL     1      21.850  -0.852  53.606  1.00  0.00    -0.173 NA
HETATM    7  C14 UNL     1      22.550  -1.214  54.735  1.00  0.00     0.206 C 
HETATM    8  N3  UNL     1      23.139  -1.542  55.704  1.00  0.00    -0.170 NA
HETATM    9  C15 UNL     1      21.228   0.083  51.671  1.00  0.00     0.073 A 
HETATM   10  C16 UNL     1      21.421   0.881  50.619  1.00  0.00     0.103 A 
ENDROOT
BRANCH   4  11
HETATM   11  N1  UNL     1      25.517   1.366  53.263  1.00  0.00    -0.365 N 
HETATM   12  H6  UNL     1      25.502   2.380  53.002  1.00  0.00     0.165 HD
BRANCH  11  13
HETATM   13  C6  UNL     1      26.842   0.808  53.404  1.00  0.00     0.032 A 
HETATM   14  C7  UNL     1      27.931   1.557  53.796  1.00  0.00     0.029 A 
HETATM   15  C8  UNL     1      29.166   0.920  53.901  1.00  0.00     0.003 A 
HETATM   16  C9  UNL     1      29.310  -0.423  53.624  1.00  0.00     0.007 A 
HETATM   17  C10 UNL     1      28.208  -1.173  53.230  1.00  0.00    -0.060 A 
HETATM   18  C11 UNL     1      28.365  -2.626  52.933  1.00  0.00     0.048 C 
HETATM   19  C12 UNL     1      26.967  -0.548  53.121  1.00  0.00     0.036 A 
ENDBRANCH  11  13
ENDBRANCH   4  11
BRANCH  10  20
HETATM   20  O2  UNL     1      20.535   1.077  49.592  1.00  0.00    -0.353 OA
HETATM   21  C17 UNL     1      19.208   1.560  49.756  1.00  0.00     0.210 C 
ENDBRANCH  10  20
BRANCH   1  22
HETATM   22  O1  UNL     1      22.931   2.489  49.425  1.00  0.00    -0.353 OA
HETATM   23  C1  UNL     1      23.090   3.867  49.623  1.00  0.00     0.210 C 
ENDBRANCH   1  22
TORSDOF 4
ENDMDL
MODEL 3
REMARK VINA RESULT:      -7.7      3.220      6.846
REMARK  4 active torsions:
REMARK  status: ('A' for Active; 'I' for Inactive)
REMARK    1  A    between atoms: O1_2  and  C2_3 
REMARK    2  A    between atoms: C5_6  and  N1_7 
REMARK    3  A    between atoms: N1_7  and  C6_8 
REMARK    4  A    between atoms: C16_20  and  O2_21 
ROOT
HETATM    1  C2  UNL     1      22.784   0.871  51.823  1.00  0.00     0.102 A 
HETATM    2  C3  UNL     1      23.545   1.679  51.105  1.00  0.00     0.054 A 
HETATM    3  C4  UNL     1      24.887   1.861  51.621  1.00  0.00     0.012 A 
HETATM    4  C5  UNL     1      25.777   2.631  51.036  1.00  0.00     0.102 C 
HETATM    5  C13 UNL     1      25.392   1.225  52.822  1.00  0.00     0.083 A 
HETATM    6  N2  UNL     1      26.476   1.221  53.456  1.00  0.00    -0.173 NA
HETATM    7  C14 UNL     1      27.603   1.928  53.100  1.00  0.00     0.206 C 
HETATM    8  N3  UNL     1      28.580   2.520  52.806  1.00  0.00    -0.170 NA
HETATM    9  C15 UNL     1      24.417   0.347  53.514  1.00  0.00     0.073 A 
HETATM   10  C16 UNL     1      23.181   0.180  53.038  1.00  0.00     0.103 A 
ENDROOT
BRANCH   4  11
HETATM   11  N1  UNL     1      25.287   3.257  49.860  1.00  0.00    -0.365 N 
HETATM   12  H6  UNL     1      24.477   2.893  49.305  1.00  0.00     0.165 HD
BRANCH  11  13
HETATM   13  C6  UNL     1      25.874   4.467  49.331  1.00  0.00     0.032 A 
HETATM   14  C7  UNL     1      25.155   5.630  49.151  1.00  0.00     0.029 A 
HETATM   15  C8  UNL     1      25.818   6.741  48.633  1.00  0.00     0.003 A 
HETATM   16  C9  UNL     1      27.156   6.694  48.307  1.00  0.00     0.007 A 
HETATM   17  C10 UNL     1      27.876   5.520  48.491  1.00  0.00    -0.060 A 
HETATM   18  C11 UNL     1      29.324   5.471  48.140  1.00  0.00     0.048 C 
HETATM   19  C12 UNL     1      27.225   4.401  49.008  1.00  0.00     0.036 A 
ENDBRANCH  11  13
ENDBRANCH   4  11
BRANCH  10  20
HETATM   20  O2  UNL     1      22.208  -0.605  53.599  1.00  0.00    -0.353 OA
HETATM   21  C17 UNL     1      22.312  -1.226  54.874  1.00  0.00     0.210 C 
ENDBRANCH  10  20
BRANCH   1  22
HETATM   22  O1  UNL     1      21.497   0.740  51.266  1.00  0.00    -0.353 OA
HETATM   23  C1  UNL     1      21.284   0.929  49.894  1.00  0.00     0.210 C 
ENDBRANCH   1  22
TORSDOF 4
ENDMDL
MODEL 4
REMARK VINA RESULT:      -7.6      1.937      3.646
REMARK  4 active torsions:
REMARK  status: ('A' for Active; 'I' for Inactive)
REMARK    1  A    between atoms: O1_2  and  C2_3 
REMARK    2  A    between atoms: C5_6  and  N1_7 
REMARK    3  A    between atoms: N1_7  and  C6_8 
REMARK    4  A    between atoms: C16_20  and  O2_21 
ROOT
HETATM    1  C2  UNL     1      26.122   0.007  54.189  1.00  0.00     0.102 A 
HETATM    2  C3  UNL     1      25.048   0.599  53.697  1.00  0.00     0.054 A 
HETATM    3  C4  UNL     1      25.315   1.537  52.625  1.00  0.00     0.012 A 
HETATM    4  C5  UNL     1      24.366   2.217  52.020  1.00  0.00     0.102 C 
HETATM    5  C13 UNL     1      26.637   1.830  52.108  1.00  0.00     0.083 A 
HETATM    6  N2  UNL     1      27.116   2.577  51.219  1.00  0.00    -0.173 NA
HETATM    7  C14 UNL     1      26.381   3.414  50.409  1.00  0.00     0.206 C 
HETATM    8  N3  UNL     1      25.767   4.131  49.701  1.00  0.00    -0.170 NA
HETATM    9  C15 UNL     1      27.738   1.084  52.765  1.00  0.00     0.073 A 
HETATM   10  C16 UNL     1      27.491   0.220  53.751  1.00  0.00     0.103 A 
ENDROOT
BRANCH   4  11
HETATM   11  N1  UNL     1      23.069   1.935  52.524  1.00  0.00    -0.365 N 
HETATM   12  H6  UNL     1      22.803   2.044  53.531  1.00  0.00     0.165 HD
BRANCH  11  13
HETATM   13  C6  UNL     1      21.997   1.472  51.673  1.00  0.00     0.032 A 
HETATM   14  C7  UNL     1      22.022   1.605  50.301  1.00  0.00     0.029 A 
HETATM   15  C8  UNL     1      20.935   1.125  49.572  1.00  0.00     0.003 A 
HETATM   16  C9  UNL     1      19.858   0.530  50.193  1.00  0.00     0.007 A 
HETATM   17  C10 UNL     1      19.839   0.398  51.576  1.00  0.00    -0.060 A 
HETATM   18  C11 UNL     1      18.673  -0.248  52.246  1.00  0.00     0.048 C 
HETATM   19  C12 UNL     1      20.920   0.874  52.317  1.00  0.00     0.036 A 
ENDBRANCH  11  13
ENDBRANCH   4  11
BRANCH  10  20
HETATM   20  O2  UNL     1      28.432  -0.517  54.422  1.00  0.00    -0.353 OA
HETATM   21  C17 UNL     1      29.701  -0.877  53.890  1.00  0.00     0.210 C 
ENDBRANCH  10  20
BRANCH   1  22
HETATM   22  O1  UNL     1      25.791  -0.890  55.224  1.00  0.00    -0.353 OA
HETATM   23  C1  UNL     1      24.459  -1.255  55.460  1.00  0.00     0.210 C 
ENDBRANCH   1  22
TORSDOF 4
ENDMDL
MODEL 5
REMARK VINA RESULT:      -7.6      2.377      6.464
REMARK  4 active torsions:
REMARK  status: ('A' for Active; 'I' for Inactive)
REMARK    1  A    between atoms: O1_2  and  C2_3 
REMARK    2  A    between atoms: C5_6  and  N1_7 
REMARK    3  A    between atoms: N1_7  and  C6_8 
REMARK    4  A    between atoms: C16_20  and  O2_21 
ROOT
HETATM    1  C2  UNL     1      23.221   2.185  50.671  1.00  0.00     0.102 A 
HETATM    2  C3  UNL     1      24.081   1.701  51.550  1.00  0.00     0.054 A 
HETATM    3  C4  UNL     1      23.508   0.779  52.509  1.00  0.00     0.012 A 
HETATM    4  C5  UNL     1      24.216   0.203  53.456  1.00  0.00     0.102 C 
HETATM    5  C13 UNL     1      22.110   0.393  52.535  1.00  0.00     0.083 A 
HETATM    6  N2  UNL     1      21.393  -0.359  53.239  1.00  0.00    -0.173 NA
HETATM    7  C14 UNL     1      21.838  -1.103  54.309  1.00  0.00     0.206 C 
HETATM    8  N3  UNL     1      22.203  -1.753  55.224  1.00  0.00    -0.170 NA
HETATM    9  C15 UNL     1      21.276   1.022  51.483  1.00  0.00     0.073 A 
HETATM   10  C16 UNL     1      21.805   1.871  50.600  1.00  0.00     0.103 A 
ENDROOT
BRANCH   4  11
HETATM   11  N1  UNL     1      25.585   0.579  53.436  1.00  0.00    -0.365 N 
HETATM   12  H6  UNL     1      25.916   1.564  53.559  1.00  0.00     0.165 HD
BRANCH  11  13
HETATM   13  C6  UNL     1      26.644  -0.386  53.245  1.00  0.00     0.032 A 
HETATM   14  C7  UNL     1      26.418  -1.660  52.770  1.00  0.00     0.029 A 
HETATM   15  C8  UNL     1      27.510  -2.513  52.624  1.00  0.00     0.003 A 
HETATM   16  C9  UNL     1      28.789  -2.106  52.940  1.00  0.00     0.007 A 
HETATM   17  C10 UNL     1      29.011  -0.820  53.418  1.00  0.00    -0.060 A 
HETATM   18  C11 UNL     1      30.395  -0.381  53.759  1.00  0.00     0.048 C 
HETATM   19  C12 UNL     1      27.926   0.042  53.569  1.00  0.00     0.036 A 
ENDBRANCH  11  13
ENDBRANCH   4  11
BRANCH  10  20
HETATM   20  O2  UNL     1      21.124   2.504  49.593  1.00  0.00    -0.353 OA
HETATM   21  C17 UNL     1      20.801   1.909  48.342  1.00  0.00     0.210 C 
ENDBRANCH  10  20
BRANCH   1  22
HETATM   22  O1  UNL     1      23.845   3.073  49.771  1.00  0.00    -0.353 OA
HETATM   23  C1  UNL     1      24.126   4.394  50.143  1.00  0.00     0.210 C 
ENDBRANCH   1  22
TORSDOF 4
ENDMDL
MODEL 6
REMARK VINA RESULT:      -7.6      2.809      7.327
REMARK  4 active torsions:
REMARK  status: ('A' for Active; 'I' for Inactive)
REMARK    1  A    between atoms: O1_2  and  C2_3 
REMARK    2  A    between atoms: C5_6  and  N1_7 
REMARK    3  A    between atoms: N1_7  and  C6_8 
REMARK    4  A    between atoms: C16_20  and  O2_21 
ROOT
HETATM    1  C2  UNL     1      22.227   0.150  52.920  1.00  0.00     0.102 A 
HETATM    2  C3  UNL     1      23.444   0.568  53.223  1.00  0.00     0.054 A 
HETATM    3  C4  UNL     1      24.034   1.463  52.249  1.00  0.00     0.012 A 
HETATM    4  C5  UNL     1      25.237   1.975  52.388  1.00  0.00     0.102 C 
HETATM    5  C13 UNL     1      23.377   1.889  51.029  1.00  0.00     0.083 A 
HETATM    6  N2  UNL     1      23.666   2.631  50.058  1.00  0.00    -0.173 NA
HETATM    7  C14 UNL     1      24.853   3.312  49.908  1.00  0.00     0.206 C 
HETATM    8  N3  UNL     1      25.861   3.909  49.766  1.00  0.00    -0.170 NA
HETATM    9  C15 UNL     1      22.016   1.333  50.834  1.00  0.00     0.073 A 
HETATM   10  C16 UNL     1      21.473   0.510  51.731  1.00  0.00     0.103 A 
ENDROOT
BRANCH   4  11
HETATM   11  N1  UNL     1      25.886   1.559  53.581  1.00  0.00    -0.365 N 
HETATM   12  H6  UNL     1      25.489   1.708  54.538  1.00  0.00     0.165 HD
BRANCH  11  13
HETATM   13  C6  UNL     1      27.163   0.883  53.566  1.00  0.00     0.032 A 
HETATM   14  C7  UNL     1      28.353   1.527  53.835  1.00  0.00     0.029 A 
HETATM   15  C8  UNL     1      29.530   0.782  53.793  1.00  0.00     0.003 A 
HETATM   16  C9  UNL     1      29.520  -0.564  53.493  1.00  0.00     0.007 A 
HETATM   17  C10 UNL     1      28.318  -1.207  53.223  1.00  0.00    -0.060 A 
HETATM   18  C11 UNL     1      28.310  -2.663  52.901  1.00  0.00     0.048 C 
HETATM   19  C12 UNL     1      27.134  -0.473  53.262  1.00  0.00     0.036 A 
ENDBRANCH  11  13
ENDBRANCH   4  11
BRANCH  10  20
HETATM   20  O2  UNL     1      20.228  -0.057  51.646  1.00  0.00    -0.353 OA
HETATM   21  C17 UNL     1      19.036   0.661  51.350  1.00  0.00     0.210 C 
ENDBRANCH  10  20
BRANCH   1  22
HETATM   22  O1  UNL     1      21.715  -0.715  53.907  1.00  0.00    -0.353 OA
HETATM   23  C1  UNL     1      22.535  -1.200  54.934  1.00  0.00     0.210 C 
ENDBRANCH   1  22
TORSDOF 4
ENDMDL
MODEL 7
REMARK VINA RESULT:      -7.4      1.199      2.264
REMARK  4 active torsions:
REMARK  status: ('A' for Active; 'I' for Inactive)
REMARK    1  A    between atoms: O1_2  and  C2_3 
REMARK    2  A    between atoms: C5_6  and  N1_7 
REMARK    3  A    between atoms: N1_7  and  C6_8 
REMARK    4  A    between atoms: C16_20  and  O2_21 
ROOT
HETATM    1  C2  UNL     1      26.626   1.630  52.426  1.00  0.00     0.102 A 
HETATM    2  C3  UNL     1      25.319   1.828  52.410  1.00  0.00     0.054 A 
HETATM    3  C4  UNL     1      24.559   0.905  53.228  1.00  0.00     0.012 A 
HETATM    4  C5  UNL     1      23.249   0.954  53.329  1.00  0.00     0.102 C 
HETATM    5  C13 UNL     1      25.147  -0.162  54.015  1.00  0.00     0.083 A 
HETATM    6  N2  UNL     1      24.721  -1.063  54.778  1.00  0.00    -0.173 NA
HETATM    7  C14 UNL     1      23.396  -1.276  55.088  1.00  0.00     0.206 C 
HETATM    8  N3  UNL     1      22.267  -1.468  55.372  1.00  0.00    -0.170 NA
HETATM    9  C15 UNL     1      26.625  -0.252  53.928  1.00  0.00     0.073 A 
HETATM   10  C16 UNL     1      27.324   0.599  53.174  1.00  0.00     0.103 A 
ENDROOT
BRANCH   4  11
HETATM   11  N1  UNL     1      22.669   1.995  52.559  1.00  0.00    -0.365 N 
HETATM   12  H6  UNL     1      22.762   3.011  52.796  1.00  0.00     0.165 HD
BRANCH  11  13
HETATM   13  C6  UNL     1      21.895   1.731  51.367  1.00  0.00     0.032 A 
HETATM   14  C7  UNL     1      20.611   1.233  51.405  1.00  0.00     0.029 A 
HETATM   15  C8  UNL     1      19.953   1.013  50.196  1.00  0.00     0.003 A 
HETATM   16  C9  UNL     1      20.558   1.282  48.987  1.00  0.00     0.007 A 
HETATM   17  C10 UNL     1      21.853   1.784  48.955  1.00  0.00    -0.060 A 
HETATM   18  C11 UNL     1      22.506   2.077  47.647  1.00  0.00     0.048 C 
HETATM   19  C12 UNL     1      22.522   2.009  50.158  1.00  0.00     0.036 A 
ENDBRANCH  11  13
ENDBRANCH   4  11
BRANCH  10  20
HETATM   20  O2  UNL     1      28.687   0.601  53.026  1.00  0.00    -0.353 OA
HETATM   21  C17 UNL     1      29.581  -0.190  53.797  1.00  0.00     0.210 C 
ENDBRANCH  10  20
BRANCH   1  22
HETATM   22  O1  UNL     1      27.301   2.561  51.611  1.00  0.00    -0.353 OA
HETATM   23  C1  UNL     1      26.652   3.178  50.534  1.00  0.00     0.210 C 
ENDBRANCH   1  22
TORSDOF 4
ENDMDL
MODEL 8
REMARK VINA RESULT:      -7.3      2.903      6.867
REMARK  4 active torsions:
REMARK  status: ('A' for Active; 'I' for Inactive)
REMARK    1  A    between atoms: O1_2  and  C2_3 
REMARK    2  A    between atoms: C5_6  and  N1_7 
REMARK    3  A    between atoms: N1_7  and  C6_8 
REMARK    4  A    between atoms: C16_20  and  O2_21 
ROOT
HETATM    1  C2  UNL     1      24.505   0.391  52.949  1.00  0.00     0.102 A 
HETATM    2  C3  UNL     1      24.850   1.253  52.008  1.00  0.00     0.054 A 
HETATM    3  C4  UNL     1      23.745   1.998  51.439  1.00  0.00     0.012 A 
HETATM    4  C5  UNL     1      23.904   2.895  50.492  1.00  0.00     0.102 C 
HETATM    5  C13 UNL     1      22.361   1.839  51.841  1.00  0.00     0.083 A 
HETATM    6  N2  UNL     1      21.260   2.345  51.512  1.00  0.00    -0.173 NA
HETATM    7  C14 UNL     1      21.091   3.315  50.548  1.00  0.00     0.206 C 
HETATM    8  N3  UNL     1      20.928   4.150  49.731  1.00  0.00    -0.170 NA
HETATM    9  C15 UNL     1      22.139   0.833  52.908  1.00  0.00     0.073 A 
HETATM   10  C16 UNL     1      23.156   0.149  53.432  1.00  0.00     0.103 A 
ENDROOT
BRANCH   4  11
HETATM   11  N1  UNL     1      25.257   3.053  50.093  1.00  0.00    -0.365 N 
HETATM   12  H6  UNL     1      25.983   2.306  50.201  1.00  0.00     0.165 HD
BRANCH  11  13
HETATM   13  C6  UNL     1      25.744   4.274  49.493  1.00  0.00     0.032 A 
HETATM   14  C7  UNL     1      24.943   5.377  49.286  1.00  0.00     0.029 A 
HETATM   15  C8  UNL     1      25.513   6.505  48.699  1.00  0.00     0.003 A 
HETATM   16  C9  UNL     1      26.841   6.532  48.330  1.00  0.00     0.007 A 
HETATM   17  C10 UNL     1      27.644   5.417  48.541  1.00  0.00    -0.060 A 
HETATM   18  C11 UNL     1      29.081   5.449  48.143  1.00  0.00     0.048 C 
HETATM   19  C12 UNL     1      27.086   4.282  49.128  1.00  0.00     0.036 A 
ENDBRANCH  11  13
ENDBRANCH   4  11
BRANCH  10  20
HETATM   20  O2  UNL     1      23.059  -0.799  54.418  1.00  0.00    -0.353 OA
HETATM   21  C17 UNL     1      21.926  -1.634  54.621  1.00  0.00     0.210 C 
ENDBRANCH  10  20
BRANCH   1  22
HETATM   22  O1  UNL     1      25.625  -0.297  53.457  1.00  0.00    -0.353 OA
HETATM   23  C1  UNL     1      26.478   0.309  54.389  1.00  0.00     0.210 C 
ENDBRANCH   1  22
TORSDOF 4
ENDMDL
MODEL 9
REMARK VINA RESULT:      -7.3      3.090      7.492
REMARK  4 active torsions:
REMARK  status: ('A' for Active; 'I' for Inactive)
REMARK    1  A    between atoms: O1_2  and  C2_3 
REMARK    2  A    between atoms: C5_6  and  N1_7 
REMARK    3  A    between atoms: N1_7  and  C6_8 
REMARK    4  A    between atoms: C16_20  and  O2_21 
ROOT
HETATM    1  C2  UNL     1      21.860   1.173  52.837  1.00  0.00     0.102 A 
HETATM    2  C3  UNL     1      23.093   0.710  52.733  1.00  0.00     0.054 A 
HETATM    3  C4  UNL     1      24.009   1.587  52.031  1.00  0.00     0.012 A 
HETATM    4  C5  UNL     1      25.274   1.286  51.834  1.00  0.00     0.102 C 
HETATM    5  C13 UNL     1      23.641   2.874  51.475  1.00  0.00     0.083 A 
HETATM    6  N2  UNL     1      24.227   3.788  50.843  1.00  0.00    -0.173 NA
HETATM    7  C14 UNL     1      25.556   3.773  50.482  1.00  0.00     0.206 C 
HETATM    8  N3  UNL     1      26.694   3.780  50.170  1.00  0.00    -0.170 NA
HETATM    9  C15 UNL     1      22.220   3.251  51.675  1.00  0.00     0.073 A 
HETATM   10  C16 UNL     1      21.378   2.444  52.322  1.00  0.00     0.103 A 
ENDROOT
BRANCH   4  11
HETATM   11  N1  UNL     1      25.639   0.026  52.375  1.00  0.00    -0.365 N 
HETATM   12  H6  UNL     1      24.981  -0.785  52.448  1.00  0.00     0.165 HD
BRANCH  11  13
HETATM   13  C6  UNL     1      26.970  -0.242  52.871  1.00  0.00     0.032 A 
HETATM   14  C7  UNL     1      27.553  -1.489  52.810  1.00  0.00     0.029 A 
HETATM   15  C8  UNL     1      28.842  -1.639  53.317  1.00  0.00     0.003 A 
HETATM   16  C9  UNL     1      29.528  -0.577  53.868  1.00  0.00     0.007 A 
HETATM   17  C10 UNL     1      28.934   0.678  53.927  1.00  0.00    -0.060 A 
HETATM   18  C11 UNL     1      29.678   1.825  54.521  1.00  0.00     0.048 C 
HETATM   19  C12 UNL     1      27.645   0.841  53.422  1.00  0.00     0.036 A 
ENDBRANCH  11  13
ENDBRANCH   4  11
BRANCH  10  20
HETATM   20  O2  UNL     1      20.052   2.696  52.559  1.00  0.00    -0.353 OA
HETATM   21  C17 UNL     1      19.023   2.568  51.587  1.00  0.00     0.210 C 
ENDBRANCH  10  20
BRANCH   1  22
HETATM   22  O1  UNL     1      21.025   0.273  53.528  1.00  0.00    -0.353 OA
HETATM   23  C1  UNL     1      21.218   0.016  54.892  1.00  0.00     0.210 C 
ENDBRANCH   1  22
TORSDOF 4
ENDMDL
