MODEL 1
REMARK VINA RESULT:      -7.8      0.000      0.000
REMARK  5 active torsions:
REMARK  status: ('A' for Active; 'I' for Inactive)
REMARK    1  A    between atoms: O1_2  and  C2_3 
REMARK    2  A    between atoms: C6_9  and  N3_10 
REMARK    3  A    between atoms: N3_10  and  S1_12 
REMARK    4  A    between atoms: S1_12  and  C8_13 
REMARK    5  A    between atoms: C16_21  and  O2_22 
ROOT
HETATM    1  C2  UNL     1      27.046  -0.276  53.611  1.00  0.00     0.103 A 
HETATM    2  C3  UNL     1      25.814  -0.863  53.803  1.00  0.00     0.072 A 
HETATM    3  C4  UNL     1      24.645  -0.308  53.336  1.00  0.00     0.075 A 
HETATM    4  N1  UNL     1      23.414  -0.820  53.486  1.00  0.00    -0.241 NA
HETATM    5  C5  UNL     1      22.318  -0.218  52.998  1.00  0.00     0.236 A 
HETATM    6  N2  UNL     1      22.398   0.940  52.330  1.00  0.00    -0.223 NA
HETATM    7  C6  UNL     1      23.581   1.539  52.125  1.00  0.00     0.149 A 
HETATM    8  C14 UNL     1      24.668   0.879  52.644  1.00  0.00     0.042 A 
HETATM    9  C15 UNL     1      25.890   1.477  52.444  1.00  0.00     0.057 A 
HETATM   10  C16 UNL     1      27.053   0.913  52.916  1.00  0.00     0.102 A 
ENDROOT
BRANCH   7  11
HETATM   11  N3  UNL     1      23.539   2.761  51.405  1.00  0.00    -0.305 N 
HETATM   12  C7  UNL     1      23.591   4.026  52.143  1.00  0.00     0.167 C 
BRANCH  11  13
HETATM   13  S1  UNL     1      23.434   3.325  49.746  1.00  0.00    -0.011 SA
BRANCH  13  14
HETATM   14  C8  UNL     1      24.891   4.230  49.327  1.00  0.00     0.021 A 
HETATM   15  C9  UNL     1      24.761   5.542  48.923  1.00  0.00     0.020 A 
HETATM   16  C10 UNL     1      25.897   6.275  48.587  1.00  0.00     0.001 A 
HETATM   17  C11 UNL     1      27.157   5.712  48.650  1.00  0.00     0.000 A 
HETATM   18  C12 UNL     1      27.309   4.409  49.048  1.00  0.00     0.001 A 
HETATM   19  C13 UNL     1      26.165   3.707  49.375  1.00  0.00     0.020 A 
ENDBRANCH  13  14
ENDBRANCH  11  13
ENDBRANCH   7  11
BRANCH  10  20
HETATM   20  O2  UNL     1      28.296   1.514  52.716  1.00  0.00    -0.353 OA
HETATM   21  C17 UNL     1      28.710   2.500  53.659  1.00  0.00     0.210 C 
ENDBRANCH  10  20
BRANCH   1  22
HETATM   22  O1  UNL     1      28.215  -0.825  54.075  1.00  0.00    -0.353 OA
HETATM   23  C1  UNL     1      29.067  -1.644  53.340  1.00  0.00     0.210 C 
ENDBRANCH   1  22
TORSDOF 5
ENDMDL
MODEL 2
REMARK VINA RESULT:      -7.6      4.147      6.428
REMARK  5 active torsions:
REMARK  status: ('A' for Active; 'I' for Inactive)
REMARK    1  A    between atoms: O1_2  and  C2_3 
REMARK    2  A    between atoms: C6_9  and  N3_10 
REMARK    3  A    between atoms: N3_10  and  S1_12 
REMARK    4  A    between atoms: S1_12  and  C8_13 
REMARK    5  A    between atoms: C16_21  and  O2_22 
ROOT
HETATM    1  C2  UNL     1      19.896  -0.399  52.865  1.00  0.00     0.103 A 
HETATM    2  C3  UNL     1      20.408  -1.097  53.938  1.00  0.00     0.072 A 
HETATM    3  C4  UNL     1      21.733  -1.029  54.305  1.00  0.00     0.075 A 
HETATM    4  N1  UNL     1      22.299  -1.677  55.333  1.00  0.00    -0.241 NA
HETATM    5  C5  UNL     1      23.604  -1.559  55.630  1.00  0.00     0.236 A 
HETATM    6  N2  UNL     1      24.415  -0.778  54.905  1.00  0.00    -0.223 NA
HETATM    7  C6  UNL     1      23.950  -0.085  53.854  1.00  0.00     0.149 A 
HETATM    8  C14 UNL     1      22.610  -0.243  53.597  1.00  0.00     0.042 A 
HETATM    9  C15 UNL     1      22.114   0.459  52.524  1.00  0.00     0.057 A 
HETATM   10  C16 UNL     1      20.788   0.383  52.166  1.00  0.00     0.102 A 
ENDROOT
BRANCH   7  11
HETATM   11  N3  UNL     1      24.903   0.707  53.164  1.00  0.00    -0.305 N 
HETATM   12  C7  UNL     1      24.991   2.140  53.463  1.00  0.00     0.167 C 
BRANCH  11  13
HETATM   13  S1  UNL     1      26.148   0.526  51.939  1.00  0.00    -0.011 SA
BRANCH  13  14
HETATM   14  C8  UNL     1      27.615  -0.133  52.667  1.00  0.00     0.021 A 
HETATM   15  C9  UNL     1      28.544   0.740  53.191  1.00  0.00     0.020 A 
HETATM   16  C10 UNL     1      29.708   0.241  53.770  1.00  0.00     0.001 A 
HETATM   17  C11 UNL     1      29.954  -1.116  53.829  1.00  0.00     0.000 A 
HETATM   18  C12 UNL     1      29.044  -2.003  53.314  1.00  0.00     0.001 A 
HETATM   19  C13 UNL     1      27.898  -1.480  52.746  1.00  0.00     0.020 A 
ENDBRANCH  13  14
ENDBRANCH  11  13
ENDBRANCH   7  11
BRANCH  10  20
HETATM   20  O2  UNL     1      20.277   1.094  51.078  1.00  0.00    -0.353 OA
HETATM   21  C17 UNL     1      21.003   1.032  49.853  1.00  0.00     0.210 C 
ENDBRANCH  10  20
BRANCH   1  22
HETATM   22  O1  UNL     1      18.576  -0.464  52.494  1.00  0.00    -0.353 OA
HETATM   23  C1  UNL     1      17.619  -1.295  53.069  1.00  0.00     0.210 C 
ENDBRANCH   1  22
TORSDOF 5
ENDMDL
MODEL 3
REMARK VINA RESULT:      -7.6      1.887      5.390
REMARK  5 active torsions:
REMARK  status: ('A' for Active; 'I' for Inactive)
REMARK    1  A    between atoms: O1_2  and  C2_3 
REMARK    2  A    between atoms: C6_9  and  N3_10 
REMARK    3  A    between atoms: N3_10  and  S1_12 
REMARK    4  A    between atoms: S1_12  and  C8_13 
REMARK    5  A    between atoms: C16_21  and  O2_22 
ROOT
HETATM    1  C2  UNL     1      27.385   0.039  53.459  1.00  0.00     0.103 A 
HETATM    2  C3  UNL     1      27.780   1.062  52.623  1.00  0.00     0.072 A 
HETATM    3  C4  UNL     1      26.887   1.827  51.910  1.00  0.00     0.075 A 
HETATM    4  N1  UNL     1      27.198   2.835  51.081  1.00  0.00    -0.241 NA
HETATM    5  C5  UNL     1      26.266   3.539  50.419  1.00  0.00     0.236 A 
HETATM    6  N2  UNL     1      24.961   3.266  50.554  1.00  0.00    -0.223 NA
HETATM    7  C6  UNL     1      24.541   2.278  51.358  1.00  0.00     0.149 A 
HETATM    8  C14 UNL     1      25.537   1.592  52.011  1.00  0.00     0.042 A 
HETATM    9  C15 UNL     1      25.126   0.576  52.841  1.00  0.00     0.057 A 
HETATM   10  C16 UNL     1      26.029  -0.183  53.549  1.00  0.00     0.102 A 
ENDROOT
BRANCH   7  11
HETATM   11  N3  UNL     1      23.137   2.085  51.420  1.00  0.00    -0.305 N 
HETATM   12  C7  UNL     1      22.324   3.006  52.219  1.00  0.00     0.167 C 
BRANCH  11  13
HETATM   13  S1  UNL     1      21.915   0.992  50.791  1.00  0.00    -0.011 SA
BRANCH  13  14
HETATM   14  C8  UNL     1      21.245   0.021  52.104  1.00  0.00     0.021 A 
HETATM   15  C9  UNL     1      19.879   0.004  52.284  1.00  0.00     0.020 A 
HETATM   16  C10 UNL     1      19.329  -0.756  53.314  1.00  0.00     0.001 A 
HETATM   17  C11 UNL     1      20.128  -1.495  54.164  1.00  0.00     0.000 A 
HETATM   18  C12 UNL     1      21.490  -1.492  54.004  1.00  0.00     0.001 A 
HETATM   19  C13 UNL     1      22.007  -0.730  52.974  1.00  0.00     0.020 A 
ENDBRANCH  13  14
ENDBRANCH  11  13
ENDBRANCH   7  11
BRANCH  10  20
HETATM   20  O2  UNL     1      25.620  -1.216  54.393  1.00  0.00    -0.353 OA
HETATM   21  C17 UNL     1      24.869  -0.861  55.552  1.00  0.00     0.210 C 
ENDBRANCH  10  20
BRANCH   1  22
HETATM   22  O1  UNL     1      28.272  -0.727  54.172  1.00  0.00    -0.353 OA
HETATM   23  C1  UNL     1      29.576  -1.022  53.782  1.00  0.00     0.210 C 
ENDBRANCH   1  22
TORSDOF 5
ENDMDL
MODEL 4
REMARK VINA RESULT:      -7.3      1.656      2.396
REMARK  5 active torsions:
REMARK  status: ('A' for Active; 'I' for Inactive)
REMARK    1  A    between atoms: O1_2  and  C2_3 
REMARK    2  A    between atoms: C6_9  and  N3_10 
REMARK    3  A    between atoms: N3_10  and  S1_12 
REMARK    4  A    between atoms: S1_12  and  C8_13 
REMARK    5  A    between atoms: C16_21  and  O2_22 
ROOT
HETATM    1  C2  UNL     1      26.126  -0.364  53.739  1.00  0.00     0.103 A 
HETATM    2  C3  UNL     1      25.131  -0.868  54.550  1.00  0.00     0.072 A 
HETATM    3  C4  UNL     1      23.795  -0.639  54.317  1.00  0.00     0.075 A 
HETATM    4  N1  UNL     1      22.776  -1.095  55.061  1.00  0.00    -0.241 NA
HETATM    5  C5  UNL     1      21.492  -0.829  54.768  1.00  0.00     0.236 A 
HETATM    6  N2  UNL     1      21.161  -0.085  53.705  1.00  0.00    -0.223 NA
HETATM    7  C6  UNL     1      22.103   0.422  52.895  1.00  0.00     0.149 A 
HETATM    8  C14 UNL     1      23.397   0.117  53.241  1.00  0.00     0.042 A 
HETATM    9  C15 UNL     1      24.377   0.627  52.423  1.00  0.00     0.057 A 
HETATM   10  C16 UNL     1      25.711   0.392  52.666  1.00  0.00     0.102 A 
ENDROOT
BRANCH   7  11
HETATM   11  N3  UNL     1      21.630   1.194  51.803  1.00  0.00    -0.305 N 
HETATM   12  C7  UNL     1      21.199   0.510  50.580  1.00  0.00     0.167 C 
BRANCH  11  13
HETATM   13  S1  UNL     1      21.360   2.876  51.379  1.00  0.00    -0.011 SA
BRANCH  13  14
HETATM   14  C8  UNL     1      22.857   3.591  50.776  1.00  0.00     0.021 A 
HETATM   15  C9  UNL     1      23.537   2.947  49.764  1.00  0.00     0.020 A 
HETATM   16  C10 UNL     1      24.720   3.494  49.273  1.00  0.00     0.001 A 
HETATM   17  C11 UNL     1      25.230   4.673  49.781  1.00  0.00     0.000 A 
HETATM   18  C12 UNL     1      24.571   5.329  50.788  1.00  0.00     0.001 A 
HETATM   19  C13 UNL     1      23.399   4.764  51.255  1.00  0.00     0.020 A 
ENDBRANCH  13  14
ENDBRANCH  11  13
ENDBRANCH   7  11
BRANCH  10  20
HETATM   20  O2  UNL     1      26.711   0.905  51.839  1.00  0.00    -0.353 OA
HETATM   21  C17 UNL     1      27.020   2.292  51.962  1.00  0.00     0.210 C 
ENDBRANCH  10  20
BRANCH   1  22
HETATM   22  O1  UNL     1      27.460  -0.589  53.967  1.00  0.00    -0.353 OA
HETATM   23  C1  UNL     1      28.257   0.128  54.855  1.00  0.00     0.210 C 
ENDBRANCH   1  22
TORSDOF 5
ENDMDL
MODEL 5
REMARK VINA RESULT:      -7.2      2.319      5.536
REMARK  5 active torsions:
REMARK  status: ('A' for Active; 'I' for Inactive)
REMARK    1  A    between atoms: O1_2  and  C2_3 
REMARK    2  A    between atoms: C6_9  and  N3_10 
REMARK    3  A    between atoms: N3_10  and  S1_12 
REMARK    4  A    between atoms: S1_12  and  C8_13 
REMARK    5  A    between atoms: C16_21  and  O2_22 
ROOT
HETATM    1  C2  UNL     1      26.706   0.361  53.575  1.00  0.00     0.103 A 
HETATM    2  C3  UNL     1      27.218   1.245  52.649  1.00  0.00     0.072 A 
HETATM    3  C4  UNL     1      26.424   1.937  51.763  1.00  0.00     0.075 A 
HETATM    4  N1  UNL     1      26.851   2.809  50.838  1.00  0.00    -0.241 NA
HETATM    5  C5  UNL     1      26.011   3.448  50.007  1.00  0.00     0.236 A 
HETATM    6  N2  UNL     1      24.689   3.242  50.059  1.00  0.00    -0.223 NA
HETATM    7  C6  UNL     1      24.156   2.388  50.947  1.00  0.00     0.149 A 
HETATM    8  C14 UNL     1      25.061   1.764  51.773  1.00  0.00     0.042 A 
HETATM    9  C15 UNL     1      24.535   0.886  52.690  1.00  0.00     0.057 A 
HETATM   10  C16 UNL     1      25.338   0.200  53.572  1.00  0.00     0.102 A 
ENDROOT
BRANCH   7  11
HETATM   11  N3  UNL     1      22.745   2.254  50.908  1.00  0.00    -0.305 N 
HETATM   12  C7  UNL     1      22.137   1.415  49.870  1.00  0.00     0.167 C 
BRANCH  11  13
HETATM   13  S1  UNL     1      21.329   2.818  51.779  1.00  0.00    -0.011 SA
BRANCH  13  14
HETATM   14  C8  UNL     1      20.260   1.458  52.131  1.00  0.00     0.021 A 
HETATM   15  C9  UNL     1      20.570   0.629  53.188  1.00  0.00     0.020 A 
HETATM   16  C10 UNL     1      19.740  -0.450  53.483  1.00  0.00     0.001 A 
HETATM   17  C11 UNL     1      18.608  -0.709  52.736  1.00  0.00     0.000 A 
HETATM   18  C12 UNL     1      18.281   0.102  51.680  1.00  0.00     0.001 A 
HETATM   19  C13 UNL     1      19.122   1.165  51.411  1.00  0.00     0.020 A 
ENDBRANCH  13  14
ENDBRANCH  11  13
ENDBRANCH   7  11
BRANCH  10  20
HETATM   20  O2  UNL     1      24.811  -0.692  54.506  1.00  0.00    -0.353 OA
HETATM   21  C17 UNL     1      23.414  -0.966  54.440  1.00  0.00     0.210 C 
ENDBRANCH  10  20
BRANCH   1  22
HETATM   22  O1  UNL     1      27.493  -0.331  54.461  1.00  0.00    -0.353 OA
HETATM   23  C1  UNL     1      28.863  -0.150  54.631  1.00  0.00     0.210 C 
ENDBRANCH   1  22
TORSDOF 5
ENDMDL
MODEL 6
REMARK VINA RESULT:      -7.1      1.634      2.359
REMARK  5 active torsions:
REMARK  status: ('A' for Active; 'I' for Inactive)
REMARK    1  A    between atoms: O1_2  and  C2_3 
REMARK    2  A    between atoms: C6_9  and  N3_10 
REMARK    3  A    between atoms: N3_10  and  S1_12 
REMARK    4  A    between atoms: S1_12  and  C8_13 
REMARK    5  A    between atoms: C16_21  and  O2_22 
ROOT
HETATM    1  C2  UNL     1      27.088  -0.260  53.435  1.00  0.00     0.103 A 
HETATM    2  C3  UNL     1      25.802  -0.746  53.533  1.00  0.00     0.072 A 
HETATM    3  C4  UNL     1      24.698  -0.007  53.175  1.00  0.00     0.075 A 
HETATM    4  N1  UNL     1      23.422  -0.413  53.243  1.00  0.00    -0.241 NA
HETATM    5  C5  UNL     1      22.395   0.369  52.873  1.00  0.00     0.236 A 
HETATM    6  N2  UNL     1      22.596   1.610  52.410  1.00  0.00    -0.223 NA
HETATM    7  C6  UNL     1      23.834   2.115  52.302  1.00  0.00     0.149 A 
HETATM    8  C14 UNL     1      24.846   1.272  52.694  1.00  0.00     0.042 A 
HETATM    9  C15 UNL     1      26.122   1.771  52.590  1.00  0.00     0.057 A 
HETATM   10  C16 UNL     1      27.219   1.023  52.952  1.00  0.00     0.102 A 
ENDROOT
BRANCH   7  11
HETATM   11  N3  UNL     1      23.921   3.439  51.800  1.00  0.00    -0.305 N 
HETATM   12  C7  UNL     1      23.368   4.540  52.595  1.00  0.00     0.167 C 
BRANCH  11  13
HETATM   13  S1  UNL     1      24.534   4.292  50.394  1.00  0.00    -0.011 SA
BRANCH  13  14
HETATM   14  C8  UNL     1      23.500   3.972  49.000  1.00  0.00     0.021 A 
HETATM   15  C9  UNL     1      23.115   2.672  48.745  1.00  0.00     0.020 A 
HETATM   16  C10 UNL     1      22.300   2.397  47.650  1.00  0.00     0.001 A 
HETATM   17  C11 UNL     1      21.866   3.403  46.809  1.00  0.00     0.000 A 
HETATM   18  C12 UNL     1      22.237   4.702  47.043  1.00  0.00     0.001 A 
HETATM   19  C13 UNL     1      23.046   4.945  48.136  1.00  0.00     0.020 A 
ENDBRANCH  13  14
ENDBRANCH  11  13
ENDBRANCH   7  11
BRANCH  10  20
HETATM   20  O2  UNL     1      28.518   1.523  52.848  1.00  0.00    -0.353 OA
HETATM   21  C17 UNL     1      28.966   2.407  53.873  1.00  0.00     0.210 C 
ENDBRANCH  10  20
BRANCH   1  22
HETATM   22  O1  UNL     1      28.192  -0.992  53.792  1.00  0.00    -0.353 OA
HETATM   23  C1  UNL     1      28.664  -2.116  53.119  1.00  0.00     0.210 C 
ENDBRANCH   1  22
TORSDOF 5
ENDMDL
MODEL 7
REMARK VINA RESULT:      -6.9      2.808      4.186
REMARK  5 active torsions:
REMARK  status: ('A' for Active; 'I' for Inactive)
REMARK    1  A    between atoms: O1_2  and  C2_3 
REMARK    2  A    between atoms: C6_9  and  N3_10 
REMARK    3  A    between atoms: N3_10  and  S1_12 
REMARK    4  A    between atoms: S1_12  and  C8_13 
REMARK    5  A    between atoms: C16_21  and  O2_22 
ROOT
HETATM    1  C2  UNL     1      22.395   0.330  53.688  1.00  0.00     0.103 A 
HETATM    2  C3  UNL     1      23.729  -0.004  53.584  1.00  0.00     0.072 A 
HETATM    3  C4  UNL     1      24.597   0.655  52.745  1.00  0.00     0.075 A 
HETATM    4  N1  UNL     1      25.902   0.386  52.593  1.00  0.00    -0.241 NA
HETATM    5  C5  UNL     1      26.689   1.077  51.751  1.00  0.00     0.236 A 
HETATM    6  N2  UNL     1      26.203   2.083  51.012  1.00  0.00    -0.223 NA
HETATM    7  C6  UNL     1      24.910   2.434  51.087  1.00  0.00     0.149 A 
HETATM    8  C14 UNL     1      24.153   1.694  51.964  1.00  0.00     0.042 A 
HETATM    9  C15 UNL     1      22.826   2.040  52.056  1.00  0.00     0.057 A 
HETATM   10  C16 UNL     1      21.966   1.374  52.899  1.00  0.00     0.102 A 
ENDROOT
BRANCH   7  11
HETATM   11  N3  UNL     1      24.513   3.513  50.257  1.00  0.00    -0.305 N 
HETATM   12  C7  UNL     1      23.727   3.234  49.051  1.00  0.00     0.167 C 
BRANCH  11  13
HETATM   13  S1  UNL     1      24.664   5.261  50.181  1.00  0.00    -0.011 SA
BRANCH  13  14
HETATM   14  C8  UNL     1      26.167   5.698  49.365  1.00  0.00     0.021 A 
HETATM   15  C9  UNL     1      26.414   7.028  49.101  1.00  0.00     0.020 A 
HETATM   16  C10 UNL     1      27.593   7.396  48.457  1.00  0.00     0.001 A 
HETATM   17  C11 UNL     1      28.526   6.451  48.077  1.00  0.00     0.000 A 
HETATM   18  C12 UNL     1      28.301   5.122  48.330  1.00  0.00     0.001 A 
HETATM   19  C13 UNL     1      27.123   4.787  48.969  1.00  0.00     0.020 A 
ENDBRANCH  13  14
ENDBRANCH  11  13
ENDBRANCH   7  11
BRANCH  10  20
HETATM   20  O2  UNL     1      20.618   1.719  52.998  1.00  0.00    -0.353 OA
HETATM   21  C17 UNL     1      19.943   2.089  51.797  1.00  0.00     0.210 C 
ENDBRANCH  10  20
BRANCH   1  22
HETATM   22  O1  UNL     1      21.525  -0.324  54.523  1.00  0.00    -0.353 OA
HETATM   23  C1  UNL     1      21.277  -1.694  54.514  1.00  0.00     0.210 C 
ENDBRANCH   1  22
TORSDOF 5
ENDMDL
MODEL 8
REMARK VINA RESULT:      -6.9      2.860      4.508
REMARK  5 active torsions:
REMARK  status: ('A' for Active; 'I' for Inactive)
REMARK    1  A    between atoms: O1_2  and  C2_3 
REMARK    2  A    between atoms: C6_9  and  N3_10 
REMARK    3  A    between atoms: N3_10  and  S1_12 
REMARK    4  A    between atoms: S1_12  and  C8_13 
REMARK    5  A    between atoms: C16_21  and  O2_22 
ROOT
HETATM    1  C2  UNL     1      23.264  -0.317  53.062  1.00  0.00     0.103 A 
HETATM    2  C3  UNL     1      24.592  -0.373  53.430  1.00  0.00     0.072 A 
HETATM    3  C4  UNL     1      25.535   0.505  52.949  1.00  0.00     0.075 A 
HETATM    4  N1  UNL     1      26.839   0.510  53.262  1.00  0.00    -0.241 NA
HETATM    5  C5  UNL     1      27.701   1.403  52.749  1.00  0.00     0.236 A 
HETATM    6  N2  UNL     1      27.296   2.346  51.888  1.00  0.00    -0.223 NA
HETATM    7  C6  UNL     1      26.012   2.429  51.507  1.00  0.00     0.149 A 
HETATM    8  C14 UNL     1      25.176   1.492  52.063  1.00  0.00     0.042 A 
HETATM    9  C15 UNL     1      23.855   1.561  51.685  1.00  0.00     0.057 A 
HETATM   10  C16 UNL     1      22.921   0.677  52.173  1.00  0.00     0.102 A 
ENDROOT
BRANCH   7  11
HETATM   11  N3  UNL     1      25.704   3.468  50.591  1.00  0.00    -0.305 N 
HETATM   12  C7  UNL     1      26.625   3.738  49.483  1.00  0.00     0.167 C 
BRANCH  11  13
HETATM   13  S1  UNL     1      24.454   4.669  50.311  1.00  0.00    -0.011 SA
BRANCH  13  14
HETATM   14  C8  UNL     1      23.468   4.196  48.926  1.00  0.00     0.021 A 
HETATM   15  C9  UNL     1      23.156   2.863  48.759  1.00  0.00     0.020 A 
HETATM   16  C10 UNL     1      22.379   2.469  47.673  1.00  0.00     0.001 A 
HETATM   17  C11 UNL     1      21.911   3.388  46.754  1.00  0.00     0.000 A 
HETATM   18  C12 UNL     1      22.209   4.718  46.901  1.00  0.00     0.001 A 
HETATM   19  C13 UNL     1      22.981   5.081  47.988  1.00  0.00     0.020 A 
ENDBRANCH  13  14
ENDBRANCH  11  13
ENDBRANCH   7  11
BRANCH  10  20
HETATM   20  O2  UNL     1      21.579   0.742  51.795  1.00  0.00    -0.353 OA
HETATM   21  C17 UNL     1      20.763   1.726  52.426  1.00  0.00     0.210 C 
ENDBRANCH  10  20
BRANCH   1  22
HETATM   22  O1  UNL     1      22.320  -1.191  53.539  1.00  0.00    -0.353 OA
HETATM   23  C1  UNL     1      21.875  -1.255  54.857  1.00  0.00     0.210 C 
ENDBRANCH   1  22
TORSDOF 5
ENDMDL
MODEL 9
REMARK VINA RESULT:      -6.8      3.072      6.371
REMARK  5 active torsions:
REMARK  status: ('A' for Active; 'I' for Inactive)
REMARK    1  A    between atoms: O1_2  and  C2_3 
REMARK    2  A    between atoms: C6_9  and  N3_10 
REMARK    3  A    between atoms: N3_10  and  S1_12 
REMARK    4  A    between atoms: S1_12  and  C8_13 
REMARK    5  A    between atoms: C16_21  and  O2_22 
ROOT
HETATM    1  C2  UNL     1      25.314   2.963  50.963  1.00  0.00     0.103 A 
HETATM    2  C3  UNL     1      26.207   2.356  51.820  1.00  0.00     0.072 A 
HETATM    3  C4  UNL     1      25.834   1.377  52.712  1.00  0.00     0.075 A 
HETATM    4  N1  UNL     1      26.645   0.745  53.573  1.00  0.00    -0.241 NA
HETATM    5  C5  UNL     1      26.205  -0.204  54.415  1.00  0.00     0.236 A 
HETATM    6  N2  UNL     1      24.917  -0.572  54.438  1.00  0.00    -0.223 NA
HETATM    7  C6  UNL     1      24.020  -0.002  53.618  1.00  0.00     0.149 A 
HETATM    8  C14 UNL     1      24.526   0.961  52.779  1.00  0.00     0.042 A 
HETATM    9  C15 UNL     1      23.623   1.557  51.930  1.00  0.00     0.057 A 
HETATM   10  C16 UNL     1      24.007   2.535  51.042  1.00  0.00     0.102 A 
ENDROOT
BRANCH   7  11
HETATM   11  N3  UNL     1      22.688  -0.473  53.734  1.00  0.00    -0.305 N 
HETATM   12  C7  UNL     1      22.348  -1.792  53.192  1.00  0.00     0.167 C 
BRANCH  11  13
HETATM   13  S1  UNL     1      21.142   0.051  54.380  1.00  0.00    -0.011 SA
BRANCH  13  14
HETATM   14  C8  UNL     1      19.902  -0.055  53.128  1.00  0.00     0.021 A 
HETATM   15  C9  UNL     1      20.081   0.651  51.957  1.00  0.00     0.020 A 
HETATM   16  C10 UNL     1      19.115   0.582  50.956  1.00  0.00     0.001 A 
HETATM   17  C11 UNL     1      17.975  -0.182  51.112  1.00  0.00     0.000 A 
HETATM   18  C12 UNL     1      17.776  -0.892  52.268  1.00  0.00     0.001 A 
HETATM   19  C13 UNL     1      18.751  -0.805  53.243  1.00  0.00     0.020 A 
ENDBRANCH  13  14
ENDBRANCH  11  13
ENDBRANCH   7  11
BRANCH  10  20
HETATM   20  O2  UNL     1      23.096   3.144  50.178  1.00  0.00    -0.353 OA
HETATM   21  C17 UNL     1      22.320   2.295  49.335  1.00  0.00     0.210 C 
ENDBRANCH  10  20
BRANCH   1  22
HETATM   22  O1  UNL     1      25.681   3.940  50.072  1.00  0.00    -0.353 OA
HETATM   23  C1  UNL     1      26.833   3.926  49.291  1.00  0.00     0.210 C 
ENDBRANCH   1  22
TORSDOF 5
ENDMDL
