MODEL 1
REMARK VINA RESULT:      -7.9      0.000      0.000
REMARK  4 active torsions:
REMARK  status: ('A' for Active; 'I' for Inactive)
REMARK    1  A    between atoms: C2_2  and  O1_3 
REMARK    2  A    between atoms: O1_3  and  C3_4 
REMARK    3  A    between atoms: C8_11  and  N3_12 
REMARK    4  A    between atoms: P1_21  and  O2_22 
ROOT
HETATM    1  C3  UNL     1      23.674   1.818  51.350  1.00  0.00     0.095 C 
HETATM    2  C4  UNL     1      24.525   1.403  52.276  1.00  0.00     0.057 C 
HETATM    3  C5  UNL     1      24.156   0.420  53.263  1.00  0.00     0.042 A 
HETATM    4  C6  UNL     1      22.944  -0.189  53.569  1.00  0.00     0.073 A 
HETATM    5  N1  UNL     1      22.860  -1.062  54.581  1.00  0.00    -0.241 NA
HETATM    6  C7  UNL     1      23.972  -1.340  55.294  1.00  0.00     0.236 A 
HETATM    7  N2  UNL     1      25.184  -0.766  55.028  1.00  0.00    -0.223 NA
HETATM    8  C8  UNL     1      25.282   0.127  53.998  1.00  0.00     0.144 A 
HETATM    9  C15 UNL     1      21.655   0.004  52.874  1.00  0.00     0.047 C 
HETATM   10  C16 UNL     1      21.550   0.103  51.558  1.00  0.00     0.008 C 
HETATM   11  P1  UNL     1      21.984   1.483  50.896  1.00  0.00     0.050 P 
HETATM   12  H17 UNL     1      21.853   1.364  49.502  1.00  0.00     0.092 HD
ENDROOT
BRANCH   8  13
HETATM   13  N3  UNL     1      26.607   0.595  53.824  1.00  0.00    -0.337 N 
HETATM   14  C9  UNL     1      27.472  -0.556  53.692  1.00  0.00     0.099 A 
HETATM   15  C10 UNL     1      28.798  -0.500  53.577  1.00  0.00    -0.047 A 
HETATM   16  C11 UNL     1      29.749  -1.655  53.438  1.00  0.00     0.049 C 
HETATM   17  C12 UNL     1      29.475   0.799  53.554  1.00  0.00     0.006 A 
HETATM   18  C13 UNL     1      28.671   1.854  53.650  1.00  0.00    -0.006 A 
HETATM   19  C14 UNL     1      27.214   1.902  53.773  1.00  0.00     0.157 A 
ENDBRANCH   8  13
BRANCH   1  20
HETATM   20  O1  UNL     1      24.218   2.772  50.486  1.00  0.00    -0.349 OA
BRANCH  20  21
HETATM   21  C2  UNL     1      25.460   3.366  50.779  1.00  0.00     0.171 C 
HETATM   22  C1  UNL     1      26.413   3.202  49.594  1.00  0.00     0.034 C 
ENDBRANCH  20  21
ENDBRANCH   1  20
BRANCH  11  23
HETATM   23  O2  UNL     1      20.933   2.663  51.489  1.00  0.00    -0.371 OA
HETATM   24  H18 UNL     1      21.451   3.508  51.572  1.00  0.00     0.215 HD
ENDBRANCH  11  23
TORSDOF 4
ENDMDL
MODEL 2
REMARK VINA RESULT:      -7.8      1.102      1.225
REMARK  4 active torsions:
REMARK  status: ('A' for Active; 'I' for Inactive)
REMARK    1  A    between atoms: C2_2  and  O1_3 
REMARK    2  A    between atoms: O1_3  and  C3_4 
REMARK    3  A    between atoms: C8_11  and  N3_12 
REMARK    4  A    between atoms: P1_21  and  O2_22 
ROOT
HETATM    1  C3  UNL     1      24.291   2.676  50.552  1.00  0.00     0.095 C 
HETATM    2  C4  UNL     1      24.885   2.080  51.575  1.00  0.00     0.057 C 
HETATM    3  C5  UNL     1      24.215   1.079  52.365  1.00  0.00     0.042 A 
HETATM    4  C6  UNL     1      22.904   0.615  52.371  1.00  0.00     0.073 A 
HETATM    5  N1  UNL     1      22.518  -0.317  53.252  1.00  0.00    -0.241 NA
HETATM    6  C7  UNL     1      23.425  -0.796  54.131  1.00  0.00     0.236 A 
HETATM    7  N2  UNL     1      24.723  -0.369  54.160  1.00  0.00    -0.223 NA
HETATM    8  C8  UNL     1      25.128   0.582  53.266  1.00  0.00     0.144 A 
HETATM    9  C15 UNL     1      21.812   1.032  51.468  1.00  0.00     0.047 C 
HETATM   10  C16 UNL     1      21.986   1.248  50.173  1.00  0.00     0.008 C 
HETATM   11  P1  UNL     1      22.701   2.607  49.753  1.00  0.00     0.050 P 
HETATM   12  H17 UNL     1      22.839   2.616  48.355  1.00  0.00     0.092 HD
ENDROOT
BRANCH   8  13
HETATM   13  N3  UNL     1      26.505   0.882  53.397  1.00  0.00    -0.337 N 
HETATM   14  C9  UNL     1      27.243  -0.356  53.291  1.00  0.00     0.099 A 
HETATM   15  C10 UNL     1      28.563  -0.469  53.430  1.00  0.00    -0.047 A 
HETATM   16  C11 UNL     1      29.385  -1.723  53.333  1.00  0.00     0.049 C 
HETATM   17  C12 UNL     1      29.375   0.724  53.687  1.00  0.00     0.006 A 
HETATM   18  C13 UNL     1      28.692   1.864  53.758  1.00  0.00    -0.006 A 
HETATM   19  C14 UNL     1      27.255   2.095  53.615  1.00  0.00     0.157 A 
ENDBRANCH   8  13
BRANCH   1  20
HETATM   20  O1  UNL     1      25.103   3.615  49.911  1.00  0.00    -0.349 OA
BRANCH  20  21
HETATM   21  C2  UNL     1      26.474   3.354  49.721  1.00  0.00     0.171 C 
HETATM   22  C1  UNL     1      27.135   4.523  48.992  1.00  0.00     0.034 C 
ENDBRANCH  20  21
ENDBRANCH   1  20
BRANCH  11  23
HETATM   23  O2  UNL     1      21.693   3.865  50.255  1.00  0.00    -0.371 OA
HETATM   24  H18 UNL     1      22.211   4.423  50.894  1.00  0.00     0.215 HD
ENDBRANCH  11  23
TORSDOF 4
ENDMDL
MODEL 3
REMARK VINA RESULT:      -7.5      3.151      5.755
REMARK  4 active torsions:
REMARK  status: ('A' for Active; 'I' for Inactive)
REMARK    1  A    between atoms: C2_2  and  O1_3 
REMARK    2  A    between atoms: O1_3  and  C3_4 
REMARK    3  A    between atoms: C8_11  and  N3_12 
REMARK    4  A    between atoms: P1_21  and  O2_22 
ROOT
HETATM    1  C3  UNL     1      27.057   1.199  52.724  1.00  0.00     0.095 C 
HETATM    2  C4  UNL     1      26.480   1.937  51.789  1.00  0.00     0.057 C 
HETATM    3  C5  UNL     1      25.061   1.880  51.542  1.00  0.00     0.042 A 
HETATM    4  C6  UNL     1      24.057   1.059  52.044  1.00  0.00     0.073 A 
HETATM    5  N1  UNL     1      22.796   1.190  51.614  1.00  0.00    -0.241 NA
HETATM    6  C7  UNL     1      22.519   2.133  50.687  1.00  0.00     0.236 A 
HETATM    7  N2  UNL     1      23.474   2.961  50.167  1.00  0.00    -0.223 NA
HETATM    8  C8  UNL     1      24.765   2.837  50.599  1.00  0.00     0.144 A 
HETATM    9  C15 UNL     1      24.204   0.001  53.063  1.00  0.00     0.047 C 
HETATM   10  C16 UNL     1      24.969   0.130  54.136  1.00  0.00     0.008 C 
HETATM   11  P1  UNL     1      26.541  -0.008  53.929  1.00  0.00     0.050 P 
HETATM   12  H17 UNL     1      27.168   0.217  55.166  1.00  0.00     0.092 HD
ENDROOT
BRANCH   8  13
HETATM   13  N3  UNL     1      25.620   3.793  50.000  1.00  0.00    -0.337 N 
HETATM   14  C9  UNL     1      25.086   5.107  50.281  1.00  0.00     0.099 A 
HETATM   15  C10 UNL     1      25.594   6.249  49.822  1.00  0.00    -0.047 A 
HETATM   16  C11 UNL     1      25.086   7.639  50.076  1.00  0.00     0.049 C 
HETATM   17  C12 UNL     1      26.797   6.227  48.984  1.00  0.00     0.006 A 
HETATM   18  C13 UNL     1      27.299   5.017  48.751  1.00  0.00    -0.006 A 
HETATM   19  C14 UNL     1      26.824   3.712  49.210  1.00  0.00     0.157 A 
ENDBRANCH   8  13
BRANCH   1  20
HETATM   20  O1  UNL     1      28.438   1.395  52.811  1.00  0.00    -0.349 OA
BRANCH  20  21
HETATM   21  C2  UNL     1      29.152   0.916  53.926  1.00  0.00     0.171 C 
HETATM   22  C1  UNL     1      30.145  -0.162  53.489  1.00  0.00     0.034 C 
ENDBRANCH  20  21
ENDBRANCH   1  20
BRANCH  11  23
HETATM   23  O2  UNL     1      26.829  -1.584  53.399  1.00  0.00    -0.371 OA
HETATM   24  H18 UNL     1      26.524  -2.199  54.118  1.00  0.00     0.215 HD
ENDBRANCH  11  23
TORSDOF 4
ENDMDL
MODEL 4
REMARK VINA RESULT:      -7.4      2.111      4.259
REMARK  4 active torsions:
REMARK  status: ('A' for Active; 'I' for Inactive)
REMARK    1  A    between atoms: C2_2  and  O1_3 
REMARK    2  A    between atoms: O1_3  and  C3_4 
REMARK    3  A    between atoms: C8_11  and  N3_12 
REMARK    4  A    between atoms: P1_21  and  O2_22 
ROOT
HETATM    1  C3  UNL     1      22.730   1.562  52.478  1.00  0.00     0.095 C 
HETATM    2  C4  UNL     1      24.013   1.474  52.164  1.00  0.00     0.057 C 
HETATM    3  C5  UNL     1      24.637   2.394  51.247  1.00  0.00     0.042 A 
HETATM    4  C6  UNL     1      24.123   3.404  50.442  1.00  0.00     0.073 A 
HETATM    5  N1  UNL     1      24.931   4.105  49.635  1.00  0.00    -0.241 NA
HETATM    6  C7  UNL     1      26.249   3.811  49.619  1.00  0.00     0.236 A 
HETATM    7  N2  UNL     1      26.796   2.827  50.394  1.00  0.00    -0.223 NA
HETATM    8  C8  UNL     1      25.982   2.106  51.222  1.00  0.00     0.144 A 
HETATM    9  C15 UNL     1      22.716   3.845  50.362  1.00  0.00     0.047 C 
HETATM   10  C16 UNL     1      21.932   3.959  51.423  1.00  0.00     0.008 C 
HETATM   11  P1  UNL     1      21.357   2.614  52.050  1.00  0.00     0.050 P 
HETATM   12  H17 UNL     1      20.604   2.946  53.189  1.00  0.00     0.092 HD
ENDROOT
BRANCH   8  13
HETATM   13  N3  UNL     1      26.706   1.159  51.986  1.00  0.00    -0.337 N 
HETATM   14  C9  UNL     1      27.627   1.882  52.834  1.00  0.00     0.099 A 
HETATM   15  C10 UNL     1      28.517   1.315  53.647  1.00  0.00    -0.047 A 
HETATM   16  C11 UNL     1      29.499   2.008  54.548  1.00  0.00     0.049 C 
HETATM   17  C12 UNL     1      28.592  -0.146  53.742  1.00  0.00     0.006 A 
HETATM   18  C13 UNL     1      27.724  -0.804  52.978  1.00  0.00    -0.006 A 
HETATM   19  C14 UNL     1      26.710  -0.281  52.064  1.00  0.00     0.157 A 
ENDBRANCH   8  13
BRANCH   1  20
HETATM   20  O1  UNL     1      22.312   0.582  53.382  1.00  0.00    -0.349 OA
BRANCH  20  21
HETATM   21  C2  UNL     1      23.161  -0.495  53.700  1.00  0.00     0.171 C 
HETATM   22  C1  UNL     1      22.659  -1.206  54.957  1.00  0.00     0.034 C 
ENDBRANCH  20  21
ENDBRANCH   1  20
BRANCH  11  23
HETATM   23  O2  UNL     1      20.371   1.909  50.876  1.00  0.00    -0.371 OA
HETATM   24  H18 UNL     1      20.929   1.259  50.371  1.00  0.00     0.215 HD
ENDBRANCH  11  23
TORSDOF 4
ENDMDL
MODEL 5
REMARK VINA RESULT:      -7.1      2.359      4.753
REMARK  4 active torsions:
REMARK  status: ('A' for Active; 'I' for Inactive)
REMARK    1  A    between atoms: C2_2  and  O1_3 
REMARK    2  A    between atoms: O1_3  and  C3_4 
REMARK    3  A    between atoms: C8_11  and  N3_12 
REMARK    4  A    between atoms: P1_21  and  O2_22 
ROOT
HETATM    1  C3  UNL     1      21.489   1.296  52.574  1.00  0.00     0.095 C 
HETATM    2  C4  UNL     1      22.623   1.799  52.110  1.00  0.00     0.057 C 
HETATM    3  C5  UNL     1      23.890   1.150  52.333  1.00  0.00     0.042 A 
HETATM    4  C6  UNL     1      24.255   0.049  53.099  1.00  0.00     0.073 A 
HETATM    5  N1  UNL     1      25.536  -0.336  53.167  1.00  0.00    -0.241 NA
HETATM    6  C7  UNL     1      26.463   0.365  52.479  1.00  0.00     0.236 A 
HETATM    7  N2  UNL     1      26.149   1.453  51.713  1.00  0.00    -0.223 NA
HETATM    8  C8  UNL     1      24.845   1.854  51.636  1.00  0.00     0.144 A 
HETATM    9  C15 UNL     1      23.357  -0.817  53.890  1.00  0.00     0.047 C 
HETATM   10  C16 UNL     1      22.164  -1.203  53.465  1.00  0.00     0.008 C 
HETATM   11  P1  UNL     1      20.991  -0.129  53.520  1.00  0.00     0.050 P 
HETATM   12  H17 UNL     1      19.834  -0.713  52.977  1.00  0.00     0.092 HD
ENDROOT
BRANCH   8  13
HETATM   13  N3  UNL     1      24.680   2.964  50.772  1.00  0.00    -0.337 N 
HETATM   14  C9  UNL     1      25.970   3.276  50.197  1.00  0.00     0.099 A 
HETATM   15  C10 UNL     1      26.211   4.303  49.384  1.00  0.00    -0.047 A 
HETATM   16  C11 UNL     1      27.524   4.680  48.758  1.00  0.00     0.049 C 
HETATM   17  C12 UNL     1      25.118   5.197  48.993  1.00  0.00     0.006 A 
HETATM   18  C13 UNL     1      23.929   4.889  49.504  1.00  0.00    -0.006 A 
HETATM   19  C14 UNL     1      23.559   3.789  50.395  1.00  0.00     0.157 A 
ENDBRANCH   8  13
BRANCH   1  20
HETATM   20  O1  UNL     1      20.369   2.068  52.254  1.00  0.00    -0.349 OA
BRANCH  20  21
HETATM   21  C2  UNL     1      20.438   3.473  52.311  1.00  0.00     0.171 C 
HETATM   22  C1  UNL     1      19.818   4.080  51.052  1.00  0.00     0.034 C 
ENDBRANCH  20  21
ENDBRANCH   1  20
BRANCH  11  23
HETATM   23  O2  UNL     1      20.751   0.252  55.147  1.00  0.00    -0.371 OA
HETATM   24  H18 UNL     1      21.078  -0.519  55.683  1.00  0.00     0.215 HD
ENDBRANCH  11  23
TORSDOF 4
ENDMDL
MODEL 6
REMARK VINA RESULT:      -7.1      3.317      6.685
REMARK  4 active torsions:
REMARK  status: ('A' for Active; 'I' for Inactive)
REMARK    1  A    between atoms: C2_2  and  O1_3 
REMARK    2  A    between atoms: O1_3  and  C3_4 
REMARK    3  A    between atoms: C8_11  and  N3_12 
REMARK    4  A    between atoms: P1_21  and  O2_22 
ROOT
HETATM    1  C3  UNL     1      24.382   0.191  53.354  1.00  0.00     0.095 C 
HETATM    2  C4  UNL     1      23.978   1.257  52.679  1.00  0.00     0.057 C 
HETATM    3  C5  UNL     1      24.877   2.017  51.848  1.00  0.00     0.042 A 
HETATM    4  C6  UNL     1      26.252   1.947  51.649  1.00  0.00     0.073 A 
HETATM    5  N1  UNL     1      26.864   2.814  50.833  1.00  0.00    -0.241 NA
HETATM    6  C7  UNL     1      26.123   3.755  50.209  1.00  0.00     0.236 A 
HETATM    7  N2  UNL     1      24.770   3.860  50.375  1.00  0.00    -0.223 NA
HETATM    8  C8  UNL     1      24.134   2.980  51.205  1.00  0.00     0.144 A 
HETATM    9  C15 UNL     1      27.185   0.972  52.248  1.00  0.00     0.047 C 
HETATM   10  C16 UNL     1      26.897  -0.311  52.394  1.00  0.00     0.008 C 
HETATM   11  P1  UNL     1      25.906  -0.704  53.576  1.00  0.00     0.050 P 
HETATM   12  H17 UNL     1      25.686  -2.091  53.523  1.00  0.00     0.092 HD
ENDROOT
BRANCH   8  13
HETATM   13  N3  UNL     1      22.734   3.193  51.234  1.00  0.00    -0.337 N 
HETATM   14  C9  UNL     1      22.190   2.748  49.970  1.00  0.00     0.099 A 
HETATM   15  C10 UNL     1      20.911   2.854  49.614  1.00  0.00    -0.047 A 
HETATM   16  C11 UNL     1      20.287   2.414  48.320  1.00  0.00     0.049 C 
HETATM   17  C12 UNL     1      19.940   3.435  50.545  1.00  0.00     0.006 A 
HETATM   18  C13 UNL     1      20.443   3.818  51.716  1.00  0.00    -0.006 A 
HETATM   19  C14 UNL     1      21.819   3.740  52.204  1.00  0.00     0.157 A 
ENDBRANCH   8  13
BRANCH   1  20
HETATM   20  O1  UNL     1      23.365  -0.410  54.099  1.00  0.00    -0.349 OA
BRANCH  20  21
HETATM   21  C2  UNL     1      22.017  -0.094  53.842  1.00  0.00     0.171 C 
HETATM   22  C1  UNL     1      21.119  -1.267  54.236  1.00  0.00     0.034 C 
ENDBRANCH  20  21
ENDBRANCH   1  20
BRANCH  11  23
HETATM   23  O2  UNL     1      26.674  -0.283  55.019  1.00  0.00    -0.371 OA
HETATM   24  H18 UNL     1      26.183   0.493  55.400  1.00  0.00     0.215 HD
ENDBRANCH  11  23
TORSDOF 4
ENDMDL
MODEL 7
REMARK VINA RESULT:      -7.1      2.970      6.497
REMARK  4 active torsions:
REMARK  status: ('A' for Active; 'I' for Inactive)
REMARK    1  A    between atoms: C2_2  and  O1_3 
REMARK    2  A    between atoms: O1_3  and  C3_4 
REMARK    3  A    between atoms: C8_11  and  N3_12 
REMARK    4  A    between atoms: P1_21  and  O2_22 
ROOT
HETATM    1  C3  UNL     1      25.228   1.179  52.001  1.00  0.00     0.095 C 
HETATM    2  C4  UNL     1      23.954   1.358  52.311  1.00  0.00     0.057 C 
HETATM    3  C5  UNL     1      23.249   2.565  51.962  1.00  0.00     0.042 A 
HETATM    4  C6  UNL     1      23.671   3.767  51.405  1.00  0.00     0.073 A 
HETATM    5  N1  UNL     1      22.802   4.768  51.213  1.00  0.00    -0.241 NA
HETATM    6  C7  UNL     1      21.512   4.587  51.569  1.00  0.00     0.236 A 
HETATM    7  N2  UNL     1      21.054   3.423  52.118  1.00  0.00    -0.223 NA
HETATM    8  C8  UNL     1      21.931   2.394  52.320  1.00  0.00     0.144 A 
HETATM    9  C15 UNL     1      25.037   4.105  50.957  1.00  0.00     0.047 C 
HETATM   10  C16 UNL     1      25.819   3.252  50.314  1.00  0.00     0.008 C 
HETATM   11  P1  UNL     1      26.507   2.104  51.175  1.00  0.00     0.050 P 
HETATM   12  H17 UNL     1      27.241   1.281  50.305  1.00  0.00     0.092 HD
ENDROOT
BRANCH   8  13
HETATM   13  N3  UNL     1      21.293   1.248  52.853  1.00  0.00    -0.337 N 
HETATM   14  C9  UNL     1      20.130   0.968  52.042  1.00  0.00     0.099 A 
HETATM   15  C10 UNL     1      19.251  -0.003  52.284  1.00  0.00    -0.047 A 
HETATM   16  C11 UNL     1      18.026  -0.343  51.483  1.00  0.00     0.049 C 
HETATM   17  C12 UNL     1      19.445  -0.894  53.431  1.00  0.00     0.006 A 
HETATM   18  C13 UNL     1      20.531  -0.647  54.158  1.00  0.00    -0.006 A 
HETATM   19  C14 UNL     1      21.555   0.381  53.975  1.00  0.00     0.157 A 
ENDBRANCH   8  13
BRANCH   1  20
HETATM   20  O1  UNL     1      25.733  -0.055  52.423  1.00  0.00    -0.349 OA
BRANCH  20  21
HETATM   21  C2  UNL     1      25.551  -0.476  53.754  1.00  0.00     0.171 C 
HETATM   22  C1  UNL     1      26.579   0.198  54.663  1.00  0.00     0.034 C 
ENDBRANCH  20  21
ENDBRANCH   1  20
BRANCH  11  23
HETATM   23  O2  UNL     1      27.536   2.867  52.274  1.00  0.00    -0.371 OA
HETATM   24  H18 UNL     1      27.040   2.958  53.131  1.00  0.00     0.215 HD
ENDBRANCH  11  23
TORSDOF 4
ENDMDL
MODEL 8
REMARK VINA RESULT:      -7.1      1.628      2.009
REMARK  4 active torsions:
REMARK  status: ('A' for Active; 'I' for Inactive)
REMARK    1  A    between atoms: C2_2  and  O1_3 
REMARK    2  A    between atoms: O1_3  and  C3_4 
REMARK    3  A    between atoms: C8_11  and  N3_12 
REMARK    4  A    between atoms: P1_21  and  O2_22 
ROOT
HETATM    1  C3  UNL     1      21.697   2.203  51.468  1.00  0.00     0.095 C 
HETATM    2  C4  UNL     1      22.591   1.586  52.225  1.00  0.00     0.057 C 
HETATM    3  C5  UNL     1      22.231   0.493  53.092  1.00  0.00     0.042 A 
HETATM    4  C6  UNL     1      21.003  -0.059  53.438  1.00  0.00     0.073 A 
HETATM    5  N1  UNL     1      20.937  -1.070  54.315  1.00  0.00    -0.241 NA
HETATM    6  C7  UNL     1      22.083  -1.539  54.854  1.00  0.00     0.236 A 
HETATM    7  N2  UNL     1      23.311  -1.027  54.542  1.00  0.00    -0.223 NA
HETATM    8  C8  UNL     1      23.391   0.004  53.648  1.00  0.00     0.144 A 
HETATM    9  C15 UNL     1      19.676   0.337  52.926  1.00  0.00     0.047 C 
HETATM   10  C16 UNL     1      19.453   0.646  51.658  1.00  0.00     0.008 C 
HETATM   11  P1  UNL     1      19.947   2.074  51.159  1.00  0.00     0.050 P 
HETATM   12  H17 UNL     1      19.670   2.182  49.786  1.00  0.00     0.092 HD
ENDROOT
BRANCH   8  13
HETATM   13  N3  UNL     1      24.730   0.390  53.400  1.00  0.00    -0.337 N 
HETATM   14  C9  UNL     1      25.498  -0.807  53.141  1.00  0.00     0.099 A 
HETATM   15  C10 UNL     1      26.812  -0.836  52.929  1.00  0.00    -0.047 A 
HETATM   16  C11 UNL     1      27.664  -2.043  52.657  1.00  0.00     0.049 C 
HETATM   17  C12 UNL     1      27.579   0.413  52.924  1.00  0.00     0.006 A 
HETATM   18  C13 UNL     1      26.862   1.513  53.137  1.00  0.00    -0.006 A 
HETATM   19  C14 UNL     1      25.425   1.653  53.372  1.00  0.00     0.157 A 
ENDBRANCH   8  13
BRANCH   1  20
HETATM   20  O1  UNL     1      22.240   3.234  50.698  1.00  0.00    -0.349 OA
BRANCH  20  21
HETATM   21  C2  UNL     1      23.600   3.574  50.828  1.00  0.00     0.171 C 
HETATM   22  C1  UNL     1      24.311   3.417  49.483  1.00  0.00     0.034 C 
ENDBRANCH  20  21
ENDBRANCH   1  20
BRANCH  11  23
HETATM   23  O2  UNL     1      19.072   3.226  52.030  1.00  0.00    -0.371 OA
HETATM   24  H18 UNL     1      19.684   3.988  52.212  1.00  0.00     0.215 HD
ENDBRANCH  11  23
TORSDOF 4
ENDMDL
MODEL 9
REMARK VINA RESULT:      -7.0      2.829      5.545
REMARK  4 active torsions:
REMARK  status: ('A' for Active; 'I' for Inactive)
REMARK    1  A    between atoms: C2_2  and  O1_3 
REMARK    2  A    between atoms: O1_3  and  C3_4 
REMARK    3  A    between atoms: C8_11  and  N3_12 
REMARK    4  A    between atoms: P1_21  and  O2_22 
ROOT
HETATM    1  C3  UNL     1      25.938   0.804  52.366  1.00  0.00     0.095 C 
HETATM    2  C4  UNL     1      24.643   0.848  52.095  1.00  0.00     0.057 C 
HETATM    3  C5  UNL     1      23.660   0.271  52.977  1.00  0.00     0.042 A 
HETATM    4  C6  UNL     1      23.776  -0.502  54.127  1.00  0.00     0.073 A 
HETATM    5  N1  UNL     1      22.681  -0.953  54.753  1.00  0.00    -0.241 NA
HETATM    6  C7  UNL     1      21.468  -0.643  54.248  1.00  0.00     0.236 A 
HETATM    7  N2  UNL     1      21.308   0.115  53.122  1.00  0.00    -0.223 NA
HETATM    8  C8  UNL     1      22.417   0.581  52.474  1.00  0.00     0.144 A 
HETATM    9  C15 UNL     1      25.025  -0.908  54.800  1.00  0.00     0.047 C 
HETATM   10  C16 UNL     1      26.064  -0.101  54.947  1.00  0.00     0.008 C 
HETATM   11  P1  UNL     1      26.971   0.158  53.665  1.00  0.00     0.050 P 
HETATM   12  H17 UNL     1      27.974   1.078  54.014  1.00  0.00     0.092 HD
ENDROOT
BRANCH   8  13
HETATM   13  N3  UNL     1      22.083   1.382  51.356  1.00  0.00    -0.337 N 
HETATM   14  C9  UNL     1      22.009   2.757  51.799  1.00  0.00     0.099 A 
HETATM   15  C10 UNL     1      21.655   3.785  51.030  1.00  0.00    -0.047 A 
HETATM   16  C11 UNL     1      21.557   5.230  51.430  1.00  0.00     0.049 C 
HETATM   17  C12 UNL     1      21.330   3.564  49.619  1.00  0.00     0.006 A 
HETATM   18  C13 UNL     1      21.426   2.301  49.211  1.00  0.00    -0.006 A 
HETATM   19  C14 UNL     1      21.809   1.109  49.967  1.00  0.00     0.157 A 
ENDBRANCH   8  13
BRANCH   1  20
HETATM   20  O1  UNL     1      26.729   1.418  51.392  1.00  0.00    -0.349 OA
BRANCH  20  21
HETATM   21  C2  UNL     1      26.610   2.800  51.151  1.00  0.00     0.171 C 
HETATM   22  C1  UNL     1      26.439   3.059  49.654  1.00  0.00     0.034 C 
ENDBRANCH  20  21
ENDBRANCH   1  20
BRANCH  11  23
HETATM   23  O2  UNL     1      27.654  -1.327  53.241  1.00  0.00    -0.371 OA
HETATM   24  H18 UNL     1      27.874  -1.286  52.273  1.00  0.00     0.215 HD
ENDBRANCH  11  23
TORSDOF 4
ENDMDL
