MODEL 1
REMARK VINA RESULT:      -7.3      0.000      0.000
REMARK  7 active torsions:
REMARK  status: ('A' for Active; 'I' for Inactive)
REMARK    1  A    between atoms: N1_2  and  C3_4 
REMARK    2  A    between atoms: C3_4  and  C4_5 
REMARK    3  A    between atoms: C5_6  and  C6_7 
REMARK       I    between atoms: C6_7  and  N2_9 
REMARK    4  A    between atoms: N2_9  and  C7_10 
REMARK    5  A    between atoms: C7_10  and  C8_11 
REMARK    6  A    between atoms: C10_14  and  S1_16 
REMARK    7  A    between atoms: S1_16  and  C11_17 
ROOT
HETATM    1  C8  UNL     1      26.818   1.674  52.151  1.00  0.00     0.181 A 
HETATM    2  N3  UNL     1      28.019   2.069  52.711  1.00  0.00    -0.290 NA
HETATM    3  C9  UNL     1      27.609   1.988  53.874  1.00  0.00     0.141 A 
HETATM    4  C10 UNL     1      26.283   1.562  53.531  1.00  0.00     0.213 A 
HETATM    5  F1  UNL     1      25.271   2.468  53.844  1.00  0.00    -0.222 F 
ENDROOT
BRANCH   1   6
HETATM    6  C7  UNL     1      26.008   2.685  51.356  1.00  0.00     0.155 C 
BRANCH   6   7
HETATM    7  N2  UNL     1      26.768   3.507  50.477  1.00  0.00    -0.355 N 
HETATM    8  C6  UNL     1      26.394   4.364  49.371  1.00  0.00     0.240 C 
HETATM    9  O1  UNL     1      25.153   4.269  49.269  1.00  0.00    -0.269 OA
HETATM   10  H11 UNL     1      27.819   3.486  50.676  1.00  0.00     0.162 HD
BRANCH   8  11
HETATM   11  C5  UNL     1      27.416   5.107  48.647  1.00  0.00     0.072 C 
HETATM   12  C4  UNL     1      27.853   6.326  48.323  1.00  0.00     0.008 C 
BRANCH  12  13
HETATM   13  C3  UNL     1      27.578   7.743  48.492  1.00  0.00     0.299 C 
BRANCH  13  14
HETATM   14  N1  UNL     1      26.831   8.066  49.694  1.00  0.00     0.083 N 
HETATM   15  C1  UNL     1      27.293   9.295  50.303  1.00  0.00     0.309 C 
HETATM   16  C2  UNL     1      25.431   8.312  49.319  1.00  0.00     0.309 C 
ENDBRANCH  13  14
ENDBRANCH  12  13
ENDBRANCH   8  11
ENDBRANCH   6   7
ENDBRANCH   1   6
BRANCH   4  17
HETATM   17  S1  UNL     1      25.848  -0.152  53.941  1.00  0.00    -0.079 SA
BRANCH  17  18
HETATM   18  C11 UNL     1      24.096  -0.432  53.979  1.00  0.00     0.005 A 
HETATM   19  C12 UNL     1      23.311  -0.954  54.986  1.00  0.00     0.019 A 
HETATM   20  C13 UNL     1      21.942  -1.080  54.787  1.00  0.00     0.003 A 
HETATM   21  C14 UNL     1      21.359  -0.689  53.597  1.00  0.00     0.024 A 
HETATM   22  C15 UNL     1      22.129  -0.164  52.581  1.00  0.00     0.035 A 
HETATM   23 CL1  UNL     1      21.320   0.313  51.098  1.00  0.00    -0.084 Cl
HETATM   24  C16 UNL     1      23.503  -0.037  52.777  1.00  0.00     0.042 A 
ENDBRANCH  17  18
ENDBRANCH   4  17
TORSDOF 7
ENDMDL
MODEL 2
REMARK VINA RESULT:      -6.9      2.202      2.657
REMARK  7 active torsions:
REMARK  status: ('A' for Active; 'I' for Inactive)
REMARK    1  A    between atoms: N1_2  and  C3_4 
REMARK    2  A    between atoms: C3_4  and  C4_5 
REMARK    3  A    between atoms: C5_6  and  C6_7 
REMARK       I    between atoms: C6_7  and  N2_9 
REMARK    4  A    between atoms: N2_9  and  C7_10 
REMARK    5  A    between atoms: C7_10  and  C8_11 
REMARK    6  A    between atoms: C10_14  and  S1_16 
REMARK    7  A    between atoms: S1_16  and  C11_17 
ROOT
HETATM    1  C8  UNL     1      27.525   0.967  52.771  1.00  0.00     0.181 A 
HETATM    2  N3  UNL     1      28.628   0.566  53.503  1.00  0.00    -0.290 NA
HETATM    3  C9  UNL     1      27.963   0.196  54.477  1.00  0.00     0.141 A 
HETATM    4  C10 UNL     1      26.686   0.536  53.918  1.00  0.00     0.213 A 
HETATM    5  F1  UNL     1      26.010   1.565  54.571  1.00  0.00    -0.222 F 
ENDROOT
BRANCH   1   6
HETATM    6  C7  UNL     1      27.320   2.449  52.501  1.00  0.00     0.155 C 
BRANCH   6   7
HETATM    7  N2  UNL     1      26.180   2.764  51.709  1.00  0.00    -0.355 N 
HETATM    8  C6  UNL     1      26.035   3.313  50.377  1.00  0.00     0.240 C 
HETATM    9  O1  UNL     1      27.196   3.511  49.961  1.00  0.00    -0.269 OA
HETATM   10  H11 UNL     1      25.251   2.549  52.195  1.00  0.00     0.162 HD
BRANCH   8  11
HETATM   11  C5  UNL     1      24.708   3.520  49.814  1.00  0.00     0.072 C 
HETATM   12  C4  UNL     1      23.552   4.169  49.961  1.00  0.00     0.008 C 
BRANCH  12  13
HETATM   13  C3  UNL     1      22.850   5.121  50.807  1.00  0.00     0.299 C 
BRANCH  13  14
HETATM   14  N1  UNL     1      22.943   6.498  50.356  1.00  0.00     0.083 N 
HETATM   15  C1  UNL     1      21.790   7.276  50.759  1.00  0.00     0.309 C 
HETATM   16  C2  UNL     1      24.094   7.127  51.016  1.00  0.00     0.309 C 
ENDBRANCH  13  14
ENDBRANCH  12  13
ENDBRANCH   8  11
ENDBRANCH   6   7
ENDBRANCH   1   6
BRANCH   4  17
HETATM   17  S1  UNL     1      25.602  -0.848  53.467  1.00  0.00    -0.079 SA
BRANCH  17  18
HETATM   18  C11 UNL     1      23.891  -0.531  53.819  1.00  0.00     0.005 A 
HETATM   19  C12 UNL     1      23.076  -1.083  54.784  1.00  0.00     0.019 A 
HETATM   20  C13 UNL     1      21.751  -0.675  54.873  1.00  0.00     0.003 A 
HETATM   21  C14 UNL     1      21.243   0.276  54.008  1.00  0.00     0.024 A 
HETATM   22  C15 UNL     1      22.045   0.839  53.038  1.00  0.00     0.035 A 
HETATM   23 CL1  UNL     1      21.332   2.042  51.977  1.00  0.00    -0.084 Cl
HETATM   24  C16 UNL     1      23.375   0.430  52.947  1.00  0.00     0.042 A 
ENDBRANCH  17  18
ENDBRANCH   4  17
TORSDOF 7
ENDMDL
MODEL 3
REMARK VINA RESULT:      -6.8      2.951      5.761
REMARK  7 active torsions:
REMARK  status: ('A' for Active; 'I' for Inactive)
REMARK    1  A    between atoms: N1_2  and  C3_4 
REMARK    2  A    between atoms: C3_4  and  C4_5 
REMARK    3  A    between atoms: C5_6  and  C6_7 
REMARK       I    between atoms: C6_7  and  N2_9 
REMARK    4  A    between atoms: N2_9  and  C7_10 
REMARK    5  A    between atoms: C7_10  and  C8_11 
REMARK    6  A    between atoms: C10_14  and  S1_16 
REMARK    7  A    between atoms: S1_16  and  C11_17 
ROOT
HETATM    1  C8  UNL     1      24.365   4.469  50.137  1.00  0.00     0.181 A 
HETATM    2  N3  UNL     1      23.698   5.099  49.103  1.00  0.00    -0.290 NA
HETATM    3  C9  UNL     1      22.815   4.238  49.026  1.00  0.00     0.141 A 
HETATM    4  C10 UNL     1      23.326   3.411  50.081  1.00  0.00     0.213 A 
HETATM    5  F1  UNL     1      23.785   2.157  49.680  1.00  0.00    -0.222 F 
ENDROOT
BRANCH   1   6
HETATM    6  C7  UNL     1      25.737   3.870  49.872  1.00  0.00     0.155 C 
BRANCH   6   7
HETATM    7  N2  UNL     1      26.496   3.566  51.037  1.00  0.00    -0.355 N 
HETATM    8  C6  UNL     1      26.913   2.314  51.634  1.00  0.00     0.240 C 
HETATM    9  O1  UNL     1      26.450   1.415  50.901  1.00  0.00    -0.269 OA
HETATM   10  H11 UNL     1      26.822   4.433  51.571  1.00  0.00     0.162 HD
BRANCH   8  11
HETATM   11  C5  UNL     1      27.711   2.318  52.852  1.00  0.00     0.072 C 
HETATM   12  C4  UNL     1      28.276   1.551  53.787  1.00  0.00     0.008 C 
BRANCH  12  13
HETATM   13  C3  UNL     1      28.462   0.171  54.204  1.00  0.00     0.299 C 
BRANCH  13  14
HETATM   14  N1  UNL     1      28.468  -0.784  53.111  1.00  0.00     0.083 N 
HETATM   15  C1  UNL     1      29.364  -1.892  53.368  1.00  0.00     0.309 C 
HETATM   16  C2  UNL     1      27.128  -1.377  53.003  1.00  0.00     0.309 C 
ENDBRANCH  13  14
ENDBRANCH  12  13
ENDBRANCH   8  11
ENDBRANCH   6   7
ENDBRANCH   1   6
BRANCH   4  17
HETATM   17  S1  UNL     1      22.352   3.350  51.611  1.00  0.00    -0.079 SA
BRANCH  17  18
HETATM   18  C11 UNL     1      22.486   1.796  52.457  1.00  0.00     0.005 A 
HETATM   19  C12 UNL     1      23.604   1.160  52.953  1.00  0.00     0.019 A 
HETATM   20  C13 UNL     1      23.465  -0.068  53.588  1.00  0.00     0.003 A 
HETATM   21  C14 UNL     1      22.223  -0.657  53.727  1.00  0.00     0.024 A 
HETATM   22  C15 UNL     1      21.095  -0.035  53.238  1.00  0.00     0.035 A 
HETATM   23 CL1  UNL     1      19.551  -0.841  53.453  1.00  0.00    -0.084 Cl
HETATM   24  C16 UNL     1      21.232   1.198  52.600  1.00  0.00     0.042 A 
ENDBRANCH  17  18
ENDBRANCH   4  17
TORSDOF 7
ENDMDL
MODEL 4
REMARK VINA RESULT:      -6.7      4.040      7.532
REMARK  7 active torsions:
REMARK  status: ('A' for Active; 'I' for Inactive)
REMARK    1  A    between atoms: N1_2  and  C3_4 
REMARK    2  A    between atoms: C3_4  and  C4_5 
REMARK    3  A    between atoms: C5_6  and  C6_7 
REMARK       I    between atoms: C6_7  and  N2_9 
REMARK    4  A    between atoms: N2_9  and  C7_10 
REMARK    5  A    between atoms: C7_10  and  C8_11 
REMARK    6  A    between atoms: C10_14  and  S1_16 
REMARK    7  A    between atoms: S1_16  and  C11_17 
ROOT
HETATM    1  C8  UNL     1      22.212   3.172  51.508  1.00  0.00     0.181 A 
HETATM    2  N3  UNL     1      20.860   3.412  51.672  1.00  0.00    -0.290 NA
HETATM    3  C9  UNL     1      20.958   4.628  51.478  1.00  0.00     0.141 A 
HETATM    4  C10 UNL     1      22.377   4.628  51.269  1.00  0.00     0.213 A 
HETATM    5  F1  UNL     1      23.118   5.302  52.238  1.00  0.00    -0.222 F 
ENDROOT
BRANCH   1   6
HETATM    6  C7  UNL     1      23.035   2.743  52.711  1.00  0.00     0.155 C 
BRANCH   6   7
HETATM    7  N2  UNL     1      23.741   1.517  52.551  1.00  0.00    -0.355 N 
HETATM    8  C6  UNL     1      25.126   1.151  52.759  1.00  0.00     0.240 C 
HETATM    9  O1  UNL     1      25.701   2.192  53.140  1.00  0.00    -0.269 OA
HETATM   10  H11 UNL     1      23.123   0.711  52.212  1.00  0.00     0.162 HD
BRANCH   8  11
HETATM   11  C5  UNL     1      25.563  -0.217  52.515  1.00  0.00     0.072 C 
HETATM   12  C4  UNL     1      26.590  -1.064  52.602  1.00  0.00     0.008 C 
BRANCH  12  13
HETATM   13  C3  UNL     1      27.981  -1.169  53.011  1.00  0.00     0.299 C 
BRANCH  13  14
HETATM   14  N1  UNL     1      28.528   0.051  53.577  1.00  0.00     0.083 N 
HETATM   15  C1  UNL     1      28.191   0.193  54.978  1.00  0.00     0.309 C 
HETATM   16  C2  UNL     1      29.994  -0.030  53.530  1.00  0.00     0.309 C 
ENDBRANCH  13  14
ENDBRANCH  12  13
ENDBRANCH   8  11
ENDBRANCH   6   7
ENDBRANCH   1   6
BRANCH   4  17
HETATM   17  S1  UNL     1      22.949   4.966  49.580  1.00  0.00    -0.079 SA
BRANCH  17  18
HETATM   18  C11 UNL     1      24.684   4.664  49.362  1.00  0.00     0.005 A 
HETATM   19  C12 UNL     1      25.417   3.527  49.629  1.00  0.00     0.019 A 
HETATM   20  C13 UNL     1      26.784   3.521  49.374  1.00  0.00     0.003 A 
HETATM   21  C14 UNL     1      27.413   4.638  48.859  1.00  0.00     0.024 A 
HETATM   22  C15 UNL     1      26.694   5.783  48.586  1.00  0.00     0.035 A 
HETATM   23 CL1  UNL     1      27.560   7.162  47.930  1.00  0.00    -0.084 Cl
HETATM   24  C16 UNL     1      25.324   5.791  48.841  1.00  0.00     0.042 A 
ENDBRANCH  17  18
ENDBRANCH   4  17
TORSDOF 7
ENDMDL
MODEL 5
REMARK VINA RESULT:      -6.6      3.417      4.618
REMARK  7 active torsions:
REMARK  status: ('A' for Active; 'I' for Inactive)
REMARK    1  A    between atoms: N1_2  and  C3_4 
REMARK    2  A    between atoms: C3_4  and  C4_5 
REMARK    3  A    between atoms: C5_6  and  C6_7 
REMARK       I    between atoms: C6_7  and  N2_9 
REMARK    4  A    between atoms: N2_9  and  C7_10 
REMARK    5  A    between atoms: C7_10  and  C8_11 
REMARK    6  A    between atoms: C10_14  and  S1_16 
REMARK    7  A    between atoms: S1_16  and  C11_17 
ROOT
HETATM    1  C8  UNL     1      24.064   4.460  50.880  1.00  0.00     0.181 A 
HETATM    2  N3  UNL     1      22.796   4.996  51.014  1.00  0.00    -0.290 NA
HETATM    3  C9  UNL     1      22.316   3.972  51.511  1.00  0.00     0.141 A 
HETATM    4  C10 UNL     1      23.531   3.209  51.473  1.00  0.00     0.213 A 
HETATM    5  F1  UNL     1      23.513   2.111  50.615  1.00  0.00    -0.222 F 
ENDROOT
BRANCH   1   6
HETATM    6  C7  UNL     1      24.605   4.188  49.485  1.00  0.00     0.155 C 
BRANCH   6   7
HETATM    7  N2  UNL     1      25.607   5.096  49.041  1.00  0.00    -0.355 N 
HETATM    8  C6  UNL     1      27.033   4.953  48.830  1.00  0.00     0.240 C 
HETATM    9  O1  UNL     1      27.308   3.775  49.139  1.00  0.00    -0.269 OA
HETATM   10  H11 UNL     1      25.229   6.072  48.819  1.00  0.00     0.162 HD
BRANCH   8  11
HETATM   11  C5  UNL     1      27.815   6.084  48.348  1.00  0.00     0.072 C 
HETATM   12  C4  UNL     1      29.035   6.493  47.998  1.00  0.00     0.008 C 
BRANCH  12  13
HETATM   13  C3  UNL     1      30.417   6.058  47.868  1.00  0.00     0.299 C 
BRANCH  13  14
HETATM   14  N1  UNL     1      31.214   6.245  49.066  1.00  0.00     0.083 N 
HETATM   15  C1  UNL     1      32.541   5.684  48.923  1.00  0.00     0.309 C 
HETATM   16  C2  UNL     1      31.414   7.687  49.271  1.00  0.00     0.309 C 
ENDBRANCH  13  14
ENDBRANCH  12  13
ENDBRANCH   8  11
ENDBRANCH   6   7
ENDBRANCH   1   6
BRANCH   4  17
HETATM   17  S1  UNL     1      24.310   2.843  53.072  1.00  0.00    -0.079 SA
BRANCH  17  18
HETATM   18  C11 UNL     1      25.579   1.608  52.956  1.00  0.00     0.005 A 
HETATM   19  C12 UNL     1      25.555   0.380  52.331  1.00  0.00     0.019 A 
HETATM   20  C13 UNL     1      26.684  -0.430  52.373  1.00  0.00     0.003 A 
HETATM   21  C14 UNL     1      27.827  -0.019  53.032  1.00  0.00     0.024 A 
HETATM   22  C15 UNL     1      27.868   1.207  53.662  1.00  0.00     0.035 A 
HETATM   23 CL1  UNL     1      29.354   1.664  54.478  1.00  0.00    -0.084 Cl
HETATM   24  C16 UNL     1      26.737   2.021  53.622  1.00  0.00     0.042 A 
ENDBRANCH  17  18
ENDBRANCH   4  17
TORSDOF 7
ENDMDL
MODEL 6
REMARK VINA RESULT:      -6.6      3.165      4.059
REMARK  7 active torsions:
REMARK  status: ('A' for Active; 'I' for Inactive)
REMARK    1  A    between atoms: N1_2  and  C3_4 
REMARK    2  A    between atoms: C3_4  and  C4_5 
REMARK    3  A    between atoms: C5_6  and  C6_7 
REMARK       I    between atoms: C6_7  and  N2_9 
REMARK    4  A    between atoms: N2_9  and  C7_10 
REMARK    5  A    between atoms: C7_10  and  C8_11 
REMARK    6  A    between atoms: C10_14  and  S1_16 
REMARK    7  A    between atoms: S1_16  and  C11_17 
ROOT
HETATM    1  C8  UNL     1      24.567   4.063  51.124  1.00  0.00     0.181 A 
HETATM    2  N3  UNL     1      23.356   4.655  51.433  1.00  0.00    -0.290 NA
HETATM    3  C9  UNL     1      22.909   3.655  52.006  1.00  0.00     0.141 A 
HETATM    4  C10 UNL     1      24.071   2.839  51.802  1.00  0.00     0.213 A 
HETATM    5  F1  UNL     1      23.883   1.740  50.967  1.00  0.00    -0.222 F 
ENDROOT
BRANCH   1   6
HETATM    6  C7  UNL     1      24.890   3.761  49.670  1.00  0.00     0.155 C 
BRANCH   6   7
HETATM    7  N2  UNL     1      26.231   4.036  49.281  1.00  0.00    -0.355 N 
HETATM    8  C6  UNL     1      26.869   5.217  48.738  1.00  0.00     0.240 C 
HETATM    9  O1  UNL     1      25.968   6.075  48.631  1.00  0.00    -0.269 OA
HETATM   10  H11 UNL     1      26.894   3.208  49.420  1.00  0.00     0.162 HD
BRANCH   8  11
HETATM   11  C5  UNL     1      28.295   5.203  48.440  1.00  0.00     0.072 C 
HETATM   12  C4  UNL     1      29.349   5.958  48.123  1.00  0.00     0.008 C 
BRANCH  12  13
HETATM   13  C3  UNL     1      29.764   7.326  47.862  1.00  0.00     0.299 C 
BRANCH  13  14
HETATM   14  N1  UNL     1      30.116   8.078  49.053  1.00  0.00     0.083 N 
HETATM   15  C1  UNL     1      31.425   8.687  48.939  1.00  0.00     0.309 C 
HETATM   16  C2  UNL     1      29.172   9.195  49.195  1.00  0.00     0.309 C 
ENDBRANCH  13  14
ENDBRANCH  12  13
ENDBRANCH   8  11
ENDBRANCH   6   7
ENDBRANCH   1   6
BRANCH   4  17
HETATM   17  S1  UNL     1      25.056   2.447  53.276  1.00  0.00    -0.079 SA
BRANCH  17  18
HETATM   18  C11 UNL     1      25.938   0.913  53.132  1.00  0.00     0.005 A 
HETATM   19  C12 UNL     1      25.466  -0.346  52.828  1.00  0.00     0.019 A 
HETATM   20  C13 UNL     1      26.355  -1.412  52.769  1.00  0.00     0.003 A 
HETATM   21  C14 UNL     1      27.702  -1.225  53.012  1.00  0.00     0.024 A 
HETATM   22  C15 UNL     1      28.191   0.027  53.316  1.00  0.00     0.035 A 
HETATM   23 CL1  UNL     1      29.914   0.190  53.610  1.00  0.00    -0.084 Cl
HETATM   24  C16 UNL     1      27.301   1.099  53.376  1.00  0.00     0.042 A 
ENDBRANCH  17  18
ENDBRANCH   4  17
TORSDOF 7
ENDMDL
MODEL 7
REMARK VINA RESULT:      -6.6      2.745      3.988
REMARK  7 active torsions:
REMARK  status: ('A' for Active; 'I' for Inactive)
REMARK    1  A    between atoms: N1_2  and  C3_4 
REMARK    2  A    between atoms: C3_4  and  C4_5 
REMARK    3  A    between atoms: C5_6  and  C6_7 
REMARK       I    between atoms: C6_7  and  N2_9 
REMARK    4  A    between atoms: N2_9  and  C7_10 
REMARK    5  A    between atoms: C7_10  and  C8_11 
REMARK    6  A    between atoms: C10_14  and  S1_16 
REMARK    7  A    between atoms: S1_16  and  C11_17 
ROOT
HETATM    1  C8  UNL     1      26.897   0.800  52.417  1.00  0.00     0.181 A 
HETATM    2  N3  UNL     1      27.962   0.182  53.047  1.00  0.00    -0.290 NA
HETATM    3  C9  UNL     1      27.396   0.117  54.143  1.00  0.00     0.141 A 
HETATM    4  C10 UNL     1      26.178   0.743  53.715  1.00  0.00     0.213 A 
HETATM    5  F1  UNL     1      25.914   1.982  54.295  1.00  0.00    -0.222 F 
ENDROOT
BRANCH   1   6
HETATM    6  C7  UNL     1      27.045   2.243  51.964  1.00  0.00     0.155 C 
BRANCH   6   7
HETATM    7  N2  UNL     1      25.959   2.747  51.195  1.00  0.00    -0.355 N 
HETATM    8  C6  UNL     1      25.900   3.474  49.944  1.00  0.00     0.240 C 
HETATM    9  O1  UNL     1      27.086   3.632  49.584  1.00  0.00    -0.269 OA
HETATM   10  H11 UNL     1      25.002   2.546  51.627  1.00  0.00     0.162 HD
BRANCH   8  11
HETATM   11  C5  UNL     1      24.612   3.856  49.383  1.00  0.00     0.072 C 
HETATM   12  C4  UNL     1      23.429   3.403  48.965  1.00  0.00     0.008 C 
BRANCH  12  13
HETATM   13  C3  UNL     1      22.639   2.194  48.795  1.00  0.00     0.299 C 
BRANCH  13  14
HETATM   14  N1  UNL     1      21.412   2.385  48.043  1.00  0.00     0.083 N 
HETATM   15  C1  UNL     1      20.390   3.037  48.836  1.00  0.00     0.309 C 
HETATM   16  C2  UNL     1      21.689   3.300  46.927  1.00  0.00     0.309 C 
ENDBRANCH  13  14
ENDBRANCH  12  13
ENDBRANCH   8  11
ENDBRANCH   6   7
ENDBRANCH   1   6
BRANCH   4  17
HETATM   17  S1  UNL     1      24.709  -0.319  53.618  1.00  0.00    -0.079 SA
BRANCH  17  18
HETATM   18  C11 UNL     1      23.240   0.570  53.170  1.00  0.00     0.005 A 
HETATM   19  C12 UNL     1      23.104   1.851  52.679  1.00  0.00     0.019 A 
HETATM   20  C13 UNL     1      21.835   2.343  52.395  1.00  0.00     0.003 A 
HETATM   21  C14 UNL     1      20.712   1.564  52.600  1.00  0.00     0.024 A 
HETATM   22  C15 UNL     1      20.830   0.281  53.090  1.00  0.00     0.035 A 
HETATM   23 CL1  UNL     1      19.361  -0.650  53.321  1.00  0.00    -0.084 Cl
HETATM   24  C16 UNL     1      22.102  -0.214  53.375  1.00  0.00     0.042 A 
ENDBRANCH  17  18
ENDBRANCH   4  17
TORSDOF 7
ENDMDL
MODEL 8
REMARK VINA RESULT:      -6.6      4.230      8.218
REMARK  7 active torsions:
REMARK  status: ('A' for Active; 'I' for Inactive)
REMARK    1  A    between atoms: N1_2  and  C3_4 
REMARK    2  A    between atoms: C3_4  and  C4_5 
REMARK    3  A    between atoms: C5_6  and  C6_7 
REMARK       I    between atoms: C6_7  and  N2_9 
REMARK    4  A    between atoms: N2_9  and  C7_10 
REMARK    5  A    between atoms: C7_10  and  C8_11 
REMARK    6  A    between atoms: C10_14  and  S1_16 
REMARK    7  A    between atoms: S1_16  and  C11_17 
ROOT
HETATM    1  C8  UNL     1      22.760   5.480  50.844  1.00  0.00     0.181 A 
HETATM    2  N3  UNL     1      21.893   6.538  51.050  1.00  0.00    -0.290 NA
HETATM    3  C9  UNL     1      22.722   7.398  50.735  1.00  0.00     0.141 A 
HETATM    4  C10 UNL     1      23.788   6.478  50.458  1.00  0.00     0.213 A 
HETATM    5  F1  UNL     1      24.880   6.561  51.320  1.00  0.00    -0.222 F 
ENDROOT
BRANCH   1   6
HETATM    6  C7  UNL     1      23.237   4.674  52.042  1.00  0.00     0.155 C 
BRANCH   6   7
HETATM    7  N2  UNL     1      23.929   3.472  51.722  1.00  0.00    -0.355 N 
HETATM    8  C6  UNL     1      24.713   2.553  52.519  1.00  0.00     0.240 C 
HETATM    9  O1  UNL     1      24.710   3.018  53.679  1.00  0.00    -0.269 OA
HETATM   10  H11 UNL     1      23.851   3.198  50.691  1.00  0.00     0.162 HD
BRANCH   8  11
HETATM   11  C5  UNL     1      25.304   1.374  51.902  1.00  0.00     0.072 C 
HETATM   12  C4  UNL     1      26.261   0.450  52.013  1.00  0.00     0.008 C 
BRANCH  12  13
HETATM   13  C3  UNL     1      27.364   0.012  52.852  1.00  0.00     0.299 C 
BRANCH  13  14
HETATM   14  N1  UNL     1      27.386   0.620  54.170  1.00  0.00     0.083 N 
HETATM   15  C1  UNL     1      26.374   0.058  55.040  1.00  0.00     0.309 C 
HETATM   16  C2  UNL     1      28.673   0.305  54.806  1.00  0.00     0.309 C 
ENDBRANCH  13  14
ENDBRANCH  12  13
ENDBRANCH   8  11
ENDBRANCH   6   7
ENDBRANCH   1   6
BRANCH   4  17
HETATM   17  S1  UNL     1      24.273   6.297  48.718  1.00  0.00    -0.079 SA
BRANCH  17  18
HETATM   18  C11 UNL     1      26.025   6.106  48.504  1.00  0.00     0.005 A 
HETATM   19  C12 UNL     1      26.834   5.031  48.804  1.00  0.00     0.019 A 
HETATM   20  C13 UNL     1      28.197   5.109  48.544  1.00  0.00     0.003 A 
HETATM   21  C14 UNL     1      28.748   6.248  47.991  1.00  0.00     0.024 A 
HETATM   22  C15 UNL     1      27.953   7.332  47.684  1.00  0.00     0.035 A 
HETATM   23 CL1  UNL     1      28.723   8.745  46.981  1.00  0.00    -0.084 Cl
HETATM   24  C16 UNL     1      26.586   7.256  47.944  1.00  0.00     0.042 A 
ENDBRANCH  17  18
ENDBRANCH   4  17
TORSDOF 7
ENDMDL
MODEL 9
REMARK VINA RESULT:      -6.5      3.067      4.409
REMARK  7 active torsions:
REMARK  status: ('A' for Active; 'I' for Inactive)
REMARK    1  A    between atoms: N1_2  and  C3_4 
REMARK    2  A    between atoms: C3_4  and  C4_5 
REMARK    3  A    between atoms: C5_6  and  C6_7 
REMARK       I    between atoms: C6_7  and  N2_9 
REMARK    4  A    between atoms: N2_9  and  C7_10 
REMARK    5  A    between atoms: C7_10  and  C8_11 
REMARK    6  A    between atoms: C10_14  and  S1_16 
REMARK    7  A    between atoms: S1_16  and  C11_17 
ROOT
HETATM    1  C8  UNL     1      26.263   1.991  51.762  1.00  0.00     0.181 A 
HETATM    2  N3  UNL     1      27.553   2.452  51.952  1.00  0.00    -0.290 NA
HETATM    3  C9  UNL     1      27.550   2.233  53.168  1.00  0.00     0.141 A 
HETATM    4  C10 UNL     1      26.214   1.711  53.219  1.00  0.00     0.213 A 
HETATM    5  F1  UNL     1      25.304   2.485  53.936  1.00  0.00    -0.222 F 
ENDROOT
BRANCH   1   6
HETATM    6  C7  UNL     1      25.174   2.982  51.384  1.00  0.00     0.155 C 
BRANCH   6   7
HETATM    7  N2  UNL     1      24.098   2.436  50.629  1.00  0.00    -0.355 N 
HETATM    8  C6  UNL     1      23.405   2.891  49.442  1.00  0.00     0.240 C 
HETATM    9  O1  UNL     1      23.939   3.975  49.129  1.00  0.00    -0.269 OA
HETATM   10  H11 UNL     1      23.734   1.507  51.017  1.00  0.00     0.162 HD
BRANCH   8  11
HETATM   11  C5  UNL     1      22.323   2.094  48.880  1.00  0.00     0.072 C 
HETATM   12  C4  UNL     1      21.005   1.885  48.892  1.00  0.00     0.008 C 
BRANCH  12  13
HETATM   13  C3  UNL     1      19.760   2.333  49.495  1.00  0.00     0.299 C 
BRANCH  13  14
HETATM   14  N1  UNL     1      19.782   3.712  49.948  1.00  0.00     0.083 N 
HETATM   15  C1  UNL     1      18.498   4.358  49.771  1.00  0.00     0.309 C 
HETATM   16  C2  UNL     1      20.033   3.722  51.396  1.00  0.00     0.309 C 
ENDBRANCH  13  14
ENDBRANCH  12  13
ENDBRANCH   8  11
ENDBRANCH   6   7
ENDBRANCH   1   6
BRANCH   4  17
HETATM   17  S1  UNL     1      26.048  -0.065  53.552  1.00  0.00    -0.079 SA
BRANCH  17  18
HETATM   18  C11 UNL     1      24.405  -0.528  54.039  1.00  0.00     0.005 A 
HETATM   19  C12 UNL     1      23.977  -1.178  55.177  1.00  0.00     0.019 A 
HETATM   20  C13 UNL     1      22.622  -1.436  55.346  1.00  0.00     0.003 A 
HETATM   21  C14 UNL     1      21.702  -1.051  54.389  1.00  0.00     0.024 A 
HETATM   22  C15 UNL     1      22.114  -0.400  53.246  1.00  0.00     0.035 A 
HETATM   23 CL1  UNL     1      20.890   0.062  52.075  1.00  0.00    -0.084 Cl
HETATM   24  C16 UNL     1      23.473  -0.139  53.074  1.00  0.00     0.042 A 
ENDBRANCH  17  18
ENDBRANCH   4  17
TORSDOF 7
ENDMDL
