MODEL 1
REMARK VINA RESULT:      -8.1      0.000      0.000
REMARK  4 active torsions:
REMARK  status: ('A' for Active; 'I' for Inactive)
REMARK    1  A    between atoms: N1_2  and  C3_4 
REMARK    2  A    between atoms: C3_4  and  C4_5 
REMARK    3  A    between atoms: N3_26  and  O2_27 
REMARK    4  A    between atoms: C24_31  and  O4_32 
ROOT
HETATM    1  C4  UNL     1      30.106  11.674  46.929  1.00  0.00     0.151 C 
HETATM    2  C5  UNL     1      28.950  10.749  47.071  1.00  0.00     0.053 C 
HETATM    3  C6  UNL     1      29.026   9.449  46.354  1.00  0.00     0.125 C 
HETATM    4  N2  UNL     1      27.810   8.702  46.612  1.00  0.00    -0.384 N 
HETATM    5  C7  UNL     1      26.640   9.313  45.965  1.00  0.00     0.149 C 
HETATM    6  C8  UNL     1      27.882   7.522  47.436  1.00  0.00     0.041 A 
HETATM    7  C9  UNL     1      27.242   6.699  48.300  1.00  0.00     0.044 A 
HETATM    8  C10 UNL     1      28.603   6.472  47.894  1.00  0.00    -0.007 A 
HETATM    9  C11 UNL     1      29.841   6.114  47.638  1.00  0.00     0.013 C 
HETATM   10  C12 UNL     1      30.738   5.052  48.034  1.00  0.00    -0.003 C 
HETATM   11  C13 UNL     1      31.977   4.714  47.765  1.00  0.00    -0.022 C 
HETATM   12  C14 UNL     1      32.822   5.497  46.847  1.00  0.00     0.071 C 
HETATM   13  C15 UNL     1      33.985   6.005  47.612  1.00  0.00     0.014 A 
HETATM   14  C16 UNL     1      34.199   7.303  47.512  1.00  0.00     0.047 A 
HETATM   15  C17 UNL     1      33.370   8.178  46.717  1.00  0.00     0.045 C 
HETATM   16  C18 UNL     1      32.937   8.595  45.543  1.00  0.00     0.041 C 
HETATM   17  C19 UNL     1      32.133   9.439  44.682  1.00  0.00     0.060 C 
HETATM   18  C20 UNL     1      32.200  10.907  44.833  1.00  0.00     0.038 C 
HETATM   19  C21 UNL     1      32.337  11.438  46.219  1.00  0.00     0.169 C 
HETATM   20  O1  UNL     1      31.353  11.224  47.098  1.00  0.00    -0.384 OA
HETATM   21  C22 UNL     1      33.065   8.994  43.545  1.00  0.00     0.166 C 
HETATM   22  N3  UNL     1      33.443   7.893  44.385  1.00  0.00    -0.264 N 
HETATM   23  C23 UNL     1      35.346   7.771  48.275  1.00  0.00     0.280 A 
HETATM   24  O3  UNL     1      35.746   8.982  48.334  1.00  0.00    -0.265 OA
HETATM   25  N4  UNL     1      35.810   6.589  48.856  1.00  0.00    -0.185 NA
HETATM   26  C24 UNL     1      35.068   5.625  48.494  1.00  0.00     0.173 A 
ENDROOT
BRANCH   1  27
HETATM   27  C3  UNL     1      29.752  12.883  47.811  1.00  0.00     0.303 C 
BRANCH  27  28
HETATM   28  N1  UNL     1      28.625  13.622  47.273  1.00  0.00     0.082 N 
HETATM   29  C1  UNL     1      27.708  13.836  48.379  1.00  0.00     0.309 C 
HETATM   30  C2  UNL     1      29.134  14.939  46.933  1.00  0.00     0.309 C 
ENDBRANCH  27  28
ENDBRANCH   1  27
BRANCH  22  31
HETATM   31  O2  UNL     1      34.028   6.763  43.944  1.00  0.00    -0.287 OA
HETATM   32  H31 UNL     1      34.082   6.041  44.596  1.00  0.00     0.244 HD
ENDBRANCH  22  31
BRANCH  26  33
HETATM   33  O4  UNL     1      35.195   4.267  48.859  1.00  0.00    -0.344 OA
HETATM   34  H32 UNL     1      35.907   3.697  48.421  1.00  0.00     0.219 HD
ENDBRANCH  26  33
TORSDOF 4
ENDMDL
MODEL 2
REMARK VINA RESULT:      -8.1     11.281     14.612
REMARK  4 active torsions:
REMARK  status: ('A' for Active; 'I' for Inactive)
REMARK    1  A    between atoms: N1_2  and  C3_4 
REMARK    2  A    between atoms: C3_4  and  C4_5 
REMARK    3  A    between atoms: N3_26  and  O2_27 
REMARK    4  A    between atoms: C24_31  and  O4_32 
ROOT
HETATM    1  C4  UNL     1      16.168   3.257  50.522  1.00  0.00     0.151 C 
HETATM    2  C5  UNL     1      16.095   1.874  51.064  1.00  0.00     0.053 C 
HETATM    3  C6  UNL     1      17.180   0.934  50.680  1.00  0.00     0.125 C 
HETATM    4  N2  UNL     1      16.925  -0.352  51.300  1.00  0.00    -0.384 N 
HETATM    5  C7  UNL     1      15.752  -1.022  50.720  1.00  0.00     0.149 C 
HETATM    6  C8  UNL     1      17.793  -0.795  52.362  1.00  0.00     0.041 A 
HETATM    7  C9  UNL     1      17.923  -1.533  53.490  1.00  0.00     0.044 A 
HETATM    8  C10 UNL     1      19.017  -0.779  52.939  1.00  0.00    -0.007 A 
HETATM    9  C11 UNL     1      20.117  -0.155  52.584  1.00  0.00     0.013 C 
HETATM   10  C12 UNL     1      21.470  -0.034  53.077  1.00  0.00    -0.003 C 
HETATM   11  C13 UNL     1      22.557   0.599  52.704  1.00  0.00    -0.022 C 
HETATM   12  C14 UNL     1      22.596   1.450  51.501  1.00  0.00     0.071 C 
HETATM   13  C15 UNL     1      22.914   2.833  51.926  1.00  0.00     0.014 A 
HETATM   14  C16 UNL     1      22.086   3.761  51.483  1.00  0.00     0.047 A 
HETATM   15  C17 UNL     1      20.949   3.465  50.642  1.00  0.00     0.045 C 
HETATM   16  C18 UNL     1      20.448   3.075  49.487  1.00  0.00     0.041 C 
HETATM   17  C19 UNL     1      19.356   2.760  48.587  1.00  0.00     0.060 C 
HETATM   18  C20 UNL     1      18.284   3.751  48.367  1.00  0.00     0.038 C 
HETATM   19  C21 UNL     1      17.863   4.564  49.544  1.00  0.00     0.169 C 
HETATM   20  O1  UNL     1      17.309   3.949  50.594  1.00  0.00    -0.384 OA
HETATM   21  C22 UNL     1      20.392   2.860  47.458  1.00  0.00     0.166 C 
HETATM   22  N3  UNL     1      21.399   2.696  48.467  1.00  0.00    -0.264 N 
HETATM   23  C23 UNL     1      22.423   5.107  51.918  1.00  0.00     0.280 A 
HETATM   24  O3  UNL     1      21.770   6.162  51.619  1.00  0.00    -0.265 OA
HETATM   25  N4  UNL     1      23.569   4.886  52.686  1.00  0.00    -0.185 NA
HETATM   26  C24 UNL     1      23.837   3.646  52.690  1.00  0.00     0.173 A 
ENDROOT
BRANCH   1  27
HETATM   27  C3  UNL     1      14.956   3.982  51.130  1.00  0.00     0.303 C 
BRANCH  27  28
HETATM   28  N1  UNL     1      14.578   3.407  52.407  1.00  0.00     0.082 N 
HETATM   29  C1  UNL     1      14.990   4.358  53.425  1.00  0.00     0.309 C 
HETATM   30  C2  UNL     1      13.126   3.415  52.437  1.00  0.00     0.309 C 
ENDBRANCH  27  28
ENDBRANCH   1  27
BRANCH  22  31
HETATM   31  O2  UNL     1      22.667   2.313  48.225  1.00  0.00    -0.287 OA
HETATM   32  H31 UNL     1      22.956   1.511  48.695  1.00  0.00     0.244 HD
ENDBRANCH  22  31
BRANCH  26  33
HETATM   33  O4  UNL     1      24.911   3.007  53.347  1.00  0.00    -0.344 OA
HETATM   34  H32 UNL     1      25.123   2.040  53.133  1.00  0.00     0.219 HD
ENDBRANCH  26  33
TORSDOF 4
ENDMDL
MODEL 3
REMARK VINA RESULT:      -7.9      2.349      6.835
REMARK  4 active torsions:
REMARK  status: ('A' for Active; 'I' for Inactive)
REMARK    1  A    between atoms: N1_2  and  C3_4 
REMARK    2  A    between atoms: C3_4  and  C4_5 
REMARK    3  A    between atoms: N3_26  and  O2_27 
REMARK    4  A    between atoms: C24_31  and  O4_32 
ROOT
HETATM    1  C4  UNL     1      33.588   9.350  45.437  1.00  0.00     0.151 C 
HETATM    2  C5  UNL     1      33.859   8.035  46.076  1.00  0.00     0.053 C 
HETATM    3  C6  UNL     1      33.188   7.756  47.372  1.00  0.00     0.125 C 
HETATM    4  N2  UNL     1      33.584   6.437  47.828  1.00  0.00    -0.384 N 
HETATM    5  C7  UNL     1      34.997   6.393  48.228  1.00  0.00     0.149 C 
HETATM    6  C8  UNL     1      32.605   5.379  47.825  1.00  0.00     0.041 A 
HETATM    7  C9  UNL     1      32.371   4.049  47.727  1.00  0.00     0.044 A 
HETATM    8  C10 UNL     1      31.309   5.001  47.914  1.00  0.00    -0.007 A 
HETATM    9  C11 UNL     1      30.222   5.721  48.079  1.00  0.00     0.013 C 
HETATM   10  C12 UNL     1      28.801   5.481  48.190  1.00  0.00    -0.003 C 
HETATM   11  C13 UNL     1      27.729   6.219  48.354  1.00  0.00    -0.022 C 
HETATM   12  C14 UNL     1      27.799   7.686  48.478  1.00  0.00     0.071 C 
HETATM   13  C15 UNL     1      27.043   8.279  47.350  1.00  0.00     0.014 A 
HETATM   14  C16 UNL     1      27.697   9.187  46.651  1.00  0.00     0.047 A 
HETATM   15  C17 UNL     1      29.053   9.585  46.952  1.00  0.00     0.045 C 
HETATM   16  C18 UNL     1      29.924  10.185  47.739  1.00  0.00     0.041 C 
HETATM   17  C19 UNL     1      31.259  10.617  48.105  1.00  0.00     0.060 C 
HETATM   18  C20 UNL     1      32.066  11.388  47.139  1.00  0.00     0.038 C 
HETATM   19  C21 UNL     1      31.942  11.010  45.702  1.00  0.00     0.169 C 
HETATM   20  O1  UNL     1      32.333   9.793  45.313  1.00  0.00    -0.384 OA
HETATM   21  C22 UNL     1      30.568  11.579  49.085  1.00  0.00     0.166 C 
HETATM   22  N3  UNL     1      29.404  10.748  48.965  1.00  0.00    -0.264 N 
HETATM   23  C23 UNL     1      26.931   9.749  45.551  1.00  0.00     0.280 A 
HETATM   24  O3  UNL     1      27.353  10.638  44.738  1.00  0.00    -0.265 OA
HETATM   25  N4  UNL     1      25.716   9.069  45.666  1.00  0.00    -0.185 NA
HETATM   26  C24 UNL     1      25.777   8.267  46.648  1.00  0.00     0.173 A 
ENDROOT
BRANCH   1  27
HETATM   27  C3  UNL     1      34.373   9.315  44.115  1.00  0.00     0.303 C 
BRANCH  27  28
HETATM   28  N1  UNL     1      34.193   8.052  43.423  1.00  0.00     0.082 N 
HETATM   29  C1  UNL     1      33.228   8.298  42.365  1.00  0.00     0.309 C 
HETATM   30  C2  UNL     1      35.449   7.783  42.746  1.00  0.00     0.309 C 
ENDBRANCH  27  28
ENDBRANCH   1  27
BRANCH  22  31
HETATM   31  O2  UNL     1      28.384  10.731  49.843  1.00  0.00    -0.287 OA
HETATM   32  H31 UNL     1      28.622  10.477  50.752  1.00  0.00     0.244 HD
ENDBRANCH  22  31
BRANCH  26  33
HETATM   33  O4  UNL     1      24.763   7.396  47.103  1.00  0.00    -0.344 OA
HETATM   34  H32 UNL     1      24.423   6.664  46.492  1.00  0.00     0.219 HD
ENDBRANCH  26  33
TORSDOF 4
ENDMDL
MODEL 4
REMARK VINA RESULT:      -7.7     10.613     14.088
REMARK  4 active torsions:
REMARK  status: ('A' for Active; 'I' for Inactive)
REMARK    1  A    between atoms: N1_2  and  C3_4 
REMARK    2  A    between atoms: C3_4  and  C4_5 
REMARK    3  A    between atoms: N3_26  and  O2_27 
REMARK    4  A    between atoms: C24_31  and  O4_32 
ROOT
HETATM    1  C4  UNL     1      26.050  -0.010  52.758  1.00  0.00     0.151 C 
HETATM    2  C5  UNL     1      25.123  -0.784  53.626  1.00  0.00     0.053 C 
HETATM    3  C6  UNL     1      23.911  -0.082  54.125  1.00  0.00     0.125 C 
HETATM    4  N2  UNL     1      23.149  -0.999  54.951  1.00  0.00    -0.384 N 
HETATM    5  C7  UNL     1      23.837  -1.307  56.213  1.00  0.00     0.149 C 
HETATM    6  C8  UNL     1      21.883  -1.485  54.463  1.00  0.00     0.041 A 
HETATM    7  C9  UNL     1      20.973  -2.487  54.467  1.00  0.00     0.044 A 
HETATM    8  C10 UNL     1      20.784  -1.286  53.699  1.00  0.00    -0.007 A 
HETATM    9  C11 UNL     1      20.448  -0.267  52.941  1.00  0.00     0.013 C 
HETATM   10  C12 UNL     1      19.341   0.093  52.083  1.00  0.00    -0.003 C 
HETATM   11  C13 UNL     1      19.026   1.121  51.330  1.00  0.00    -0.022 C 
HETATM   12  C14 UNL     1      19.902   2.300  51.207  1.00  0.00     0.071 C 
HETATM   13  C15 UNL     1      20.312   2.421  49.788  1.00  0.00     0.014 A 
HETATM   14  C16 UNL     1      21.612   2.529  49.586  1.00  0.00     0.047 A 
HETATM   15  C17 UNL     1      22.577   2.532  50.662  1.00  0.00     0.045 C 
HETATM   16  C18 UNL     1      23.125   3.115  51.709  1.00  0.00     0.041 C 
HETATM   17  C19 UNL     1      24.067   3.187  52.809  1.00  0.00     0.060 C 
HETATM   18  C20 UNL     1      25.507   2.995  52.548  1.00  0.00     0.038 C 
HETATM   19  C21 UNL     1      25.879   1.983  51.519  1.00  0.00     0.169 C 
HETATM   20  O1  UNL     1      25.574   0.699  51.729  1.00  0.00    -0.384 OA
HETATM   21  C22 UNL     1      23.746   4.689  52.853  1.00  0.00     0.166 C 
HETATM   22  N3  UNL     1      22.554   4.380  52.114  1.00  0.00    -0.264 N 
HETATM   23  C23 UNL     1      21.983   2.645  48.185  1.00  0.00     0.280 A 
HETATM   24  O3  UNL     1      23.176   2.759  47.747  1.00  0.00    -0.265 OA
HETATM   25  N4  UNL     1      20.740   2.596  47.550  1.00  0.00    -0.185 NA
HETATM   26  C24 UNL     1      19.828   2.474  48.425  1.00  0.00     0.173 A 
ENDROOT
BRANCH   1  27
HETATM   27  C3  UNL     1      27.155  -1.007  52.374  1.00  0.00     0.303 C 
BRANCH  27  28
HETATM   28  N1  UNL     1      28.126  -1.162  53.441  1.00  0.00     0.082 N 
HETATM   29  C1  UNL     1      29.030  -2.220  53.024  1.00  0.00     0.309 C 
HETATM   30  C2  UNL     1      28.924   0.051  53.437  1.00  0.00     0.309 C 
ENDBRANCH  27  28
ENDBRANCH   1  27
BRANCH  22  31
HETATM   31  O2  UNL     1      21.477   5.184  52.033  1.00  0.00    -0.287 OA
HETATM   32  H31 UNL     1      20.621   4.726  51.958  1.00  0.00     0.244 HD
ENDBRANCH  22  31
BRANCH  26  33
HETATM   33  O4  UNL     1      18.436   2.388  48.201  1.00  0.00    -0.344 OA
HETATM   34  H32 UNL     1      17.868   3.224  48.260  1.00  0.00     0.219 HD
ENDBRANCH  26  33
TORSDOF 4
ENDMDL
MODEL 5
REMARK VINA RESULT:      -7.5      5.437      9.144
REMARK  4 active torsions:
REMARK  status: ('A' for Active; 'I' for Inactive)
REMARK    1  A    between atoms: N1_2  and  C3_4 
REMARK    2  A    between atoms: C3_4  and  C4_5 
REMARK    3  A    between atoms: N3_26  and  O2_27 
REMARK    4  A    between atoms: C24_31  and  O4_32 
ROOT
HETATM    1  C4  UNL     1      25.826   8.942  45.193  1.00  0.00     0.151 C 
HETATM    2  C5  UNL     1      27.111   8.535  45.819  1.00  0.00     0.053 C 
HETATM    3  C6  UNL     1      27.084   8.184  47.264  1.00  0.00     0.125 C 
HETATM    4  N2  UNL     1      28.426   7.825  47.682  1.00  0.00    -0.384 N 
HETATM    5  C7  UNL     1      29.330   8.984  47.690  1.00  0.00     0.149 C 
HETATM    6  C8  UNL     1      28.706   6.450  48.011  1.00  0.00     0.041 A 
HETATM    7  C9  UNL     1      29.628   5.461  48.066  1.00  0.00     0.044 A 
HETATM    8  C10 UNL     1      28.262   5.256  48.468  1.00  0.00    -0.007 A 
HETATM    9  C11 UNL     1      27.067   4.891  48.871  1.00  0.00     0.013 C 
HETATM   10  C12 UNL     1      26.442   3.688  49.374  1.00  0.00    -0.003 C 
HETATM   11  C13 UNL     1      25.240   3.344  49.771  1.00  0.00    -0.022 C 
HETATM   12  C14 UNL     1      24.113   4.295  49.776  1.00  0.00     0.071 C 
HETATM   13  C15 UNL     1      23.073   3.779  48.856  1.00  0.00     0.014 A 
HETATM   14  C16 UNL     1      22.649   4.639  47.949  1.00  0.00     0.047 A 
HETATM   15  C17 UNL     1      23.153   5.989  47.850  1.00  0.00     0.045 C 
HETATM   16  C18 UNL     1      23.264   7.211  48.333  1.00  0.00     0.041 C 
HETATM   17  C19 UNL     1      23.735   8.581  48.300  1.00  0.00     0.060 C 
HETATM   18  C20 UNL     1      23.481   9.409  47.104  1.00  0.00     0.038 C 
HETATM   19  C21 UNL     1      23.558   8.727  45.780  1.00  0.00     0.169 C 
HETATM   20  O1  UNL     1      24.723   8.210  45.382  1.00  0.00    -0.384 OA
HETATM   21  C22 UNL     1      22.664   8.869  49.363  1.00  0.00     0.166 C 
HETATM   22  N3  UNL     1      22.640   7.455  49.614  1.00  0.00    -0.264 N 
HETATM   23  C23 UNL     1      21.630   4.104  47.061  1.00  0.00     0.280 A 
HETATM   24  O3  UNL     1      21.073   4.746  46.108  1.00  0.00    -0.265 OA
HETATM   25  N4  UNL     1      21.480   2.802  47.542  1.00  0.00    -0.185 NA
HETATM   26  C24 UNL     1      22.267   2.624  48.521  1.00  0.00     0.173 A 
ENDROOT
BRANCH   1  27
HETATM   27  C3  UNL     1      26.169   9.187  43.714  1.00  0.00     0.303 C 
BRANCH  27  28
HETATM   28  N1  UNL     1      26.284  10.604  43.422  1.00  0.00     0.082 N 
HETATM   29  C1  UNL     1      26.944  10.705  42.132  1.00  0.00     0.309 C 
HETATM   30  C2  UNL     1      24.930  11.079  43.202  1.00  0.00     0.309 C 
ENDBRANCH  27  28
ENDBRANCH   1  27
BRANCH  22  31
HETATM   31  O2  UNL     1      22.153   6.887  50.733  1.00  0.00    -0.287 OA
HETATM   32  H31 UNL     1      22.671   6.139  51.080  1.00  0.00     0.244 HD
ENDBRANCH  22  31
BRANCH  26  33
HETATM   33  O4  UNL     1      22.425   1.448  49.287  1.00  0.00    -0.344 OA
HETATM   34  H32 UNL     1      22.164   0.555  48.890  1.00  0.00     0.219 HD
ENDBRANCH  26  33
TORSDOF 4
ENDMDL
MODEL 6
REMARK VINA RESULT:      -7.5     23.821     26.066
REMARK  4 active torsions:
REMARK  status: ('A' for Active; 'I' for Inactive)
REMARK    1  A    between atoms: N1_2  and  C3_4 
REMARK    2  A    between atoms: C3_4  and  C4_5 
REMARK    3  A    between atoms: N3_26  and  O2_27 
REMARK    4  A    between atoms: C24_31  and  O4_32 
ROOT
HETATM    1  C4  UNL     1      38.915   0.370  68.719  1.00  0.00     0.151 C 
HETATM    2  C5  UNL     1      38.113   1.313  69.542  1.00  0.00     0.053 C 
HETATM    3  C6  UNL     1      38.794   1.966  70.690  1.00  0.00     0.125 C 
HETATM    4  N2  UNL     1      37.847   2.835  71.362  1.00  0.00    -0.384 N 
HETATM    5  C7  UNL     1      36.796   2.075  72.053  1.00  0.00     0.149 C 
HETATM    6  C8  UNL     1      38.028   4.261  71.271  1.00  0.00     0.041 A 
HETATM    7  C9  UNL     1      37.444   5.483  71.273  1.00  0.00     0.044 A 
HETATM    8  C10 UNL     1      38.864   5.315  71.125  1.00  0.00    -0.007 A 
HETATM    9  C11 UNL     1      40.169   5.351  70.977  1.00  0.00     0.013 C 
HETATM   10  C12 UNL     1      41.187   6.364  70.811  1.00  0.00    -0.003 C 
HETATM   11  C13 UNL     1      42.491   6.376  70.663  1.00  0.00    -0.022 C 
HETATM   12  C14 UNL     1      43.289   5.138  70.635  1.00  0.00     0.071 C 
HETATM   13  C15 UNL     1      43.955   5.049  69.315  1.00  0.00     0.014 A 
HETATM   14  C16 UNL     1      43.781   3.909  68.673  1.00  0.00     0.047 A 
HETATM   15  C17 UNL     1      43.000   2.817  69.208  1.00  0.00     0.045 C 
HETATM   16  C18 UNL     1      42.833   1.851  70.090  1.00  0.00     0.041 C 
HETATM   17  C19 UNL     1      42.104   0.745  70.679  1.00  0.00     0.060 C 
HETATM   18  C20 UNL     1      41.669  -0.378  69.825  1.00  0.00     0.038 C 
HETATM   19  C21 UNL     1      41.216  -0.042  68.445  1.00  0.00     0.169 C 
HETATM   20  O1  UNL     1      40.130   0.721  68.285  1.00  0.00    -0.384 OA
HETATM   21  C22 UNL     1      43.423   0.381  71.378  1.00  0.00     0.166 C 
HETATM   22  N3  UNL     1      43.851   1.725  71.108  1.00  0.00    -0.264 N 
HETATM   23  C23 UNL     1      44.445   3.852  67.381  1.00  0.00     0.280 A 
HETATM   24  O3  UNL     1      44.418   2.857  66.583  1.00  0.00    -0.265 OA
HETATM   25  N4  UNL     1      45.053   5.108  67.312  1.00  0.00    -0.185 NA
HETATM   26  C24 UNL     1      44.786   5.761  68.367  1.00  0.00     0.173 A 
ENDROOT
BRANCH   1  27
HETATM   27  C3  UNL     1      37.961  -0.091  67.604  1.00  0.00     0.303 C 
BRANCH  27  28
HETATM   28  N1  UNL     1      37.749  -1.526  67.645  1.00  0.00     0.082 N 
HETATM   29  C1  UNL     1      38.660  -2.103  66.671  1.00  0.00     0.309 C 
HETATM   30  C2  UNL     1      38.237  -1.967  68.939  1.00  0.00     0.309 C 
ENDBRANCH  27  28
ENDBRANCH   1  27
BRANCH  22  31
HETATM   31  O2  UNL     1      44.858   2.349  71.748  1.00  0.00    -0.287 OA
HETATM   32  H31 UNL     1      45.728   2.287  71.315  1.00  0.00     0.244 HD
ENDBRANCH  22  31
BRANCH  26  33
HETATM   33  O4  UNL     1      45.209   7.069  68.692  1.00  0.00    -0.344 OA
HETATM   34  H32 UNL     1      46.093   7.410  68.337  1.00  0.00     0.219 HD
ENDBRANCH  26  33
TORSDOF 4
ENDMDL
MODEL 7
REMARK VINA RESULT:      -7.2     10.698     14.112
REMARK  4 active torsions:
REMARK  status: ('A' for Active; 'I' for Inactive)
REMARK    1  A    between atoms: N1_2  and  C3_4 
REMARK    2  A    between atoms: C3_4  and  C4_5 
REMARK    3  A    between atoms: N3_26  and  O2_27 
REMARK    4  A    between atoms: C24_31  and  O4_32 
ROOT
HETATM    1  C4  UNL     1      23.986   1.205  52.115  1.00  0.00     0.151 C 
HETATM    2  C5  UNL     1      22.881   0.488  52.805  1.00  0.00     0.053 C 
HETATM    3  C6  UNL     1      21.596   1.216  52.970  1.00  0.00     0.125 C 
HETATM    4  N2  UNL     1      20.658   0.356  53.666  1.00  0.00    -0.384 N 
HETATM    5  C7  UNL     1      21.043   0.140  55.068  1.00  0.00     0.149 C 
HETATM    6  C8  UNL     1      19.529  -0.170  52.942  1.00  0.00     0.041 A 
HETATM    7  C9  UNL     1      18.631  -1.174  52.811  1.00  0.00     0.044 A 
HETATM    8  C10 UNL     1      18.630  -0.030  51.940  1.00  0.00    -0.007 A 
HETATM    9  C11 UNL     1      18.483   0.932  51.057  1.00  0.00     0.013 C 
HETATM   10  C12 UNL     1      17.600   1.226  49.950  1.00  0.00    -0.003 C 
HETATM   11  C13 UNL     1      17.473   2.197  49.077  1.00  0.00    -0.022 C 
HETATM   12  C14 UNL     1      18.366   3.369  49.071  1.00  0.00     0.071 C 
HETATM   13  C15 UNL     1      19.084   3.393  47.776  1.00  0.00     0.014 A 
HETATM   14  C16 UNL     1      20.397   3.493  47.863  1.00  0.00     0.047 A 
HETATM   15  C17 UNL     1      21.097   3.576  49.124  1.00  0.00     0.045 C 
HETATM   16  C18 UNL     1      21.404   4.234  50.224  1.00  0.00     0.041 C 
HETATM   17  C19 UNL     1      22.077   4.387  51.500  1.00  0.00     0.060 C 
HETATM   18  C20 UNL     1      23.537   4.184  51.581  1.00  0.00     0.038 C 
HETATM   19  C21 UNL     1      24.118   3.105  50.734  1.00  0.00     0.169 C 
HETATM   20  O1  UNL     1      23.761   1.837  50.959  1.00  0.00    -0.384 OA
HETATM   21  C22 UNL     1      21.770   5.886  51.367  1.00  0.00     0.166 C 
HETATM   22  N3  UNL     1      20.770   5.521  50.403  1.00  0.00    -0.264 N 
HETATM   23  C23 UNL     1      21.074   3.514  46.576  1.00  0.00     0.280 A 
HETATM   24  O3  UNL     1      22.336   3.602  46.409  1.00  0.00    -0.265 OA
HETATM   25  N4  UNL     1      20.003   3.414  45.684  1.00  0.00    -0.185 NA
HETATM   26  C24 UNL     1      18.918   3.349  46.338  1.00  0.00     0.173 A 
ENDROOT
BRANCH   1  27
HETATM   27  C3  UNL     1      25.139   0.188  52.058  1.00  0.00     0.303 C 
BRANCH  27  28
HETATM   28  N1  UNL     1      26.423   0.827  52.284  1.00  0.00     0.082 N 
HETATM   29  C1  UNL     1      26.263   1.662  53.462  1.00  0.00     0.309 C 
HETATM   30  C2  UNL     1      27.333  -0.232  52.681  1.00  0.00     0.309 C 
ENDBRANCH  27  28
ENDBRANCH   1  27
BRANCH  22  31
HETATM   31  O2  UNL     1      19.747   6.311  50.028  1.00  0.00    -0.287 OA
HETATM   32  H31 UNL     1      19.373   6.120  49.150  1.00  0.00     0.244 HD
ENDBRANCH  22  31
BRANCH  26  33
HETATM   33  O4  UNL     1      17.611   3.240  45.815  1.00  0.00    -0.344 OA
HETATM   34  H32 UNL     1      17.201   2.324  45.680  1.00  0.00     0.219 HD
ENDBRANCH  26  33
TORSDOF 4
ENDMDL
MODEL 8
REMARK VINA RESULT:      -7.1     12.462     16.511
REMARK  4 active torsions:
REMARK  status: ('A' for Active; 'I' for Inactive)
REMARK    1  A    between atoms: N1_2  and  C3_4 
REMARK    2  A    between atoms: C3_4  and  C4_5 
REMARK    3  A    between atoms: N3_26  and  O2_27 
REMARK    4  A    between atoms: C24_31  and  O4_32 
ROOT
HETATM    1  C4  UNL     1      20.803   3.037  48.978  1.00  0.00     0.151 C 
HETATM    2  C5  UNL     1      21.655   2.564  50.101  1.00  0.00     0.053 C 
HETATM    3  C6  UNL     1      21.013   2.437  51.436  1.00  0.00     0.125 C 
HETATM    4  N2  UNL     1      22.004   1.972  52.387  1.00  0.00    -0.384 N 
HETATM    5  C7  UNL     1      23.026   2.992  52.662  1.00  0.00     0.149 C 
HETATM    6  C8  UNL     1      21.888   0.636  52.915  1.00  0.00     0.041 A 
HETATM    7  C9  UNL     1      22.526  -0.446  53.419  1.00  0.00     0.044 A 
HETATM    8  C10 UNL     1      21.098  -0.410  53.253  1.00  0.00    -0.007 A 
HETATM    9  C11 UNL     1      19.795  -0.554  53.169  1.00  0.00     0.013 C 
HETATM   10  C12 UNL     1      18.822  -1.579  53.477  1.00  0.00    -0.003 C 
HETATM   11  C13 UNL     1      17.519  -1.701  53.383  1.00  0.00    -0.022 C 
HETATM   12  C14 UNL     1      16.666  -0.622  52.854  1.00  0.00     0.071 C 
HETATM   13  C15 UNL     1      15.985  -1.128  51.640  1.00  0.00     0.014 A 
HETATM   14  C16 UNL     1      16.102  -0.364  50.570  1.00  0.00     0.047 A 
HETATM   15  C17 UNL     1      16.837   0.880  50.570  1.00  0.00     0.045 C 
HETATM   16  C18 UNL     1      16.969   2.134  50.953  1.00  0.00     0.041 C 
HETATM   17  C19 UNL     1      17.652   3.413  50.997  1.00  0.00     0.060 C 
HETATM   18  C20 UNL     1      18.028   4.081  49.736  1.00  0.00     0.038 C 
HETATM   19  C21 UNL     1      18.484   3.208  48.618  1.00  0.00     0.169 C 
HETATM   20  O1  UNL     1      19.602   2.490  48.767  1.00  0.00    -0.384 OA
HETATM   21  C22 UNL     1      16.323   3.990  51.511  1.00  0.00     0.166 C 
HETATM   22  N3  UNL     1      15.955   2.644  51.849  1.00  0.00    -0.264 N 
HETATM   23  C23 UNL     1      15.425  -0.887  49.395  1.00  0.00     0.280 A 
HETATM   24  O3  UNL     1      15.400  -0.326  48.249  1.00  0.00    -0.265 OA
HETATM   25  N4  UNL     1      14.873  -2.074  49.881  1.00  0.00    -0.185 NA
HETATM   26  C24 UNL     1      15.178  -2.206  51.106  1.00  0.00     0.173 A 
ENDROOT
BRANCH   1  27
HETATM   27  C3  UNL     1      21.726   3.015  47.748  1.00  0.00     0.303 C 
BRANCH  27  28
HETATM   28  N1  UNL     1      21.554   4.204  46.933  1.00  0.00     0.082 N 
HETATM   29  C1  UNL     1      22.577   5.143  47.357  1.00  0.00     0.309 C 
HETATM   30  C2  UNL     1      21.919   3.820  45.581  1.00  0.00     0.309 C 
ENDBRANCH  27  28
ENDBRANCH   1  27
BRANCH  22  31
HETATM   31  O2  UNL     1      14.982   2.315  52.720  1.00  0.00    -0.287 OA
HETATM   32  H31 UNL     1      14.092   2.636  52.491  1.00  0.00     0.244 HD
ENDBRANCH  22  31
BRANCH  26  33
HETATM   33  O4  UNL     1      14.819  -3.267  51.967  1.00  0.00    -0.344 OA
HETATM   34  H32 UNL     1      13.943  -3.753  51.820  1.00  0.00     0.219 HD
ENDBRANCH  26  33
TORSDOF 4
ENDMDL
MODEL 9
REMARK VINA RESULT:      -6.8     12.090     15.899
REMARK  4 active torsions:
REMARK  status: ('A' for Active; 'I' for Inactive)
REMARK    1  A    between atoms: N1_2  and  C3_4 
REMARK    2  A    between atoms: C3_4  and  C4_5 
REMARK    3  A    between atoms: N3_26  and  O2_27 
REMARK    4  A    between atoms: C24_31  and  O4_32 
ROOT
HETATM    1  C4  UNL     1      14.908   2.956  51.913  1.00  0.00     0.151 C 
HETATM    2  C5  UNL     1      15.462   1.666  52.402  1.00  0.00     0.053 C 
HETATM    3  C6  UNL     1      16.254   0.856  51.439  1.00  0.00     0.125 C 
HETATM    4  N2  UNL     1      16.695  -0.357  52.102  1.00  0.00    -0.384 N 
HETATM    5  C7  UNL     1      15.578  -1.268  52.386  1.00  0.00     0.149 C 
HETATM    6  C8  UNL     1      18.096  -0.514  52.401  1.00  0.00     0.041 A 
HETATM    7  C9  UNL     1      19.030  -1.062  53.213  1.00  0.00     0.044 A 
HETATM    8  C10 UNL     1      19.384  -0.235  52.091  1.00  0.00    -0.007 A 
HETATM    9  C11 UNL     1      19.887   0.493  51.120  1.00  0.00     0.013 C 
HETATM   10  C12 UNL     1      21.202   0.883  50.663  1.00  0.00    -0.003 C 
HETATM   11  C13 UNL     1      21.682   1.616  49.686  1.00  0.00    -0.022 C 
HETATM   12  C14 UNL     1      20.809   2.290  48.708  1.00  0.00     0.071 C 
HETATM   13  C15 UNL     1      21.030   3.750  48.824  1.00  0.00     0.014 A 
HETATM   14  C16 UNL     1      19.938   4.473  48.979  1.00  0.00     0.047 A 
HETATM   15  C17 UNL     1      18.614   3.896  49.031  1.00  0.00     0.045 C 
HETATM   16  C18 UNL     1      17.607   3.281  48.444  1.00  0.00     0.041 C 
HETATM   17  C19 UNL     1      16.286   2.684  48.423  1.00  0.00     0.060 C 
HETATM   18  C20 UNL     1      15.127   3.464  48.903  1.00  0.00     0.038 C 
HETATM   19  C21 UNL     1      15.352   4.357  50.075  1.00  0.00     0.169 C 
HETATM   20  O1  UNL     1      15.688   3.816  51.250  1.00  0.00    -0.384 OA
HETATM   21  C22 UNL     1      16.377   2.784  46.892  1.00  0.00     0.166 C 
HETATM   22  N3  UNL     1      17.796   2.913  47.059  1.00  0.00    -0.264 N 
HETATM   23  C23 UNL     1      20.186   5.901  49.091  1.00  0.00     0.280 A 
HETATM   24  O3  UNL     1      19.289   6.795  49.248  1.00  0.00    -0.265 OA
HETATM   25  N4  UNL     1      21.578   5.963  48.983  1.00  0.00    -0.185 NA
HETATM   26  C24 UNL     1      22.039   4.789  48.837  1.00  0.00     0.173 A 
ENDROOT
BRANCH   1  27
HETATM   27  C3  UNL     1      14.198   3.568  53.132  1.00  0.00     0.303 C 
BRANCH  27  28
HETATM   28  N1  UNL     1      12.925   4.159  52.765  1.00  0.00     0.082 N 
HETATM   29  C1  UNL     1      12.153   3.107  52.127  1.00  0.00     0.309 C 
HETATM   30  C2  UNL     1      12.239   4.441  54.013  1.00  0.00     0.309 C 
ENDBRANCH  27  28
ENDBRANCH   1  27
BRANCH  22  31
HETATM   31  O2  UNL     1      18.702   2.696  46.086  1.00  0.00    -0.287 OA
HETATM   32  H31 UNL     1      19.208   1.868  46.166  1.00  0.00     0.244 HD
ENDBRANCH  22  31
BRANCH  26  33
HETATM   33  O4  UNL     1      23.393   4.415  48.692  1.00  0.00    -0.344 OA
HETATM   34  H32 UNL     1      24.102   5.132  48.609  1.00  0.00     0.219 HD
ENDBRANCH  26  33
TORSDOF 4
ENDMDL
