MODEL 1
REMARK VINA RESULT:      -8.8      0.000      0.000
REMARK  5 active torsions:
REMARK  status: ('A' for Active; 'I' for Inactive)
REMARK    1  A    between atoms: C4_4  and  C5_5 
REMARK    2  A    between atoms: C6_6  and  C7_7 
REMARK    3  A    between atoms: C10_11  and  N2_12 
REMARK    4  A    between atoms: N2_12  and  C11_13 
REMARK    5  A    between atoms: C17_21  and  C18_22 
REMARK       I    between atoms: C18_22  and  N5_23 
ROOT
HETATM    1  C1  UNL     1      19.277   2.802  48.276  1.00  0.00     0.017 C 
HETATM    2  C2  UNL     1      20.392   2.396  48.575  1.00  0.00    -0.089 C 
HETATM    3  C3  UNL     1      21.698   1.899  48.913  1.00  0.00     0.063 C 
HETATM    4  C4  UNL     1      22.777   2.588  48.514  1.00  0.00     0.009 C 
ENDROOT
BRANCH   4   5
HETATM    5  C5  UNL     1      22.593   3.817  47.753  1.00  0.00    -0.001 C 
HETATM    6  C6  UNL     1      23.066   4.969  48.243  1.00  0.00     0.010 C 
BRANCH   6   7
HETATM    7  C7  UNL     1      23.770   4.991  49.547  1.00  0.00     0.266 C 
HETATM    8  N1  UNL     1      23.681   6.315  50.173  1.00  0.00     0.093 N 
HETATM    9  C8  UNL     1      24.716   7.128  49.612  1.00  0.00     0.272 C 
HETATM   10  H7  UNL     1      22.746   6.702  49.846  1.00  0.00     0.316 HD
HETATM   11  C9  UNL     1      25.541   6.243  48.707  1.00  0.00     0.058 C 
HETATM   12  C10 UNL     1      25.246   4.883  49.292  1.00  0.00     0.138 C 
BRANCH  12  13
HETATM   13  N2  UNL     1      26.043   4.572  50.428  1.00  0.00    -0.215 N 
HETATM   14  H13 UNL     1      26.728   5.269  50.789  1.00  0.00     0.178 HD
BRANCH  13  15
HETATM   15  C11 UNL     1      25.920   3.319  51.081  1.00  0.00     0.723 A 
HETATM   16  N3  UNL     1      26.949   2.481  51.238  1.00  0.00    -0.075 NA
HETATM   17  C12 UNL     1      26.859   1.278  51.858  1.00  0.00     0.146 A 
HETATM   18  C13 UNL     1      25.628   0.867  52.371  1.00  0.00    -0.008 A 
HETATM   19  C14 UNL     1      24.572   1.738  52.204  1.00  0.00     0.112 A 
HETATM   20  C21 UNL     1      25.678  -0.452  53.014  1.00  0.00     0.047 A 
HETATM   21  N4  UNL     1      24.724   2.918  51.580  1.00  0.00    -0.060 NA
HETATM   22  C15 UNL     1      23.297   1.286  52.748  1.00  0.00     0.091 A 
HETATM   23  C16 UNL     1      23.268   0.053  53.367  1.00  0.00     0.009 A 
HETATM   24  N7  UNL     1      22.075   1.847  52.776  1.00  0.00    -0.271 N 
HETATM   25  C17 UNL     1      21.959  -0.089  53.766  1.00  0.00     0.153 A 
HETATM   26  C20 UNL     1      24.374  -0.908  53.567  1.00  0.00     0.048 A 
HETATM   27  N6  UNL     1      21.277   1.013  53.391  1.00  0.00    -0.166 NA
HETATM   28  C19 UNL     1      21.731   3.139  52.221  1.00  0.00     0.180 C 
BRANCH  25  29
HETATM   29  C18 UNL     1      21.368  -1.237  54.484  1.00  0.00     0.270 C 
HETATM   30  N5  UNL     1      20.039  -1.643  54.207  1.00  0.00    -0.365 N 
HETATM   31  H15 UNL     1      19.490  -2.223  53.534  1.00  0.00     0.159 HD
HETATM   32  H16 UNL     1      19.065  -1.524  54.570  1.00  0.00     0.159 HD
HETATM   33  O1  UNL     1      22.022  -1.857  55.333  1.00  0.00    -0.266 OA
ENDBRANCH  25  29
ENDBRANCH  13  15
ENDBRANCH  12  13
ENDBRANCH   6   7
ENDBRANCH   4   5
TORSDOF 5
ENDMDL
MODEL 2
REMARK VINA RESULT:      -8.7      4.356      7.137
REMARK  5 active torsions:
REMARK  status: ('A' for Active; 'I' for Inactive)
REMARK    1  A    between atoms: C4_4  and  C5_5 
REMARK    2  A    between atoms: C6_6  and  C7_7 
REMARK    3  A    between atoms: C10_11  and  N2_12 
REMARK    4  A    between atoms: N2_12  and  C11_13 
REMARK    5  A    between atoms: C17_21  and  C18_22 
REMARK       I    between atoms: C18_22  and  N5_23 
ROOT
HETATM    1  C1  UNL     1      11.834   3.811  54.597  1.00  0.00     0.017 C 
HETATM    2  C2  UNL     1      12.912   4.144  54.123  1.00  0.00    -0.089 C 
HETATM    3  C3  UNL     1      14.187   4.538  53.588  1.00  0.00     0.063 C 
HETATM    4  C4  UNL     1      14.925   3.629  52.935  1.00  0.00     0.009 C 
ENDROOT
BRANCH   4   5
HETATM    5  C5  UNL     1      14.413   2.273  52.786  1.00  0.00    -0.001 C 
HETATM    6  C6  UNL     1      15.143   1.365  52.128  1.00  0.00     0.010 C 
BRANCH   6   7
HETATM    7  C7  UNL     1      16.459   1.739  51.557  1.00  0.00     0.266 C 
HETATM    8  N1  UNL     1      16.359   1.976  50.113  1.00  0.00     0.093 N 
HETATM    9  C8  UNL     1      16.447   0.706  49.459  1.00  0.00     0.272 C 
HETATM   10  H7  UNL     1      15.374   2.351  49.971  1.00  0.00     0.316 HD
HETATM   11  C9  UNL     1      16.732  -0.328  50.523  1.00  0.00     0.058 C 
HETATM   12  C10 UNL     1      17.353   0.533  51.597  1.00  0.00     0.138 C 
BRANCH  12  13
HETATM   13  N2  UNL     1      18.736   0.788  51.386  1.00  0.00    -0.215 N 
HETATM   14  H13 UNL     1      19.039   1.369  50.576  1.00  0.00     0.178 HD
BRANCH  13  15
HETATM   15  C11 UNL     1      19.716   0.261  52.266  1.00  0.00     0.723 A 
HETATM   16  N3  UNL     1      19.415  -0.561  53.275  1.00  0.00    -0.075 NA
HETATM   17  C12 UNL     1      20.332  -1.078  54.131  1.00  0.00     0.146 A 
HETATM   18  C13 UNL     1      21.677  -0.745  53.969  1.00  0.00    -0.008 A 
HETATM   19  C14 UNL     1      21.978   0.105  52.926  1.00  0.00     0.112 A 
HETATM   20  C21 UNL     1      22.554  -1.376  54.964  1.00  0.00     0.047 A 
HETATM   21  N4  UNL     1      21.024   0.585  52.111  1.00  0.00    -0.060 NA
HETATM   22  C15 UNL     1      23.390   0.438  52.779  1.00  0.00     0.091 A 
HETATM   23  C16 UNL     1      24.274  -0.119  53.680  1.00  0.00     0.009 A 
HETATM   24  N7  UNL     1      24.049   1.215  51.903  1.00  0.00    -0.271 N 
HETATM   25  C17 UNL     1      25.499   0.371  53.290  1.00  0.00     0.153 A 
HETATM   26  C20 UNL     1      23.994  -1.032  54.808  1.00  0.00     0.048 A 
HETATM   27  N6  UNL     1      25.318   1.169  52.218  1.00  0.00    -0.166 NA
HETATM   28  C19 UNL     1      23.444   1.958  50.817  1.00  0.00     0.180 C 
BRANCH  25  29
HETATM   29  C18 UNL     1      26.808   0.093  53.915  1.00  0.00     0.270 C 
HETATM   30  N5  UNL     1      27.409   1.051  54.769  1.00  0.00    -0.365 N 
HETATM   31  H15 UNL     1      27.393   1.379  55.761  1.00  0.00     0.159 HD
HETATM   32  H16 UNL     1      28.117   1.821  54.749  1.00  0.00     0.159 HD
HETATM   33  O1  UNL     1      27.396  -0.976  53.703  1.00  0.00    -0.266 OA
ENDBRANCH  25  29
ENDBRANCH  13  15
ENDBRANCH  12  13
ENDBRANCH   6   7
ENDBRANCH   4   5
TORSDOF 5
ENDMDL
MODEL 3
REMARK VINA RESULT:      -8.6      3.652      8.068
REMARK  5 active torsions:
REMARK  status: ('A' for Active; 'I' for Inactive)
REMARK    1  A    between atoms: C4_4  and  C5_5 
REMARK    2  A    between atoms: C6_6  and  C7_7 
REMARK    3  A    between atoms: C10_11  and  N2_12 
REMARK    4  A    between atoms: N2_12  and  C11_13 
REMARK    5  A    between atoms: C17_21  and  C18_22 
REMARK       I    between atoms: C18_22  and  N5_23 
ROOT
HETATM    1  C1  UNL     1      26.843  -2.152  52.332  1.00  0.00     0.017 C 
HETATM    2  C2  UNL     1      26.557  -1.124  52.931  1.00  0.00    -0.089 C 
HETATM    3  C3  UNL     1      26.231   0.097  53.617  1.00  0.00     0.063 C 
HETATM    4  C4  UNL     1      24.942   0.393  53.835  1.00  0.00     0.009 C 
ENDROOT
BRANCH   4   5
HETATM    5  C5  UNL     1      23.913  -0.530  53.374  1.00  0.00    -0.001 C 
HETATM    6  C6  UNL     1      22.792  -0.045  52.830  1.00  0.00     0.010 C 
BRANCH   6   7
HETATM    7  C7  UNL     1      22.601   1.420  52.698  1.00  0.00     0.266 C 
HETATM    8  N1  UNL     1      21.176   1.768  52.699  1.00  0.00     0.093 N 
HETATM    9  C8  UNL     1      20.688   1.595  51.365  1.00  0.00     0.272 C 
HETATM   10  H7  UNL     1      20.721   1.030  53.314  1.00  0.00     0.316 HD
HETATM   11  C9  UNL     1      21.874   1.248  50.495  1.00  0.00     0.058 C 
HETATM   12  C10 UNL     1      23.004   1.827  51.310  1.00  0.00     0.138 C 
BRANCH  12  13
HETATM   13  N2  UNL     1      23.186   3.224  51.111  1.00  0.00    -0.215 N 
HETATM   14  H13 UNL     1      22.457   3.894  51.432  1.00  0.00     0.178 HD
BRANCH  13  15
HETATM   15  C11 UNL     1      24.353   3.722  50.476  1.00  0.00     0.723 A 
HETATM   16  N3  UNL     1      25.295   2.925  49.964  1.00  0.00    -0.075 NA
HETATM   17  C12 UNL     1      26.419   3.375  49.353  1.00  0.00     0.146 A 
HETATM   18  C13 UNL     1      26.629   4.750  49.241  1.00  0.00    -0.008 A 
HETATM   19  C14 UNL     1      25.652   5.565  49.773  1.00  0.00     0.112 A 
HETATM   20  C21 UNL     1      27.883   5.092  48.559  1.00  0.00     0.047 A 
HETATM   21  N4  UNL     1      24.558   5.059  50.367  1.00  0.00    -0.060 NA
HETATM   22  C15 UNL     1      25.894   6.997  49.643  1.00  0.00     0.091 A 
HETATM   23  C16 UNL     1      27.055   7.394  49.012  1.00  0.00     0.009 A 
HETATM   24  N7  UNL     1      25.185   8.073  50.029  1.00  0.00    -0.271 N 
HETATM   25  C17 UNL     1      26.998   8.768  49.044  1.00  0.00     0.153 A 
HETATM   26  C20 UNL     1      28.124   6.556  48.430  1.00  0.00     0.048 A 
HETATM   27  N6  UNL     1      25.858   9.134  49.664  1.00  0.00    -0.166 NA
HETATM   28  C19 UNL     1      23.914   8.038  50.720  1.00  0.00     0.180 C 
BRANCH  25  29
HETATM   29  C18 UNL     1      27.997   9.712  48.502  1.00  0.00     0.270 C 
HETATM   30  N5  UNL     1      28.888  10.386  49.374  1.00  0.00    -0.365 N 
HETATM   31  H15 UNL     1      29.796  10.250  49.873  1.00  0.00     0.159 HD
HETATM   32  H16 UNL     1      28.996  11.300  49.872  1.00  0.00     0.159 HD
HETATM   33  O1  UNL     1      28.070   9.926  47.285  1.00  0.00    -0.266 OA
ENDBRANCH  25  29
ENDBRANCH  13  15
ENDBRANCH  12  13
ENDBRANCH   6   7
ENDBRANCH   4   5
TORSDOF 5
ENDMDL
MODEL 4
REMARK VINA RESULT:      -8.5      3.413      8.063
REMARK  5 active torsions:
REMARK  status: ('A' for Active; 'I' for Inactive)
REMARK    1  A    between atoms: C4_4  and  C5_5 
REMARK    2  A    between atoms: C6_6  and  C7_7 
REMARK    3  A    between atoms: C10_11  and  N2_12 
REMARK    4  A    between atoms: N2_12  and  C11_13 
REMARK    5  A    between atoms: C17_21  and  C18_22 
REMARK       I    between atoms: C18_22  and  N5_23 
ROOT
HETATM    1  C1  UNL     1      29.783  -1.063  53.726  1.00  0.00     0.017 C 
HETATM    2  C2  UNL     1      29.083  -0.059  53.757  1.00  0.00    -0.089 C 
HETATM    3  C3  UNL     1      28.277   1.131  53.778  1.00  0.00     0.063 C 
HETATM    4  C4  UNL     1      27.056   1.096  53.226  1.00  0.00     0.009 C 
ENDROOT
BRANCH   4   5
HETATM    5  C5  UNL     1      26.583  -0.144  52.624  1.00  0.00    -0.001 C 
HETATM    6  C6  UNL     1      25.276  -0.427  52.645  1.00  0.00     0.010 C 
BRANCH   6   7
HETATM    7  C7  UNL     1      24.319   0.515  53.275  1.00  0.00     0.266 C 
HETATM    8  N1  UNL     1      23.450  -0.178  54.233  1.00  0.00     0.093 N 
HETATM    9  C8  UNL     1      22.373  -0.762  53.494  1.00  0.00     0.272 C 
HETATM   10  H7  UNL     1      24.052  -0.966  54.616  1.00  0.00     0.316 HD
HETATM   11  C9  UNL     1      22.517  -0.313  52.059  1.00  0.00     0.058 C 
HETATM   12  C10 UNL     1      23.327   0.949  52.235  1.00  0.00     0.138 C 
BRANCH  12  13
HETATM   13  N2  UNL     1      22.538   2.082  52.577  1.00  0.00    -0.215 N 
HETATM   14  H13 UNL     1      21.695   1.967  53.177  1.00  0.00     0.178 HD
BRANCH  13  15
HETATM   15  C11 UNL     1      22.884   3.376  52.109  1.00  0.00     0.723 A 
HETATM   16  N3  UNL     1      22.158   4.463  52.387  1.00  0.00    -0.075 NA
HETATM   17  C12 UNL     1      22.465   5.711  51.952  1.00  0.00     0.146 A 
HETATM   18  C13 UNL     1      23.603   5.897  51.165  1.00  0.00    -0.008 A 
HETATM   19  C14 UNL     1      24.345   4.769  50.883  1.00  0.00     0.112 A 
HETATM   20  C21 UNL     1      23.811   7.295  50.769  1.00  0.00     0.047 A 
HETATM   21  N4  UNL     1      23.989   3.558  51.344  1.00  0.00    -0.060 NA
HETATM   22  C15 UNL     1      25.528   4.990  50.060  1.00  0.00     0.091 A 
HETATM   23  C16 UNL     1      25.787   6.280  49.648  1.00  0.00     0.009 A 
HETATM   24  N7  UNL     1      26.471   4.155  49.590  1.00  0.00    -0.271 N 
HETATM   25  C17 UNL     1      26.940   6.168  48.906  1.00  0.00     0.153 A 
HETATM   26  C20 UNL     1      25.020   7.513  49.927  1.00  0.00     0.048 A 
HETATM   27  N6  UNL     1      27.317   4.873  48.897  1.00  0.00    -0.166 NA
HETATM   28  C19 UNL     1      26.520   2.727  49.822  1.00  0.00     0.180 C 
BRANCH  25  29
HETATM   29  C18 UNL     1      27.668   7.256  48.222  1.00  0.00     0.270 C 
HETATM   30  N5  UNL     1      28.495   8.137  48.962  1.00  0.00    -0.365 N 
HETATM   31  H15 UNL     1      29.460   8.206  49.357  1.00  0.00     0.159 HD
HETATM   32  H16 UNL     1      28.471   9.080  49.415  1.00  0.00     0.159 HD
HETATM   33  O1  UNL     1      27.567   7.413  46.998  1.00  0.00    -0.266 OA
ENDBRANCH  25  29
ENDBRANCH  13  15
ENDBRANCH  12  13
ENDBRANCH   6   7
ENDBRANCH   4   5
TORSDOF 5
ENDMDL
MODEL 5
REMARK VINA RESULT:      -8.5      3.131      5.805
REMARK  5 active torsions:
REMARK  status: ('A' for Active; 'I' for Inactive)
REMARK    1  A    between atoms: C4_4  and  C5_5 
REMARK    2  A    between atoms: C6_6  and  C7_7 
REMARK    3  A    between atoms: C10_11  and  N2_12 
REMARK    4  A    between atoms: N2_12  and  C11_13 
REMARK    5  A    between atoms: C17_21  and  C18_22 
REMARK       I    between atoms: C18_22  and  N5_23 
ROOT
HETATM    1  C1  UNL     1      28.530   5.313  48.208  1.00  0.00     0.017 C 
HETATM    2  C2  UNL     1      27.426   5.315  48.736  1.00  0.00    -0.089 C 
HETATM    3  C3  UNL     1      26.119   5.322  49.335  1.00  0.00     0.063 C 
HETATM    4  C4  UNL     1      25.618   4.172  49.810  1.00  0.00     0.009 C 
ENDROOT
BRANCH   4   5
HETATM    5  C5  UNL     1      26.411   2.954  49.705  1.00  0.00    -0.001 C 
HETATM    6  C6  UNL     1      26.488   2.128  50.755  1.00  0.00     0.010 C 
BRANCH   6   7
HETATM    7  C7  UNL     1      25.770   2.452  52.011  1.00  0.00     0.266 C 
HETATM    8  N1  UNL     1      26.691   2.483  53.153  1.00  0.00     0.093 N 
HETATM    9  C8  UNL     1      26.860   1.136  53.608  1.00  0.00     0.272 C 
HETATM   10  H7  UNL     1      27.616   2.808  52.740  1.00  0.00     0.316 HD
HETATM   11  C9  UNL     1      25.921   0.269  52.802  1.00  0.00     0.058 C 
HETATM   12  C10 UNL     1      24.893   1.288  52.370  1.00  0.00     0.138 C 
BRANCH  12  13
HETATM   13  N2  UNL     1      23.905   1.547  53.360  1.00  0.00    -0.215 N 
HETATM   14  H13 UNL     1      24.090   2.250  54.107  1.00  0.00     0.178 HD
BRANCH  13  15
HETATM   15  C11 UNL     1      22.664   0.860  53.348  1.00  0.00     0.723 A 
HETATM   16  N3  UNL     1      22.346  -0.074  54.248  1.00  0.00    -0.075 NA
HETATM   17  C12 UNL     1      21.167  -0.746  54.258  1.00  0.00     0.146 A 
HETATM   18  C13 UNL     1      20.214  -0.463  53.279  1.00  0.00    -0.008 A 
HETATM   19  C14 UNL     1      20.552   0.502  52.354  1.00  0.00     0.112 A 
HETATM   20  C21 UNL     1      18.990  -1.263  53.412  1.00  0.00     0.047 A 
HETATM   21  N4  UNL     1      21.737   1.134  52.396  1.00  0.00    -0.060 NA
HETATM   22  C15 UNL     1      19.540   0.779  51.342  1.00  0.00     0.091 A 
HETATM   23  C16 UNL     1      18.362   0.064  51.404  1.00  0.00     0.009 A 
HETATM   24  N7  UNL     1      19.509   1.632  50.303  1.00  0.00    -0.271 N 
HETATM   25  C17 UNL     1      17.627   0.539  50.343  1.00  0.00     0.153 A 
HETATM   26  C20 UNL     1      17.961  -0.976  52.376  1.00  0.00     0.048 A 
HETATM   27  N6  UNL     1      18.354   1.480  49.708  1.00  0.00    -0.166 NA
HETATM   28  C19 UNL     1      20.572   2.542  49.931  1.00  0.00     0.180 C 
BRANCH  25  29
HETATM   29  C18 UNL     1      16.271   0.113  49.938  1.00  0.00     0.270 C 
HETATM   30  N5  UNL     1      15.139   0.862  50.343  1.00  0.00    -0.365 N 
HETATM   31  H15 UNL     1      14.581   1.703  50.071  1.00  0.00     0.159 HD
HETATM   32  H16 UNL     1      14.398   0.873  51.082  1.00  0.00     0.159 HD
HETATM   33  O1  UNL     1      16.106  -0.898  49.243  1.00  0.00    -0.266 OA
ENDBRANCH  25  29
ENDBRANCH  13  15
ENDBRANCH  12  13
ENDBRANCH   6   7
ENDBRANCH   4   5
TORSDOF 5
ENDMDL
MODEL 6
REMARK VINA RESULT:      -8.3      2.443      5.476
REMARK  5 active torsions:
REMARK  status: ('A' for Active; 'I' for Inactive)
REMARK    1  A    between atoms: C4_4  and  C5_5 
REMARK    2  A    between atoms: C6_6  and  C7_7 
REMARK    3  A    between atoms: C10_11  and  N2_12 
REMARK    4  A    between atoms: N2_12  and  C11_13 
REMARK    5  A    between atoms: C17_21  and  C18_22 
REMARK       I    between atoms: C18_22  and  N5_23 
ROOT
HETATM    1  C1  UNL     1      23.561   5.128  48.571  1.00  0.00     0.017 C 
HETATM    2  C2  UNL     1      22.999   4.141  48.115  1.00  0.00    -0.089 C 
HETATM    3  C3  UNL     1      22.353   2.967  47.594  1.00  0.00     0.063 C 
HETATM    4  C4  UNL     1      21.053   2.773  47.859  1.00  0.00     0.009 C 
ENDROOT
BRANCH   4   5
HETATM    5  C5  UNL     1      20.336   3.754  48.662  1.00  0.00    -0.001 C 
HETATM    6  C6  UNL     1      19.479   3.335  49.600  1.00  0.00     0.010 C 
BRANCH   6   7
HETATM    7  C7  UNL     1      19.263   1.884  49.817  1.00  0.00     0.266 C 
HETATM    8  N1  UNL     1      18.006   1.441  49.206  1.00  0.00     0.093 N 
HETATM    9  C8  UNL     1      16.952   1.726  50.131  1.00  0.00     0.272 C 
HETATM   10  H7  UNL     1      17.882   2.074  48.361  1.00  0.00     0.316 HD
HETATM   11  C9  UNL     1      17.593   2.247  51.396  1.00  0.00     0.058 C 
HETATM   12  C10 UNL     1      18.979   1.660  51.275  1.00  0.00     0.138 C 
BRANCH  12  13
HETATM   13  N2  UNL     1      19.061   0.310  51.714  1.00  0.00    -0.215 N 
HETATM   14  H13 UNL     1      18.351  -0.384  51.397  1.00  0.00     0.178 HD
BRANCH  13  15
HETATM   15  C11 UNL     1      20.100  -0.111  52.583  1.00  0.00     0.723 A 
HETATM   16  N3  UNL     1      19.889  -0.923  53.622  1.00  0.00    -0.075 NA
HETATM   17  C12 UNL     1      20.865  -1.339  54.469  1.00  0.00     0.146 A 
HETATM   18  C13 UNL     1      22.175  -0.907  54.262  1.00  0.00    -0.008 A 
HETATM   19  C14 UNL     1      22.383  -0.069  53.187  1.00  0.00     0.112 A 
HETATM   20  C21 UNL     1      23.123  -1.436  55.251  1.00  0.00     0.047 A 
HETATM   21  N4  UNL     1      21.375   0.309  52.384  1.00  0.00    -0.060 NA
HETATM   22  C15 UNL     1      23.760   0.368  52.993  1.00  0.00     0.091 A 
HETATM   23  C16 UNL     1      24.707  -0.089  53.886  1.00  0.00     0.009 A 
HETATM   24  N7  UNL     1      24.335   1.168  52.077  1.00  0.00    -0.271 N 
HETATM   25  C17 UNL     1      25.880   0.484  53.450  1.00  0.00     0.153 A 
HETATM   26  C20 UNL     1      24.527  -0.985  55.048  1.00  0.00     0.048 A 
HETATM   27  N6  UNL     1      25.610   1.231  52.360  1.00  0.00    -0.166 NA
HETATM   28  C19 UNL     1      23.647   1.826  50.986  1.00  0.00     0.180 C 
BRANCH  25  29
HETATM   29  C18 UNL     1      27.222   0.329  54.048  1.00  0.00     0.270 C 
HETATM   30  N5  UNL     1      27.919  -0.898  53.927  1.00  0.00    -0.365 N 
HETATM   31  H15 UNL     1      28.533  -1.422  53.264  1.00  0.00     0.159 HD
HETATM   32  H16 UNL     1      28.102  -1.780  54.459  1.00  0.00     0.159 HD
HETATM   33  O1  UNL     1      27.753   1.265  54.660  1.00  0.00    -0.266 OA
ENDBRANCH  25  29
ENDBRANCH  13  15
ENDBRANCH  12  13
ENDBRANCH   6   7
ENDBRANCH   4   5
TORSDOF 5
ENDMDL
MODEL 7
REMARK VINA RESULT:      -8.1      2.711      5.433
REMARK  5 active torsions:
REMARK  status: ('A' for Active; 'I' for Inactive)
REMARK    1  A    between atoms: C4_4  and  C5_5 
REMARK    2  A    between atoms: C6_6  and  C7_7 
REMARK    3  A    between atoms: C10_11  and  N2_12 
REMARK    4  A    between atoms: N2_12  and  C11_13 
REMARK    5  A    between atoms: C17_21  and  C18_22 
REMARK       I    between atoms: C18_22  and  N5_23 
ROOT
HETATM    1  C1  UNL     1      21.551   8.950  49.019  1.00  0.00     0.017 C 
HETATM    2  C2  UNL     1      22.006   7.838  48.784  1.00  0.00    -0.089 C 
HETATM    3  C3  UNL     1      22.559   6.537  48.523  1.00  0.00     0.063 C 
HETATM    4  C4  UNL     1      21.902   5.454  48.964  1.00  0.00     0.009 C 
ENDROOT
BRANCH   4   5
HETATM    5  C5  UNL     1      20.651   5.628  49.690  1.00  0.00    -0.001 C 
HETATM    6  C6  UNL     1      19.908   4.555  49.983  1.00  0.00     0.010 C 
BRANCH   6   7
HETATM    7  C7  UNL     1      20.356   3.203  49.571  1.00  0.00     0.266 C 
HETATM    8  N1  UNL     1      19.262   2.454  48.942  1.00  0.00     0.093 N 
HETATM    9  C8  UNL     1      18.483   1.866  49.989  1.00  0.00     0.272 C 
HETATM   10  H7  UNL     1      18.668   3.198  48.468  1.00  0.00     0.316 HD
HETATM   11  C9  UNL     1      19.188   2.160  51.293  1.00  0.00     0.058 C 
HETATM   12  C10 UNL     1      20.600   2.387  50.808  1.00  0.00     0.138 C 
BRANCH  12  13
HETATM   13  N2  UNL     1      21.330   1.182  50.612  1.00  0.00    -0.215 N 
HETATM   14  H13 UNL     1      21.162   0.605  49.762  1.00  0.00     0.178 HD
BRANCH  13  15
HETATM   15  C11 UNL     1      22.290   0.751  51.563  1.00  0.00     0.723 A 
HETATM   16  N3  UNL     1      22.021  -0.165  52.498  1.00  0.00    -0.075 NA
HETATM   17  C12 UNL     1      22.920  -0.594  53.419  1.00  0.00     0.146 A 
HETATM   18  C13 UNL     1      24.210  -0.062  53.410  1.00  0.00    -0.008 A 
HETATM   19  C14 UNL     1      24.478   0.882  52.442  1.00  0.00     0.112 A 
HETATM   20  C21 UNL     1      25.074  -0.618  54.460  1.00  0.00     0.047 A 
HETATM   21  N4  UNL     1      23.544   1.267  51.556  1.00  0.00    -0.060 NA
HETATM   22  C15 UNL     1      25.832   1.423  52.454  1.00  0.00     0.091 A 
HETATM   23  C16 UNL     1      26.701   0.947  53.415  1.00  0.00     0.009 A 
HETATM   24  N7  UNL     1      26.448   2.338  51.685  1.00  0.00    -0.271 N 
HETATM   25  C17 UNL     1      27.870   1.630  53.174  1.00  0.00     0.153 A 
HETATM   26  C20 UNL     1      26.455  -0.062  54.467  1.00  0.00     0.048 A 
HETATM   27  N6  UNL     1      27.674   2.456  52.126  1.00  0.00    -0.166 NA
HETATM   28  C19 UNL     1      25.844   3.048  50.578  1.00  0.00     0.180 C 
BRANCH  25  29
HETATM   29  C18 UNL     1      29.142   1.507  53.917  1.00  0.00     0.270 C 
HETATM   30  N5  UNL     1      30.061   0.479  53.591  1.00  0.00    -0.365 N 
HETATM   31  H15 UNL     1      30.831   0.260  52.920  1.00  0.00     0.159 HD
HETATM   32  H16 UNL     1      30.341  -0.482  53.895  1.00  0.00     0.159 HD
HETATM   33  O1  UNL     1      29.421   2.296  54.829  1.00  0.00    -0.266 OA
ENDBRANCH  25  29
ENDBRANCH  13  15
ENDBRANCH  12  13
ENDBRANCH   6   7
ENDBRANCH   4   5
TORSDOF 5
ENDMDL
MODEL 8
REMARK VINA RESULT:      -8.1      2.265      4.724
REMARK  5 active torsions:
REMARK  status: ('A' for Active; 'I' for Inactive)
REMARK    1  A    between atoms: C4_4  and  C5_5 
REMARK    2  A    between atoms: C6_6  and  C7_7 
REMARK    3  A    between atoms: C10_11  and  N2_12 
REMARK    4  A    between atoms: N2_12  and  C11_13 
REMARK    5  A    between atoms: C17_21  and  C18_22 
REMARK       I    between atoms: C18_22  and  N5_23 
ROOT
HETATM    1  C1  UNL     1      26.169   5.993  48.938  1.00  0.00     0.017 C 
HETATM    2  C2  UNL     1      25.517   4.971  49.105  1.00  0.00    -0.089 C 
HETATM    3  C3  UNL     1      24.754   3.773  49.326  1.00  0.00     0.063 C 
HETATM    4  C4  UNL     1      23.457   3.759  48.985  1.00  0.00     0.009 C 
ENDROOT
BRANCH   4   5
HETATM    5  C5  UNL     1      22.863   4.955  48.402  1.00  0.00    -0.001 C 
HETATM    6  C6  UNL     1      21.536   5.121  48.453  1.00  0.00     0.010 C 
BRANCH   6   7
HETATM    7  C7  UNL     1      20.681   4.095  49.098  1.00  0.00     0.266 C 
HETATM    8  N1  UNL     1      19.509   3.790  48.271  1.00  0.00     0.093 N 
HETATM    9  C8  UNL     1      18.514   4.779  48.550  1.00  0.00     0.272 C 
HETATM   10  H7  UNL     1      19.843   3.932  47.272  1.00  0.00     0.316 HD
HETATM   11  C9  UNL     1      19.044   5.645  49.669  1.00  0.00     0.058 C 
HETATM   12  C10 UNL     1      20.038   4.707  50.309  1.00  0.00     0.138 C 
BRANCH  12  13
HETATM   13  N2  UNL     1      19.444   3.788  51.217  1.00  0.00    -0.215 N 
HETATM   14  H13 UNL     1      18.479   3.957  51.571  1.00  0.00     0.178 HD
BRANCH  13  15
HETATM   15  C11 UNL     1      20.148   2.636  51.652  1.00  0.00     0.723 A 
HETATM   16  N3  UNL     1      19.601   1.418  51.672  1.00  0.00    -0.075 NA
HETATM   17  C12 UNL     1      20.252   0.301  52.084  1.00  0.00     0.146 A 
HETATM   18  C13 UNL     1      21.574   0.405  52.519  1.00  0.00    -0.008 A 
HETATM   19  C14 UNL     1      22.130   1.667  52.495  1.00  0.00     0.112 A 
HETATM   20  C21 UNL     1      22.151  -0.880  52.933  1.00  0.00     0.047 A 
HETATM   21  N4  UNL     1      21.433   2.736  52.075  1.00  0.00    -0.060 NA
HETATM   22  C15 UNL     1      23.512   1.749  52.953  1.00  0.00     0.091 A 
HETATM   23  C16 UNL     1      24.120   0.579  53.359  1.00  0.00     0.009 A 
HETATM   24  N7  UNL     1      24.366   2.780  53.070  1.00  0.00    -0.271 N 
HETATM   25  C17 UNL     1      25.387   0.972  53.726  1.00  0.00     0.153 A 
HETATM   26  C20 UNL     1      23.562  -0.789  53.400  1.00  0.00     0.048 A 
HETATM   27  N6  UNL     1      25.492   2.304  53.536  1.00  0.00    -0.166 NA
HETATM   28  C19 UNL     1      24.071   4.158  52.736  1.00  0.00     0.180 C 
BRANCH  25  29
HETATM   29  C18 UNL     1      26.471   0.112  54.242  1.00  0.00     0.270 C 
HETATM   30  N5  UNL     1      27.582  -0.205  53.423  1.00  0.00    -0.365 N 
HETATM   31  H15 UNL     1      28.503   0.181  53.117  1.00  0.00     0.159 HD
HETATM   32  H16 UNL     1      27.930  -0.962  52.789  1.00  0.00     0.159 HD
HETATM   33  O1  UNL     1      26.424  -0.341  55.394  1.00  0.00    -0.266 OA
ENDBRANCH  25  29
ENDBRANCH  13  15
ENDBRANCH  12  13
ENDBRANCH   6   7
ENDBRANCH   4   5
TORSDOF 5
ENDMDL
MODEL 9
REMARK VINA RESULT:      -8.1      2.755      4.204
REMARK  5 active torsions:
REMARK  status: ('A' for Active; 'I' for Inactive)
REMARK    1  A    between atoms: C4_4  and  C5_5 
REMARK    2  A    between atoms: C6_6  and  C7_7 
REMARK    3  A    between atoms: C10_11  and  N2_12 
REMARK    4  A    between atoms: N2_12  and  C11_13 
REMARK    5  A    between atoms: C17_21  and  C18_22 
REMARK       I    between atoms: C18_22  and  N5_23 
ROOT
HETATM    1  C1  UNL     1      22.139  10.457  48.425  1.00  0.00     0.017 C 
HETATM    2  C2  UNL     1      22.371   9.301  48.754  1.00  0.00    -0.089 C 
HETATM    3  C3  UNL     1      22.622   7.936  49.129  1.00  0.00     0.063 C 
HETATM    4  C4  UNL     1      23.699   7.314  48.626  1.00  0.00     0.009 C 
ENDROOT
BRANCH   4   5
HETATM    5  C5  UNL     1      24.579   8.038  47.719  1.00  0.00    -0.001 C 
HETATM    6  C6  UNL     1      25.903   7.971  47.895  1.00  0.00     0.010 C 
BRANCH   6   7
HETATM    7  C7  UNL     1      26.467   7.166  49.005  1.00  0.00     0.266 C 
HETATM    8  N1  UNL     1      27.598   7.855  49.636  1.00  0.00     0.093 N 
HETATM    9  C8  UNL     1      28.764   7.576  48.855  1.00  0.00     0.272 C 
HETATM   10  H7  UNL     1      27.372   8.889  49.532  1.00  0.00     0.316 HD
HETATM   11  C9  UNL     1      28.361   6.589  47.784  1.00  0.00     0.058 C 
HETATM   12  C10 UNL     1      27.145   5.960  48.420  1.00  0.00     0.138 C 
BRANCH  12  13
HETATM   13  N2  UNL     1      27.460   4.926  49.344  1.00  0.00    -0.215 N 
HETATM   14  H13 UNL     1      28.446   4.786  49.649  1.00  0.00     0.178 HD
BRANCH  13  15
HETATM   15  C11 UNL     1      26.448   4.077  49.859  1.00  0.00     0.723 A 
HETATM   16  N3  UNL     1      25.228   3.997  49.322  1.00  0.00    -0.075 NA
HETATM   17  C12 UNL     1      24.242   3.194  49.796  1.00  0.00     0.146 A 
HETATM   18  C13 UNL     1      24.493   2.395  50.911  1.00  0.00    -0.008 A 
HETATM   19  C14 UNL     1      25.755   2.485  51.460  1.00  0.00     0.112 A 
HETATM   20  C21 UNL     1      23.339   1.579  51.312  1.00  0.00     0.047 A 
HETATM   21  N4  UNL     1      26.690   3.300  50.944  1.00  0.00    -0.060 NA
HETATM   22  C15 UNL     1      25.991   1.639  52.624  1.00  0.00     0.091 A 
HETATM   23  C16 UNL     1      24.951   0.845  53.059  1.00  0.00     0.009 A 
HETATM   24  N7  UNL     1      27.069   1.461  53.408  1.00  0.00    -0.271 N 
HETATM   25  C17 UNL     1      25.469   0.182  54.147  1.00  0.00     0.153 A 
HETATM   26  C20 UNL     1      23.587   0.719  52.501  1.00  0.00     0.048 A 
HETATM   27  N6  UNL     1      26.746   0.582  54.321  1.00  0.00    -0.166 NA
HETATM   28  C19 UNL     1      28.343   2.129  53.249  1.00  0.00     0.180 C 
BRANCH  25  29
HETATM   29  C18 UNL     1      24.777  -0.805  55.000  1.00  0.00     0.270 C 
HETATM   30  N5  UNL     1      25.350  -1.211  56.230  1.00  0.00    -0.365 N 
HETATM   31  H15 UNL     1      25.425  -0.914  57.229  1.00  0.00     0.159 HD
HETATM   32  H16 UNL     1      25.933  -1.979  56.636  1.00  0.00     0.159 HD
HETATM   33  O1  UNL     1      23.690  -1.288  54.655  1.00  0.00    -0.266 OA
ENDBRANCH  25  29
ENDBRANCH  13  15
ENDBRANCH  12  13
ENDBRANCH   6   7
ENDBRANCH   4   5
TORSDOF 5
ENDMDL
