MODEL 1
REMARK VINA RESULT:      -8.6      0.000      0.000
REMARK  6 active torsions:
REMARK  status: ('A' for Active; 'I' for Inactive)
REMARK    1  A    between atoms: C5_6  and  O1_7 
REMARK    2  A    between atoms: O1_7  and  C6_8 
REMARK    3  A    between atoms: C6_8  and  C7_9 
REMARK    4  A    between atoms: C16_21  and  N3_22 
REMARK    5  A    between atoms: C16_21  and  C17_23 
REMARK    6  A    between atoms: C17_23  and  C18_24 
ROOT
HETATM    1  C1  UNL     1      26.810   1.468  52.364  1.00  0.00     0.070 C 
HETATM    2  C2  UNL     1      26.179   2.506  51.503  1.00  0.00     0.062 C 
HETATM    3  N1  UNL     1      27.016   3.036  50.674  1.00  0.00    -0.290 NA
HETATM    4  C3  UNL     1      26.715   3.898  49.559  1.00  0.00     0.187 C 
HETATM    5  C4  UNL     1      25.331   4.340  49.564  1.00  0.00    -0.007 C 
HETATM    6  C5  UNL     1      24.894   5.581  49.682  1.00  0.00     0.098 C 
HETATM    7  C13 UNL     1      23.806   5.698  50.696  1.00  0.00     0.083 C 
HETATM    8 CL1  UNL     1      23.116   7.249  50.979  1.00  0.00    -0.080 Cl
HETATM    9  C14 UNL     1      23.332   4.649  51.414  1.00  0.00     0.115 C 
HETATM   10  N2  UNL     1      24.035   3.479  51.044  1.00  0.00    -0.345 N 
HETATM   11  C15 UNL     1      24.234   3.243  49.572  1.00  0.00     0.164 C 
HETATM   12  C16 UNL     1      24.716   2.580  51.918  1.00  0.00     0.273 C 
ENDROOT
BRANCH  12  13
HETATM   13  N3  UNL     1      24.632   2.967  53.301  1.00  0.00     0.114 N 
HETATM   14  H15 UNL     1      25.490   3.366  53.703  1.00  0.00     0.316 HD
HETATM   15  H16 UNL     1      23.811   3.541  53.496  1.00  0.00     0.316 HD
ENDBRANCH  12  13
BRANCH  12  16
HETATM   16  C17 UNL     1      24.167   1.197  51.746  1.00  0.00     0.109 C 
BRANCH  16  17
HETATM   17  C18 UNL     1      22.980   0.904  52.605  1.00  0.00    -0.054 A 
HETATM   18  C19 UNL     1      21.744   1.503  52.483  1.00  0.00     0.007 A 
HETATM   19  C20 UNL     1      20.673   1.203  53.295  1.00  0.00     0.001 A 
HETATM   20  C21 UNL     1      20.794   0.274  54.285  1.00  0.00     0.000 A 
HETATM   21  C22 UNL     1      22.007  -0.345  54.442  1.00  0.00     0.001 A 
HETATM   22  C23 UNL     1      23.069  -0.033  53.620  1.00  0.00     0.007 A 
ENDBRANCH  16  17
ENDBRANCH  12  16
BRANCH   6  23
HETATM   23  O1  UNL     1      25.494   6.467  48.902  1.00  0.00    -0.344 OA
BRANCH  23  24
HETATM   24  C6  UNL     1      25.934   7.765  49.110  1.00  0.00     0.214 C 
BRANCH  24  25
HETATM   25  C7  UNL     1      27.391   7.770  48.796  1.00  0.00    -0.031 A 
HETATM   26  C8  UNL     1      27.885   6.818  47.905  1.00  0.00     0.009 A 
HETATM   27  C9  UNL     1      29.212   6.746  47.556  1.00  0.00     0.004 A 
HETATM   28  C10 UNL     1      30.091   7.663  48.119  1.00  0.00     0.042 A 
HETATM   29  C11 UNL     1      29.639   8.621  49.004  1.00  0.00     0.117 A 
HETATM   30  F1  UNL     1      30.506   9.511  49.547  1.00  0.00    -0.206 F 
HETATM   31  C12 UNL     1      28.292   8.678  49.345  1.00  0.00     0.051 A 
ENDBRANCH  24  25
ENDBRANCH  23  24
ENDBRANCH   6  23
TORSDOF 6
ENDMDL
MODEL 2
REMARK VINA RESULT:      -8.5      3.514      7.118
REMARK  6 active torsions:
REMARK  status: ('A' for Active; 'I' for Inactive)
REMARK    1  A    between atoms: C5_6  and  O1_7 
REMARK    2  A    between atoms: O1_7  and  C6_8 
REMARK    3  A    between atoms: C6_8  and  C7_9 
REMARK    4  A    between atoms: C16_21  and  N3_22 
REMARK    5  A    between atoms: C16_21  and  C17_23 
REMARK    6  A    between atoms: C17_23  and  C18_24 
ROOT
HETATM    1  C1  UNL     1      26.297   5.195  49.083  1.00  0.00     0.070 C 
HETATM    2  C2  UNL     1      25.685   4.217  50.024  1.00  0.00     0.062 C 
HETATM    3  N1  UNL     1      26.502   3.275  50.359  1.00  0.00    -0.290 NA
HETATM    4  C3  UNL     1      26.330   2.298  51.405  1.00  0.00     0.187 C 
HETATM    5  C4  UNL     1      24.983   2.308  51.948  1.00  0.00    -0.007 C 
HETATM    6  C5  UNL     1      24.102   1.322  51.906  1.00  0.00     0.098 C 
HETATM    7  C13 UNL     1      22.761   1.788  51.448  1.00  0.00     0.083 C 
HETATM    8 CL1  UNL     1      21.490   0.634  51.334  1.00  0.00    -0.080 Cl
HETATM    9  C14 UNL     1      22.487   3.073  51.108  1.00  0.00     0.115 C 
HETATM   10  N2  UNL     1      23.659   3.851  51.256  1.00  0.00    -0.345 N 
HETATM   11  C15 UNL     1      24.453   3.651  52.517  1.00  0.00     0.164 C 
HETATM   12  C16 UNL     1      24.258   4.689  50.268  1.00  0.00     0.273 C 
ENDROOT
BRANCH  12  13
HETATM   13  N3  UNL     1      23.538   4.694  49.023  1.00  0.00     0.114 N 
HETATM   14  H15 UNL     1      22.536   4.917  49.091  1.00  0.00     0.316 HD
HETATM   15  H16 UNL     1      24.007   5.244  48.303  1.00  0.00     0.316 HD
ENDBRANCH  12  13
BRANCH  12  16
HETATM   16  C17 UNL     1      24.368   6.087  50.794  1.00  0.00     0.109 C 
BRANCH  16  17
HETATM   17  C18 UNL     1      23.281   6.999  50.328  1.00  0.00    -0.054 A 
HETATM   18  C19 UNL     1      21.959   6.922  50.717  1.00  0.00     0.007 A 
HETATM   19  C20 UNL     1      20.985   7.785  50.264  1.00  0.00     0.001 A 
HETATM   20  C21 UNL     1      21.296   8.780  49.387  1.00  0.00     0.000 A 
HETATM   21  C22 UNL     1      22.598   8.891  48.974  1.00  0.00     0.001 A 
HETATM   22  C23 UNL     1      23.561   8.019  49.436  1.00  0.00     0.007 A 
ENDBRANCH  16  17
ENDBRANCH  12  16
BRANCH   6  23
HETATM   23  O1  UNL     1      24.568   0.136  52.263  1.00  0.00    -0.344 OA
BRANCH  23  24
HETATM   24  C6  UNL     1      24.814  -0.450  53.497  1.00  0.00     0.214 C 
BRANCH  24  25
HETATM   25  C7  UNL     1      26.296  -0.542  53.628  1.00  0.00    -0.031 A 
HETATM   26  C8  UNL     1      26.977  -1.486  52.861  1.00  0.00     0.009 A 
HETATM   27  C9  UNL     1      28.341  -1.643  52.915  1.00  0.00     0.004 A 
HETATM   28  C10 UNL     1      29.064  -0.822  53.773  1.00  0.00     0.042 A 
HETATM   29  C11 UNL     1      28.425   0.124  54.547  1.00  0.00     0.117 A 
HETATM   30  F1  UNL     1      29.140   0.920  55.381  1.00  0.00    -0.206 F 
HETATM   31  C12 UNL     1      27.043   0.268  54.478  1.00  0.00     0.051 A 
ENDBRANCH  24  25
ENDBRANCH  23  24
ENDBRANCH   6  23
TORSDOF 6
ENDMDL
MODEL 3
REMARK VINA RESULT:      -8.2      5.031      9.095
REMARK  6 active torsions:
REMARK  status: ('A' for Active; 'I' for Inactive)
REMARK    1  A    between atoms: C5_6  and  O1_7 
REMARK    2  A    between atoms: O1_7  and  C6_8 
REMARK    3  A    between atoms: C6_8  and  C7_9 
REMARK    4  A    between atoms: C16_21  and  N3_22 
REMARK    5  A    between atoms: C16_21  and  C17_23 
REMARK    6  A    between atoms: C17_23  and  C18_24 
ROOT
HETATM    1  C1  UNL     1      24.520   5.006  51.071  1.00  0.00     0.070 C 
HETATM    2  C2  UNL     1      23.564   3.879  51.258  1.00  0.00     0.062 C 
HETATM    3  N1  UNL     1      22.416   4.110  50.712  1.00  0.00    -0.290 NA
HETATM    4  C3  UNL     1      21.341   3.171  50.505  1.00  0.00     0.187 C 
HETATM    5  C4  UNL     1      21.569   1.916  51.199  1.00  0.00    -0.007 C 
HETATM    6  C5  UNL     1      20.835   1.400  52.170  1.00  0.00     0.098 C 
HETATM    7  C13 UNL     1      21.668   0.942  53.319  1.00  0.00     0.083 C 
HETATM    8 CL1  UNL     1      20.874   0.242  54.676  1.00  0.00    -0.080 Cl
HETATM    9  C14 UNL     1      23.019   1.051  53.359  1.00  0.00     0.115 C 
HETATM   10  N2  UNL     1      23.470   1.661  52.165  1.00  0.00    -0.345 N 
HETATM   11  C15 UNL     1      22.880   1.151  50.878  1.00  0.00     0.164 C 
HETATM   12  C16 UNL     1      24.303   2.814  52.055  1.00  0.00     0.273 C 
ENDROOT
BRANCH  12  13
HETATM   13  N3  UNL     1      24.686   3.354  53.332  1.00  0.00     0.114 N 
HETATM   14  H15 UNL     1      25.308   4.172  53.300  1.00  0.00     0.316 HD
HETATM   15  H16 UNL     1      23.887   3.501  53.949  1.00  0.00     0.316 HD
ENDBRANCH  12  13
BRANCH  12  16
HETATM   16  C17 UNL     1      25.527   2.478  51.261  1.00  0.00     0.109 C 
BRANCH  16  17
HETATM   17  C18 UNL     1      26.488   1.584  51.976  1.00  0.00    -0.054 A 
HETATM   18  C19 UNL     1      26.410   0.207  52.018  1.00  0.00     0.007 A 
HETATM   19  C20 UNL     1      27.318  -0.583  52.688  1.00  0.00     0.001 A 
HETATM   20  C21 UNL     1      28.363  -0.020  53.357  1.00  0.00     0.000 A 
HETATM   21  C22 UNL     1      28.478   1.345  53.341  1.00  0.00     0.001 A 
HETATM   22  C23 UNL     1      27.560   2.122  52.666  1.00  0.00     0.007 A 
ENDBRANCH  16  17
ENDBRANCH  12  16
BRANCH   6  23
HETATM   23  O1  UNL     1      19.530   1.395  51.948  1.00  0.00    -0.344 OA
BRANCH  23  24
HETATM   24  C6  UNL     1      18.751   0.909  50.908  1.00  0.00     0.214 C 
BRANCH  24  25
HETATM   25  C7  UNL     1      17.866  -0.135  51.500  1.00  0.00    -0.031 A 
HETATM   26  C8  UNL     1      16.607  -0.341  50.938  1.00  0.00     0.009 A 
HETATM   27  C9  UNL     1      15.725  -1.281  51.415  1.00  0.00     0.004 A 
HETATM   28  C10 UNL     1      16.113  -2.053  52.504  1.00  0.00     0.042 A 
HETATM   29  C11 UNL     1      17.352  -1.879  53.086  1.00  0.00     0.117 A 
HETATM   30  F1  UNL     1      17.720  -2.639  54.147  1.00  0.00    -0.206 F 
HETATM   31  C12 UNL     1      18.230  -0.923  52.588  1.00  0.00     0.051 A 
ENDBRANCH  24  25
ENDBRANCH  23  24
ENDBRANCH   6  23
TORSDOF 6
ENDMDL
MODEL 4
REMARK VINA RESULT:      -8.1      1.932      3.268
REMARK  6 active torsions:
REMARK  status: ('A' for Active; 'I' for Inactive)
REMARK    1  A    between atoms: C5_6  and  O1_7 
REMARK    2  A    between atoms: O1_7  and  C6_8 
REMARK    3  A    between atoms: C6_8  and  C7_9 
REMARK    4  A    between atoms: C16_21  and  N3_22 
REMARK    5  A    between atoms: C16_21  and  C17_23 
REMARK    6  A    between atoms: C17_23  and  C18_24 
ROOT
HETATM    1  C1  UNL     1      19.631   2.855  50.586  1.00  0.00     0.070 C 
HETATM    2  C2  UNL     1      21.019   3.359  50.779  1.00  0.00     0.062 C 
HETATM    3  N1  UNL     1      21.189   4.540  50.284  1.00  0.00    -0.290 NA
HETATM    4  C3  UNL     1      22.318   5.415  50.478  1.00  0.00     0.187 C 
HETATM    5  C4  UNL     1      23.427   4.742  51.132  1.00  0.00    -0.007 C 
HETATM    6  C5  UNL     1      24.631   4.523  50.630  1.00  0.00     0.098 C 
HETATM    7  C13 UNL     1      25.069   3.111  50.823  1.00  0.00     0.083 C 
HETATM    8 CL1  UNL     1      26.617   2.648  50.231  1.00  0.00    -0.080 Cl
HETATM    9  C14 UNL     1      24.313   2.166  51.435  1.00  0.00     0.115 C 
HETATM   10  N2  UNL     1      23.083   2.741  51.832  1.00  0.00    -0.345 N 
HETATM   11  C15 UNL     1      23.149   4.083  52.508  1.00  0.00     0.164 C 
HETATM   12  C16 UNL     1      21.776   2.265  51.517  1.00  0.00     0.273 C 
ENDROOT
BRANCH  12  13
HETATM   13  N3  UNL     1      21.791   1.070  50.716  1.00  0.00     0.114 N 
HETATM   14  H15 UNL     1      21.064   1.014  49.990  1.00  0.00     0.316 HD
HETATM   15  H16 UNL     1      22.719   0.857  50.350  1.00  0.00     0.316 HD
ENDBRANCH  12  13
BRANCH  12  16
HETATM   16  C17 UNL     1      21.014   2.014  52.782  1.00  0.00     0.109 C 
BRANCH  16  17
HETATM   17  C18 UNL     1      21.274   0.676  53.394  1.00  0.00    -0.054 A 
HETATM   18  C19 UNL     1      22.494   0.245  53.870  1.00  0.00     0.007 A 
HETATM   19  C20 UNL     1      22.693  -0.998  54.430  1.00  0.00     0.001 A 
HETATM   20  C21 UNL     1      21.661  -1.880  54.539  1.00  0.00     0.000 A 
HETATM   21  C22 UNL     1      20.430  -1.492  54.077  1.00  0.00     0.001 A 
HETATM   22  C23 UNL     1      20.248  -0.244  53.519  1.00  0.00     0.007 A 
ENDBRANCH  16  17
ENDBRANCH  12  16
BRANCH   6  23
HETATM   23  O1  UNL     1      25.203   5.572  50.060  1.00  0.00    -0.344 OA
BRANCH  23  24
HETATM   24  C6  UNL     1      25.387   5.945  48.737  1.00  0.00     0.214 C 
BRANCH  24  25
HETATM   25  C7  UNL     1      26.827   6.309  48.601  1.00  0.00    -0.031 A 
HETATM   26  C8  UNL     1      27.763   5.288  48.444  1.00  0.00     0.009 A 
HETATM   27  C9  UNL     1      29.109   5.528  48.311  1.00  0.00     0.004 A 
HETATM   28  C10 UNL     1      29.547   6.847  48.336  1.00  0.00     0.042 A 
HETATM   29  C11 UNL     1      28.650   7.884  48.488  1.00  0.00     0.117 A 
HETATM   30  F1  UNL     1      29.089   9.168  48.510  1.00  0.00    -0.206 F 
HETATM   31  C12 UNL     1      27.291   7.621  48.621  1.00  0.00     0.051 A 
ENDBRANCH  24  25
ENDBRANCH  23  24
ENDBRANCH   6  23
TORSDOF 6
ENDMDL
MODEL 5
REMARK VINA RESULT:      -7.9      2.682      4.022
REMARK  6 active torsions:
REMARK  status: ('A' for Active; 'I' for Inactive)
REMARK    1  A    between atoms: C5_6  and  O1_7 
REMARK    2  A    between atoms: O1_7  and  C6_8 
REMARK    3  A    between atoms: C6_8  and  C7_9 
REMARK    4  A    between atoms: C16_21  and  N3_22 
REMARK    5  A    between atoms: C16_21  and  C17_23 
REMARK    6  A    between atoms: C17_23  and  C18_24 
ROOT
HETATM    1  C1  UNL     1      19.951   2.168  48.958  1.00  0.00     0.070 C 
HETATM    2  C2  UNL     1      21.221   2.539  49.640  1.00  0.00     0.062 C 
HETATM    3  N1  UNL     1      21.848   3.493  49.034  1.00  0.00    -0.290 NA
HETATM    4  C3  UNL     1      22.976   4.246  49.520  1.00  0.00     0.187 C 
HETATM    5  C4  UNL     1      23.539   3.671  50.729  1.00  0.00    -0.007 C 
HETATM    6  C5  UNL     1      24.755   3.173  50.881  1.00  0.00     0.098 C 
HETATM    7  C13 UNL     1      24.734   1.840  51.548  1.00  0.00     0.083 C 
HETATM    8 CL1  UNL     1      26.234   1.043  51.828  1.00  0.00    -0.080 Cl
HETATM    9  C14 UNL     1      23.598   1.214  51.943  1.00  0.00     0.115 C 
HETATM   10  N2  UNL     1      22.485   2.021  51.612  1.00  0.00    -0.345 N 
HETATM   11  C15 UNL     1      22.587   3.486  51.940  1.00  0.00     0.164 C 
HETATM   12  C16 UNL     1      21.340   1.631  50.856  1.00  0.00     0.273 C 
ENDROOT
BRANCH  12  13
HETATM   13  N3  UNL     1      21.393   0.260  50.423  1.00  0.00     0.114 N 
HETATM   14  H15 UNL     1      22.234  -0.007  49.895  1.00  0.00     0.316 HD
HETATM   15  H16 UNL     1      21.187  -0.395  51.177  1.00  0.00     0.316 HD
ENDBRANCH  12  13
BRANCH  12  16
HETATM   16  C17 UNL     1      20.100   1.858  51.665  1.00  0.00     0.109 C 
BRANCH  16  17
HETATM   17  C18 UNL     1      19.555   0.621  52.301  1.00  0.00    -0.054 A 
HETATM   18  C19 UNL     1      20.204  -0.132  53.257  1.00  0.00     0.007 A 
HETATM   19  C20 UNL     1      19.666  -1.268  53.821  1.00  0.00     0.001 A 
HETATM   20  C21 UNL     1      18.432  -1.708  53.446  1.00  0.00     0.000 A 
HETATM   21  C22 UNL     1      17.753  -0.990  52.497  1.00  0.00     0.001 A 
HETATM   22  C23 UNL     1      18.306   0.145  51.942  1.00  0.00     0.007 A 
ENDBRANCH  16  17
ENDBRANCH  12  16
BRANCH   6  23
HETATM   23  O1  UNL     1      25.736   3.932  50.417  1.00  0.00    -0.344 OA
BRANCH  23  24
HETATM   24  C6  UNL     1      26.765   3.699  49.517  1.00  0.00     0.214 C 
BRANCH  24  25
HETATM   25  C7  UNL     1      27.073   5.013  48.884  1.00  0.00    -0.031 A 
HETATM   26  C8  UNL     1      28.365   5.240  48.411  1.00  0.00     0.009 A 
HETATM   27  C9  UNL     1      28.741   6.419  47.813  1.00  0.00     0.004 A 
HETATM   28  C10 UNL     1      27.787   7.422  47.680  1.00  0.00     0.042 A 
HETATM   29  C11 UNL     1      26.499   7.233  48.135  1.00  0.00     0.117 A 
HETATM   30  F1  UNL     1      25.576   8.218  48.000  1.00  0.00    -0.206 F 
HETATM   31  C12 UNL     1      26.138   6.033  48.737  1.00  0.00     0.051 A 
ENDBRANCH  24  25
ENDBRANCH  23  24
ENDBRANCH   6  23
TORSDOF 6
ENDMDL
MODEL 6
REMARK VINA RESULT:      -7.6      3.861      8.993
REMARK  6 active torsions:
REMARK  status: ('A' for Active; 'I' for Inactive)
REMARK    1  A    between atoms: C5_6  and  O1_7 
REMARK    2  A    between atoms: O1_7  and  C6_8 
REMARK    3  A    between atoms: C6_8  and  C7_9 
REMARK    4  A    between atoms: C16_21  and  N3_22 
REMARK    5  A    between atoms: C16_21  and  C17_23 
REMARK    6  A    between atoms: C17_23  and  C18_24 
ROOT
HETATM    1  C1  UNL     1      30.608   9.948  49.524  1.00  0.00     0.070 C 
HETATM    2  C2  UNL     1      29.575   9.009  49.004  1.00  0.00     0.062 C 
HETATM    3  N1  UNL     1      28.385   9.511  49.047  1.00  0.00    -0.290 NA
HETATM    4  C3  UNL     1      27.192   8.984  48.434  1.00  0.00     0.187 C 
HETATM    5  C4  UNL     1      27.388   7.642  47.915  1.00  0.00    -0.007 C 
HETATM    6  C5  UNL     1      26.775   6.539  48.309  1.00  0.00     0.098 C 
HETATM    7  C13 UNL     1      27.732   5.422  48.551  1.00  0.00     0.083 C 
HETATM    8 CL1  UNL     1      27.105   3.906  49.071  1.00  0.00    -0.080 Cl
HETATM    9  C14 UNL     1      29.075   5.534  48.390  1.00  0.00     0.115 C 
HETATM   10  N2  UNL     1      29.384   6.850  47.977  1.00  0.00    -0.345 N 
HETATM   11  C15 UNL     1      28.531   7.437  46.885  1.00  0.00     0.164 C 
HETATM   12  C16 UNL     1      30.312   7.743  48.590  1.00  0.00     0.273 C 
ENDROOT
BRANCH  12  13
HETATM   13  N3  UNL     1      30.964   7.174  49.739  1.00  0.00     0.114 N 
HETATM   14  H15 UNL     1      31.567   6.363  49.551  1.00  0.00     0.316 HD
HETATM   15  H16 UNL     1      31.431   7.877  50.311  1.00  0.00     0.316 HD
ENDBRANCH  12  13
BRANCH  12  16
HETATM   16  C17 UNL     1      31.338   8.171  47.587  1.00  0.00     0.109 C 
BRANCH  16  17
HETATM   17  C18 UNL     1      32.509   7.248  47.484  1.00  0.00    -0.054 A 
HETATM   18  C19 UNL     1      33.708   7.411  48.146  1.00  0.00     0.007 A 
HETATM   19  C20 UNL     1      34.765   6.535  48.025  1.00  0.00     0.001 A 
HETATM   20  C21 UNL     1      34.667   5.439  47.223  1.00  0.00     0.000 A 
HETATM   21  C22 UNL     1      33.492   5.240  46.545  1.00  0.00     0.001 A 
HETATM   22  C23 UNL     1      32.444   6.126  46.677  1.00  0.00     0.007 A 
ENDBRANCH  16  17
ENDBRANCH  12  16
BRANCH   6  23
HETATM   23  O1  UNL     1      25.459   6.635  48.418  1.00  0.00    -0.344 OA
BRANCH  23  24
HETATM   24  C6  UNL     1      24.605   6.724  49.508  1.00  0.00     0.214 C 
BRANCH  24  25
HETATM   25  C7  UNL     1      24.122   5.340  49.776  1.00  0.00    -0.031 A 
HETATM   26  C8  UNL     1      23.629   4.587  48.712  1.00  0.00     0.009 A 
HETATM   27  C9  UNL     1      23.163   3.303  48.863  1.00  0.00     0.004 A 
HETATM   28  C10 UNL     1      23.188   2.739  50.133  1.00  0.00     0.042 A 
HETATM   29  C11 UNL     1      23.671   3.453  51.211  1.00  0.00     0.117 A 
HETATM   30  F1  UNL     1      23.692   2.893  52.446  1.00  0.00    -0.206 F 
HETATM   31  C12 UNL     1      24.139   4.751  51.037  1.00  0.00     0.051 A 
ENDBRANCH  24  25
ENDBRANCH  23  24
ENDBRANCH   6  23
TORSDOF 6
ENDMDL
MODEL 7
REMARK VINA RESULT:      -7.6      2.377      3.178
REMARK  6 active torsions:
REMARK  status: ('A' for Active; 'I' for Inactive)
REMARK    1  A    between atoms: C5_6  and  O1_7 
REMARK    2  A    between atoms: O1_7  and  C6_8 
REMARK    3  A    between atoms: C6_8  and  C7_9 
REMARK    4  A    between atoms: C16_21  and  N3_22 
REMARK    5  A    between atoms: C16_21  and  C17_23 
REMARK    6  A    between atoms: C17_23  and  C18_24 
ROOT
HETATM    1  C1  UNL     1      23.002   1.064  53.103  1.00  0.00     0.070 C 
HETATM    2  C2  UNL     1      23.051   1.870  51.851  1.00  0.00     0.062 C 
HETATM    3  N1  UNL     1      24.243   2.289  51.580  1.00  0.00    -0.290 NA
HETATM    4  C3  UNL     1      24.699   2.897  50.355  1.00  0.00     0.187 C 
HETATM    5  C4  UNL     1      23.599   3.232  49.467  1.00  0.00    -0.007 C 
HETATM    6  C5  UNL     1      23.245   4.439  49.060  1.00  0.00     0.098 C 
HETATM    7  C13 UNL     1      21.778   4.670  49.204  1.00  0.00     0.083 C 
HETATM    8 CL1  UNL     1      21.140   6.193  48.720  1.00  0.00    -0.080 Cl
HETATM    9  C14 UNL     1      20.917   3.748  49.701  1.00  0.00     0.115 C 
HETATM   10  N2  UNL     1      21.636   2.581  50.050  1.00  0.00    -0.345 N 
HETATM   11  C15 UNL     1      22.644   2.081  49.051  1.00  0.00     0.164 C 
HETATM   12  C16 UNL     1      21.629   1.918  51.313  1.00  0.00     0.273 C 
ENDROOT
BRANCH  12  13
HETATM   13  N3  UNL     1      20.774   2.556  52.278  1.00  0.00     0.114 N 
HETATM   14  H15 UNL     1      20.549   3.542  52.088  1.00  0.00     0.316 HD
HETATM   15  H16 UNL     1      19.944   2.004  52.489  1.00  0.00     0.316 HD
ENDBRANCH  12  13
BRANCH  12  16
HETATM   16  C17 UNL     1      21.207   0.493  51.130  1.00  0.00     0.109 C 
BRANCH  16  17
HETATM   17  C18 UNL     1      19.735   0.271  51.267  1.00  0.00    -0.054 A 
HETATM   18  C19 UNL     1      19.117  -0.297  52.362  1.00  0.00     0.007 A 
HETATM   19  C20 UNL     1      17.755  -0.483  52.450  1.00  0.00     0.001 A 
HETATM   20  C21 UNL     1      16.937  -0.101  51.430  1.00  0.00     0.000 A 
HETATM   21  C22 UNL     1      17.511   0.467  50.323  1.00  0.00     0.001 A 
HETATM   22  C23 UNL     1      18.876   0.646  50.249  1.00  0.00     0.007 A 
ENDBRANCH  16  17
ENDBRANCH  12  16
BRANCH   6  23
HETATM   23  O1  UNL     1      24.235   5.198  48.619  1.00  0.00    -0.344 OA
BRANCH  23  24
HETATM   24  C6  UNL     1      24.782   6.392  49.066  1.00  0.00     0.214 C 
BRANCH  24  25
HETATM   25  C7  UNL     1      26.201   6.400  48.611  1.00  0.00    -0.031 A 
HETATM   26  C8  UNL     1      26.978   5.262  48.825  1.00  0.00     0.009 A 
HETATM   27  C9  UNL     1      28.294   5.178  48.440  1.00  0.00     0.004 A 
HETATM   28  C10 UNL     1      28.867   6.277  47.810  1.00  0.00     0.042 A 
HETATM   29  C11 UNL     1      28.129   7.420  47.579  1.00  0.00     0.117 A 
HETATM   30  F1  UNL     1      28.698   8.486  46.964  1.00  0.00    -0.206 F 
HETATM   31  C12 UNL     1      26.798   7.486  47.977  1.00  0.00     0.051 A 
ENDBRANCH  24  25
ENDBRANCH  23  24
ENDBRANCH   6  23
TORSDOF 6
ENDMDL
MODEL 8
REMARK VINA RESULT:      -7.5      5.057      7.227
REMARK  6 active torsions:
REMARK  status: ('A' for Active; 'I' for Inactive)
REMARK    1  A    between atoms: C5_6  and  O1_7 
REMARK    2  A    between atoms: O1_7  and  C6_8 
REMARK    3  A    between atoms: C6_8  and  C7_9 
REMARK    4  A    between atoms: C16_21  and  N3_22 
REMARK    5  A    between atoms: C16_21  and  C17_23 
REMARK    6  A    between atoms: C17_23  and  C18_24 
ROOT
HETATM    1  C1  UNL     1      26.748   4.669  48.975  1.00  0.00     0.070 C 
HETATM    2  C2  UNL     1      27.856   5.598  48.617  1.00  0.00     0.062 C 
HETATM    3  N1  UNL     1      28.976   4.982  48.432  1.00  0.00    -0.290 NA
HETATM    4  C3  UNL     1      30.188   5.521  47.867  1.00  0.00     0.187 C 
HETATM    5  C4  UNL     1      30.127   6.965  47.716  1.00  0.00    -0.007 C 
HETATM    6  C5  UNL     1      30.892   7.860  48.317  1.00  0.00     0.098 C 
HETATM    7  C13 UNL     1      30.094   8.971  48.912  1.00  0.00     0.083 C 
HETATM    8 CL1  UNL     1      30.930  10.229  49.735  1.00  0.00    -0.080 Cl
HETATM    9  C14 UNL     1      28.740   9.043  48.845  1.00  0.00     0.115 C 
HETATM   10  N2  UNL     1      28.249   7.916  48.146  1.00  0.00    -0.345 N 
HETATM   11  C15 UNL     1      28.960   7.545  46.873  1.00  0.00     0.164 C 
HETATM   12  C16 UNL     1      27.257   6.996  48.597  1.00  0.00     0.273 C 
ENDROOT
BRANCH  12  13
HETATM   13  N3  UNL     1      26.746   7.316  49.903  1.00  0.00     0.114 N 
HETATM   14  H15 UNL     1      26.766   6.549  50.588  1.00  0.00     0.316 HD
HETATM   15  H16 UNL     1      27.144   8.178  50.277  1.00  0.00     0.316 HD
ENDBRANCH  12  13
BRANCH  12  16
HETATM   16  C17 UNL     1      26.129   6.950  47.612  1.00  0.00     0.109 C 
BRANCH  16  17
HETATM   17  C18 UNL     1      24.934   7.750  48.017  1.00  0.00    -0.054 A 
HETATM   18  C19 UNL     1      24.793   9.111  47.840  1.00  0.00     0.007 A 
HETATM   19  C20 UNL     1      23.672   9.812  48.227  1.00  0.00     0.001 A 
HETATM   20  C21 UNL     1      22.626   9.173  48.819  1.00  0.00     0.000 A 
HETATM   21  C22 UNL     1      22.725   7.820  49.016  1.00  0.00     0.001 A 
HETATM   22  C23 UNL     1      23.854   7.132  48.622  1.00  0.00     0.007 A 
ENDBRANCH  16  17
ENDBRANCH  12  16
BRANCH   6  23
HETATM   23  O1  UNL     1      32.190   7.604  48.285  1.00  0.00    -0.344 OA
BRANCH  23  24
HETATM   24  C6  UNL     1      33.169   7.802  47.322  1.00  0.00     0.214 C 
BRANCH  24  25
HETATM   25  C7  UNL     1      33.694   6.452  46.974  1.00  0.00    -0.031 A 
HETATM   26  C8  UNL     1      33.705   6.064  45.635  1.00  0.00     0.009 A 
HETATM   27  C9  UNL     1      34.170   4.840  45.219  1.00  0.00     0.004 A 
HETATM   28  C10 UNL     1      34.649   3.957  46.181  1.00  0.00     0.042 A 
HETATM   29  C11 UNL     1      34.655   4.306  47.516  1.00  0.00     0.117 A 
HETATM   30  F1  UNL     1      35.124   3.437  48.446  1.00  0.00    -0.206 F 
HETATM   31  C12 UNL     1      34.180   5.550  47.916  1.00  0.00     0.051 A 
ENDBRANCH  24  25
ENDBRANCH  23  24
ENDBRANCH   6  23
TORSDOF 6
ENDMDL
MODEL 9
REMARK VINA RESULT:      -7.4      2.086      3.380
REMARK  6 active torsions:
REMARK  status: ('A' for Active; 'I' for Inactive)
REMARK    1  A    between atoms: C5_6  and  O1_7 
REMARK    2  A    between atoms: O1_7  and  C6_8 
REMARK    3  A    between atoms: C6_8  and  C7_9 
REMARK    4  A    between atoms: C16_21  and  N3_22 
REMARK    5  A    between atoms: C16_21  and  C17_23 
REMARK    6  A    between atoms: C17_23  and  C18_24 
ROOT
HETATM    1  C1  UNL     1      21.458   4.267  48.663  1.00  0.00     0.070 C 
HETATM    2  C2  UNL     1      22.756   4.991  48.760  1.00  0.00     0.062 C 
HETATM    3  N1  UNL     1      22.769   6.078  48.062  1.00  0.00    -0.290 NA
HETATM    4  C3  UNL     1      23.758   7.126  48.093  1.00  0.00     0.187 C 
HETATM    5  C4  UNL     1      24.936   6.746  48.855  1.00  0.00    -0.007 C 
HETATM    6  C5  UNL     1      26.170   6.616  48.398  1.00  0.00     0.098 C 
HETATM    7  C13 UNL     1      26.799   5.338  48.839  1.00  0.00     0.083 C 
HETATM    8 CL1  UNL     1      28.410   5.004  48.335  1.00  0.00    -0.080 Cl
HETATM    9  C14 UNL     1      26.170   4.418  49.611  1.00  0.00     0.115 C 
HETATM   10  N2  UNL     1      24.862   4.872  49.902  1.00  0.00    -0.345 N 
HETATM   11  C15 UNL     1      24.721   6.307  50.328  1.00  0.00     0.164 C 
HETATM   12  C16 UNL     1      23.643   4.165  49.680  1.00  0.00     0.273 C 
ENDROOT
BRANCH  12  13
HETATM   13  N3  UNL     1      23.845   2.862  49.105  1.00  0.00     0.114 N 
HETATM   14  H15 UNL     1      23.462   2.074  49.643  1.00  0.00     0.316 HD
HETATM   15  H16 UNL     1      23.576   2.823  48.122  1.00  0.00     0.316 HD
ENDBRANCH  12  13
BRANCH  12  16
HETATM   16  C17 UNL     1      22.894   4.036  50.971  1.00  0.00     0.109 C 
BRANCH  16  17
HETATM   17  C18 UNL     1      23.224   2.800  51.744  1.00  0.00    -0.054 A 
HETATM   18  C19 UNL     1      22.452   1.657  51.780  1.00  0.00     0.007 A 
HETATM   19  C20 UNL     1      22.792   0.536  52.505  1.00  0.00     0.001 A 
HETATM   20  C21 UNL     1      23.938   0.510  53.241  1.00  0.00     0.000 A 
HETATM   21  C22 UNL     1      24.734   1.626  53.234  1.00  0.00     0.001 A 
HETATM   22  C23 UNL     1      24.379   2.740  52.502  1.00  0.00     0.007 A 
ENDBRANCH  16  17
ENDBRANCH  12  16
BRANCH   6  23
HETATM   23  O1  UNL     1      26.601   7.619  47.648  1.00  0.00    -0.344 OA
BRANCH  23  24
HETATM   24  C6  UNL     1      27.276   8.795  47.941  1.00  0.00     0.214 C 
BRANCH  24  25
HETATM   25  C7  UNL     1      28.729   8.467  47.892  1.00  0.00    -0.031 A 
HETATM   26  C8  UNL     1      29.276   8.030  46.686  1.00  0.00     0.009 A 
HETATM   27  C9  UNL     1      30.603   7.706  46.546  1.00  0.00     0.004 A 
HETATM   28  C10 UNL     1      31.429   7.820  47.659  1.00  0.00     0.042 A 
HETATM   29  C11 UNL     1      30.924   8.250  48.869  1.00  0.00     0.117 A 
HETATM   30  F1  UNL     1      31.739   8.358  49.948  1.00  0.00    -0.206 F 
HETATM   31  C12 UNL     1      29.577   8.574  48.990  1.00  0.00     0.051 A 
ENDBRANCH  24  25
ENDBRANCH  23  24
ENDBRANCH   6  23
TORSDOF 6
ENDMDL
