MODEL 1
REMARK VINA RESULT:      -7.4      0.000      0.000
REMARK  3 active torsions:
REMARK  status: ('A' for Active; 'I' for Inactive)
REMARK    1  A    between atoms: C1_1  and  N4_14 
REMARK    2  A    between atoms: N1_2  and  C2_3 
REMARK    3  A    between atoms: N4_14  and  C10_15 
ROOT
HETATM    1  C2  UNL     1      23.858   1.835  52.221  1.00  0.00     0.072 C 
HETATM    2  C3  UNL     1      24.218   2.442  51.070  1.00  0.00     0.078 C 
HETATM    3  S1  UNL     1      22.695   2.676  50.082  1.00  0.00    -0.117 SA
HETATM    4  C4  UNL     1      21.646   2.536  51.438  1.00  0.00     0.094 C 
HETATM    5  C5  UNL     1      21.142   3.709  52.158  1.00  0.00     0.139 C 
HETATM    6  N2  UNL     1      19.962   3.249  52.674  1.00  0.00    -0.191 NA
HETATM    7  N3  UNL     1      20.185   1.834  52.757  1.00  0.00    -0.300 N 
HETATM    8  C6  UNL     1      20.419   0.463  53.276  1.00  0.00     0.172 C 
HETATM    9  C7  UNL     1      21.952   0.490  53.069  1.00  0.00     0.006 C 
HETATM   10  C8  UNL     1      22.413   1.541  52.311  1.00  0.00    -0.005 C 
HETATM   11  C9  UNL     1      20.280   1.842  51.264  1.00  0.00     0.176 C 
ENDROOT
BRANCH   1  12
HETATM   12  N1  UNL     1      24.868   1.523  53.213  1.00  0.00    -0.243 NA
HETATM   13  C1  UNL     1      26.056   2.033  53.086  1.00  0.00     0.208 C 
BRANCH  13  14
HETATM   14  N4  UNL     1      26.937   1.622  54.157  1.00  0.00    -0.351 N 
HETATM   15  H9  UNL     1      26.921   2.044  55.132  1.00  0.00     0.166 HD
BRANCH  14  16
HETATM   16  C10 UNL     1      27.899   0.577  53.896  1.00  0.00     0.032 A 
HETATM   17  C11 UNL     1      29.267   0.604  54.086  1.00  0.00     0.029 A 
HETATM   18  C12 UNL     1      29.990  -0.525  53.759  1.00  0.00     0.002 A 
HETATM   19  C13 UNL     1      29.375  -1.652  53.257  1.00  0.00     0.000 A 
HETATM   20  C14 UNL     1      28.007  -1.673  53.068  1.00  0.00     0.002 A 
HETATM   21  C15 UNL     1      27.264  -0.554  53.388  1.00  0.00     0.029 A 
ENDBRANCH  14  16
ENDBRANCH  13  14
ENDBRANCH   1  12
TORSDOF 3
ENDMDL
MODEL 2
REMARK VINA RESULT:      -7.3      7.581      8.574
REMARK  3 active torsions:
REMARK  status: ('A' for Active; 'I' for Inactive)
REMARK    1  A    between atoms: C1_1  and  N4_14 
REMARK    2  A    between atoms: N1_2  and  C2_3 
REMARK    3  A    between atoms: N4_14  and  C10_15 
ROOT
HETATM    1  C2  UNL     1      28.992   6.126  48.118  1.00  0.00     0.072 C 
HETATM    2  C3  UNL     1      29.133   7.184  47.290  1.00  0.00     0.078 C 
HETATM    3  S1  UNL     1      27.470   7.911  47.052  1.00  0.00    -0.117 SA
HETATM    4  C4  UNL     1      26.819   7.198  48.476  1.00  0.00     0.094 C 
HETATM    5  C5  UNL     1      26.755   7.920  49.750  1.00  0.00     0.139 C 
HETATM    6  N2  UNL     1      25.694   7.321  50.371  1.00  0.00    -0.191 NA
HETATM    7  N3  UNL     1      25.666   6.022  49.762  1.00  0.00    -0.300 N 
HETATM    8  C6  UNL     1      25.775   4.559  49.536  1.00  0.00     0.172 C 
HETATM    9  C7  UNL     1      27.173   4.618  48.875  1.00  0.00     0.006 C 
HETATM   10  C8  UNL     1      27.596   5.882  48.537  1.00  0.00    -0.005 C 
HETATM   11  C9  UNL     1      25.353   6.720  48.476  1.00  0.00     0.176 C 
ENDROOT
BRANCH   1  12
HETATM   12  N1  UNL     1      30.157   5.349  48.492  1.00  0.00    -0.243 NA
HETATM   13  C1  UNL     1      31.328   5.726  48.074  1.00  0.00     0.208 C 
BRANCH  13  14
HETATM   14  N4  UNL     1      32.376   4.843  48.537  1.00  0.00    -0.351 N 
HETATM   15  H9  UNL     1      32.472   4.514  49.542  1.00  0.00     0.166 HD
BRANCH  14  16
HETATM   16  C10 UNL     1      33.356   4.377  47.584  1.00  0.00     0.032 A 
HETATM   17  C11 UNL     1      34.347   3.431  47.765  1.00  0.00     0.029 A 
HETATM   18  C12 UNL     1      35.176   3.147  46.700  1.00  0.00     0.002 A 
HETATM   19  C13 UNL     1      35.028   3.783  45.485  1.00  0.00     0.000 A 
HETATM   20  C14 UNL     1      34.037   4.728  45.309  1.00  0.00     0.002 A 
HETATM   21  C15 UNL     1      33.196   5.027  46.362  1.00  0.00     0.029 A 
ENDBRANCH  14  16
ENDBRANCH  13  14
ENDBRANCH   1  12
TORSDOF 3
ENDMDL
MODEL 3
REMARK VINA RESULT:      -7.2      1.951      2.898
REMARK  3 active torsions:
REMARK  status: ('A' for Active; 'I' for Inactive)
REMARK    1  A    between atoms: C1_1  and  N4_14 
REMARK    2  A    between atoms: N1_2  and  C2_3 
REMARK    3  A    between atoms: N4_14  and  C10_15 
ROOT
HETATM    1  C2  UNL     1      22.887  -0.174  53.242  1.00  0.00     0.072 C 
HETATM    2  C3  UNL     1      22.008  -1.026  53.809  1.00  0.00     0.078 C 
HETATM    3  S1  UNL     1      20.348  -0.267  53.667  1.00  0.00    -0.117 SA
HETATM    4  C4  UNL     1      20.802   0.781  52.381  1.00  0.00     0.094 C 
HETATM    5  C5  UNL     1      20.568   0.438  50.975  1.00  0.00     0.139 C 
HETATM    6  N2  UNL     1      20.470   1.669  50.387  1.00  0.00    -0.191 NA
HETATM    7  N3  UNL     1      21.229   2.502  51.275  1.00  0.00    -0.300 N 
HETATM    8  C6  UNL     1      22.292   3.365  51.849  1.00  0.00     0.172 C 
HETATM    9  C7  UNL     1      22.985   2.232  52.642  1.00  0.00     0.006 C 
HETATM   10  C8  UNL     1      22.266   1.063  52.725  1.00  0.00    -0.005 C 
HETATM   11  C9  UNL     1      20.197   2.197  52.314  1.00  0.00     0.176 C 
ENDROOT
BRANCH   1  12
HETATM   12  N1  UNL     1      24.295  -0.517  53.204  1.00  0.00    -0.243 NA
HETATM   13  C1  UNL     1      24.954  -0.600  54.320  1.00  0.00     0.208 C 
BRANCH  13  14
HETATM   14  N4  UNL     1      26.341  -0.951  54.104  1.00  0.00    -0.351 N 
HETATM   15  H9  UNL     1      26.686  -1.947  53.975  1.00  0.00     0.166 HD
BRANCH  14  16
HETATM   16  C10 UNL     1      27.321   0.108  54.058  1.00  0.00     0.032 A 
HETATM   17  C11 UNL     1      28.511   0.206  54.754  1.00  0.00     0.029 A 
HETATM   18  C12 UNL     1      29.292   1.325  54.548  1.00  0.00     0.002 A 
HETATM   19  C13 UNL     1      28.907   2.321  53.676  1.00  0.00     0.000 A 
HETATM   20  C14 UNL     1      27.717   2.218  52.984  1.00  0.00     0.002 A 
HETATM   21  C15 UNL     1      26.919   1.107  53.174  1.00  0.00     0.029 A 
ENDBRANCH  14  16
ENDBRANCH  13  14
ENDBRANCH   1  12
TORSDOF 3
ENDMDL
MODEL 4
REMARK VINA RESULT:      -7.2      3.260      5.310
REMARK  3 active torsions:
REMARK  status: ('A' for Active; 'I' for Inactive)
REMARK    1  A    between atoms: C1_1  and  N4_14 
REMARK    2  A    between atoms: N1_2  and  C2_3 
REMARK    3  A    between atoms: N4_14  and  C10_15 
ROOT
HETATM    1  C2  UNL     1      22.690   2.086  51.829  1.00  0.00     0.072 C 
HETATM    2  C3  UNL     1      21.576   1.999  51.072  1.00  0.00     0.078 C 
HETATM    3  S1  UNL     1      20.859   0.338  51.350  1.00  0.00    -0.117 SA
HETATM    4  C4  UNL     1      21.679   0.099  52.843  1.00  0.00     0.094 C 
HETATM    5  C5  UNL     1      21.048   0.388  54.134  1.00  0.00     0.139 C 
HETATM    6  N2  UNL     1      21.705  -0.464  54.977  1.00  0.00    -0.191 NA
HETATM    7  N3  UNL     1      22.959  -0.663  54.308  1.00  0.00    -0.300 N 
HETATM    8  C6  UNL     1      24.401  -0.627  53.958  1.00  0.00     0.172 C 
HETATM    9  C7  UNL     1      24.275   0.536  52.946  1.00  0.00     0.006 C 
HETATM   10  C8  UNL     1      22.984   0.857  52.595  1.00  0.00    -0.005 C 
HETATM   11  C9  UNL     1      22.178  -1.313  53.210  1.00  0.00     0.176 C 
ENDROOT
BRANCH   1  12
HETATM   12  N1  UNL     1      23.474   3.305  51.814  1.00  0.00    -0.243 NA
HETATM   13  C1  UNL     1      23.897   3.769  50.677  1.00  0.00     0.208 C 
BRANCH  13  14
HETATM   14  N4  UNL     1      24.659   4.988  50.842  1.00  0.00    -0.351 N 
HETATM   15  H9  UNL     1      24.450   5.722  51.581  1.00  0.00     0.166 HD
BRANCH  14  16
HETATM   16  C10 UNL     1      25.772   5.230  49.954  1.00  0.00     0.032 A 
HETATM   17  C11 UNL     1      26.676   4.319  49.443  1.00  0.00     0.029 A 
HETATM   18  C12 UNL     1      27.668   4.789  48.607  1.00  0.00     0.002 A 
HETATM   19  C13 UNL     1      27.763   6.126  48.284  1.00  0.00     0.000 A 
HETATM   20  C14 UNL     1      26.857   7.032  48.799  1.00  0.00     0.002 A 
HETATM   21  C15 UNL     1      25.856   6.585  49.637  1.00  0.00     0.029 A 
ENDBRANCH  14  16
ENDBRANCH  13  14
ENDBRANCH   1  12
TORSDOF 3
ENDMDL
MODEL 5
REMARK VINA RESULT:      -7.1      1.560      1.795
REMARK  3 active torsions:
REMARK  status: ('A' for Active; 'I' for Inactive)
REMARK    1  A    between atoms: C1_1  and  N4_14 
REMARK    2  A    between atoms: N1_2  and  C2_3 
REMARK    3  A    between atoms: N4_14  and  C10_15 
ROOT
HETATM    1  C2  UNL     1      23.913   2.102  51.396  1.00  0.00     0.072 C 
HETATM    2  C3  UNL     1      24.583   3.263  51.239  1.00  0.00     0.078 C 
HETATM    3  S1  UNL     1      23.392   4.492  50.587  1.00  0.00    -0.117 SA
HETATM    4  C4  UNL     1      22.010   3.620  51.124  1.00  0.00     0.094 C 
HETATM    5  C5  UNL     1      21.345   3.918  52.395  1.00  0.00     0.139 C 
HETATM    6  N2  UNL     1      20.062   3.509  52.157  1.00  0.00    -0.191 NA
HETATM    7  N3  UNL     1      20.234   2.519  51.132  1.00  0.00    -0.300 N 
HETATM    8  C6  UNL     1      20.297   1.226  50.405  1.00  0.00     0.172 C 
HETATM    9  C7  UNL     1      21.828   1.056  50.546  1.00  0.00     0.006 C 
HETATM   10  C8  UNL     1      22.494   2.175  50.989  1.00  0.00    -0.005 C 
HETATM   11  C9  UNL     1      20.734   3.626  50.258  1.00  0.00     0.176 C 
ENDROOT
BRANCH   1  12
HETATM   12  N1  UNL     1      24.608   0.937  51.906  1.00  0.00    -0.243 NA
HETATM   13  C1  UNL     1      24.365   0.537  53.117  1.00  0.00     0.208 C 
BRANCH  13  14
HETATM   14  N4  UNL     1      25.140  -0.634  53.466  1.00  0.00    -0.351 N 
HETATM   15  H9  UNL     1      24.741  -1.618  53.505  1.00  0.00     0.166 HD
BRANCH  14  16
HETATM   16  C10 UNL     1      26.539  -0.466  53.781  1.00  0.00     0.032 A 
HETATM   17  C11 UNL     1      27.113   0.367  54.722  1.00  0.00     0.029 A 
HETATM   18  C12 UNL     1      28.487   0.358  54.844  1.00  0.00     0.002 A 
HETATM   19  C13 UNL     1      29.274  -0.454  54.055  1.00  0.00     0.000 A 
HETATM   20  C14 UNL     1      28.695  -1.284  53.116  1.00  0.00     0.002 A 
HETATM   21  C15 UNL     1      27.322  -1.292  52.976  1.00  0.00     0.029 A 
ENDBRANCH  14  16
ENDBRANCH  13  14
ENDBRANCH   1  12
TORSDOF 3
ENDMDL
MODEL 6
REMARK VINA RESULT:      -7.1      4.092      6.797
REMARK  3 active torsions:
REMARK  status: ('A' for Active; 'I' for Inactive)
REMARK    1  A    between atoms: C1_1  and  N4_14 
REMARK    2  A    between atoms: N1_2  and  C2_3 
REMARK    3  A    between atoms: N4_14  and  C10_15 
ROOT
HETATM    1  C2  UNL     1      25.876   2.251  51.691  1.00  0.00     0.072 C 
HETATM    2  C3  UNL     1      24.702   2.845  51.995  1.00  0.00     0.078 C 
HETATM    3  S1  UNL     1      23.766   1.684  53.057  1.00  0.00    -0.117 SA
HETATM    4  C4  UNL     1      25.161   0.795  53.526  1.00  0.00     0.094 C 
HETATM    5  C5  UNL     1      25.880   1.072  54.773  1.00  0.00     0.139 C 
HETATM    6  N2  UNL     1      26.446  -0.140  55.059  1.00  0.00    -0.191 NA
HETATM    7  N3  UNL     1      26.545  -0.753  53.766  1.00  0.00    -0.300 N 
HETATM    8  C6  UNL     1      27.078  -1.316  52.500  1.00  0.00     0.172 C 
HETATM    9  C7  UNL     1      26.815  -0.047  51.656  1.00  0.00     0.006 C 
HETATM   10  C8  UNL     1      26.023   0.897  52.266  1.00  0.00    -0.005 C 
HETATM   11  C9  UNL     1      25.049  -0.730  53.729  1.00  0.00     0.176 C 
ENDROOT
BRANCH   1  12
HETATM   12  N1  UNL     1      26.835   2.945  50.855  1.00  0.00    -0.243 NA
HETATM   13  C1  UNL     1      26.403   3.681  49.876  1.00  0.00     0.208 C 
BRANCH  13  14
HETATM   14  N4  UNL     1      27.488   4.300  49.146  1.00  0.00    -0.351 N 
HETATM   15  H9  UNL     1      28.438   3.847  49.000  1.00  0.00     0.166 HD
BRANCH  14  16
HETATM   16  C10 UNL     1      27.277   5.611  48.579  1.00  0.00     0.032 A 
HETATM   17  C11 UNL     1      26.099   6.326  48.485  1.00  0.00     0.029 A 
HETATM   18  C12 UNL     1      26.142   7.572  47.894  1.00  0.00     0.002 A 
HETATM   19  C13 UNL     1      27.321   8.099  47.410  1.00  0.00     0.000 A 
HETATM   20  C14 UNL     1      28.495   7.379  47.506  1.00  0.00     0.002 A 
HETATM   21  C15 UNL     1      28.476   6.130  48.094  1.00  0.00     0.029 A 
ENDBRANCH  14  16
ENDBRANCH  13  14
ENDBRANCH   1  12
TORSDOF 3
ENDMDL
MODEL 7
REMARK VINA RESULT:      -7.0      3.171      6.357
REMARK  3 active torsions:
REMARK  status: ('A' for Active; 'I' for Inactive)
REMARK    1  A    between atoms: C1_1  and  N4_14 
REMARK    2  A    between atoms: N1_2  and  C2_3 
REMARK    3  A    between atoms: N4_14  and  C10_15 
ROOT
HETATM    1  C2  UNL     1      24.367   1.903  52.678  1.00  0.00     0.072 C 
HETATM    2  C3  UNL     1      23.206   1.298  53.004  1.00  0.00     0.078 C 
HETATM    3  S1  UNL     1      23.600  -0.437  53.439  1.00  0.00    -0.117 SA
HETATM    4  C4  UNL     1      25.259  -0.109  53.754  1.00  0.00     0.094 C 
HETATM    5  C5  UNL     1      25.760   0.153  55.106  1.00  0.00     0.139 C 
HETATM    6  N2  UNL     1      27.063  -0.252  55.019  1.00  0.00    -0.191 NA
HETATM    7  N3  UNL     1      27.345  -0.104  53.620  1.00  0.00    -0.300 N 
HETATM    8  C6  UNL     1      27.886   0.381  52.326  1.00  0.00     0.172 C 
HETATM    9  C7  UNL     1      26.647   1.233  51.961  1.00  0.00     0.006 C 
HETATM   10  C8  UNL     1      25.542   1.009  52.749  1.00  0.00    -0.005 C 
HETATM   11  C9  UNL     1      26.319  -1.167  53.382  1.00  0.00     0.176 C 
ENDROOT
BRANCH   1  12
HETATM   12  N1  UNL     1      24.364   3.299  52.290  1.00  0.00    -0.243 NA
HETATM   13  C1  UNL     1      24.088   3.611  51.060  1.00  0.00     0.208 C 
BRANCH  13  14
HETATM   14  N4  UNL     1      24.127   5.041  50.843  1.00  0.00    -0.351 N 
HETATM   15  H9  UNL     1      23.383   5.713  51.194  1.00  0.00     0.166 HD
BRANCH  14  16
HETATM   16  C10 UNL     1      25.239   5.597  50.109  1.00  0.00     0.032 A 
HETATM   17  C11 UNL     1      25.600   6.924  49.974  1.00  0.00     0.029 A 
HETATM   18  C12 UNL     1      26.712   7.219  49.213  1.00  0.00     0.002 A 
HETATM   19  C13 UNL     1      27.449   6.227  48.601  1.00  0.00     0.000 A 
HETATM   20  C14 UNL     1      27.083   4.903  48.738  1.00  0.00     0.002 A 
HETATM   21  C15 UNL     1      25.973   4.584  49.496  1.00  0.00     0.029 A 
ENDBRANCH  14  16
ENDBRANCH  13  14
ENDBRANCH   1  12
TORSDOF 3
ENDMDL
MODEL 8
REMARK VINA RESULT:      -7.0      1.587      2.481
REMARK  3 active torsions:
REMARK  status: ('A' for Active; 'I' for Inactive)
REMARK    1  A    between atoms: C1_1  and  N4_14 
REMARK    2  A    between atoms: N1_2  and  C2_3 
REMARK    3  A    between atoms: N4_14  and  C10_15 
ROOT
HETATM    1  C2  UNL     1      23.131   0.867  52.627  1.00  0.00     0.072 C 
HETATM    2  C3  UNL     1      22.586  -0.204  53.242  1.00  0.00     0.078 C 
HETATM    3  S1  UNL     1      20.792   0.122  53.407  1.00  0.00    -0.117 SA
HETATM    4  C4  UNL     1      20.767   1.309  52.163  1.00  0.00     0.094 C 
HETATM    5  C5  UNL     1      20.397   0.984  50.783  1.00  0.00     0.139 C 
HETATM    6  N2  UNL     1      19.914   2.178  50.322  1.00  0.00    -0.191 NA
HETATM    7  N3  UNL     1      20.584   3.132  51.158  1.00  0.00    -0.300 N 
HETATM    8  C6  UNL     1      21.487   4.206  51.643  1.00  0.00     0.172 C 
HETATM    9  C7  UNL     1      22.551   3.247  52.228  1.00  0.00     0.006 C 
HETATM   10  C8  UNL     1      22.156   1.932  52.314  1.00  0.00    -0.005 C 
HETATM   11  C9  UNL     1      19.837   2.530  52.307  1.00  0.00     0.176 C 
ENDROOT
BRANCH   1  12
HETATM   12  N1  UNL     1      24.555   0.889  52.357  1.00  0.00    -0.243 NA
HETATM   13  C1  UNL     1      25.387   0.917  53.354  1.00  0.00     0.208 C 
BRANCH  13  14
HETATM   14  N4  UNL     1      26.763   0.936  52.909  1.00  0.00    -0.351 N 
HETATM   15  H9  UNL     1      27.249   1.799  52.524  1.00  0.00     0.166 HD
BRANCH  14  16
HETATM   16  C10 UNL     1      27.531  -0.284  52.989  1.00  0.00     0.032 A 
HETATM   17  C11 UNL     1      27.137  -1.568  52.664  1.00  0.00     0.029 A 
HETATM   18  C12 UNL     1      28.052  -2.588  52.827  1.00  0.00     0.002 A 
HETATM   19  C13 UNL     1      29.324  -2.344  53.299  1.00  0.00     0.000 A 
HETATM   20  C14 UNL     1      29.712  -1.059  53.624  1.00  0.00     0.002 A 
HETATM   21  C15 UNL     1      28.813  -0.023  53.468  1.00  0.00     0.029 A 
ENDBRANCH  14  16
ENDBRANCH  13  14
ENDBRANCH   1  12
TORSDOF 3
ENDMDL
MODEL 9
REMARK VINA RESULT:      -7.0      4.046      5.502
REMARK  3 active torsions:
REMARK  status: ('A' for Active; 'I' for Inactive)
REMARK    1  A    between atoms: C1_1  and  N4_14 
REMARK    2  A    between atoms: N1_2  and  C2_3 
REMARK    3  A    between atoms: N4_14  and  C10_15 
ROOT
HETATM    1  C2  UNL     1      26.637   4.452  49.185  1.00  0.00     0.072 C 
HETATM    2  C3  UNL     1      27.735   5.073  48.704  1.00  0.00     0.078 C 
HETATM    3  S1  UNL     1      27.211   6.727  48.120  1.00  0.00    -0.117 SA
HETATM    4  C4  UNL     1      25.775   6.742  49.067  1.00  0.00     0.094 C 
HETATM    5  C5  UNL     1      25.714   7.386  50.382  1.00  0.00     0.139 C 
HETATM    6  N2  UNL     1      24.391   7.716  50.485  1.00  0.00    -0.191 NA
HETATM    7  N3  UNL     1      23.760   6.757  49.624  1.00  0.00    -0.300 N 
HETATM    8  C6  UNL     1      22.965   5.608  49.122  1.00  0.00     0.172 C 
HETATM    9  C7  UNL     1      24.172   4.653  48.969  1.00  0.00     0.006 C 
HETATM   10  C8  UNL     1      25.403   5.258  49.074  1.00  0.00    -0.005 C 
HETATM   11  C9  UNL     1      24.503   7.401  48.495  1.00  0.00     0.176 C 
ENDROOT
BRANCH   1  12
HETATM   12  N1  UNL     1      26.750   3.112  49.725  1.00  0.00    -0.243 NA
HETATM   13  C1  UNL     1      26.502   2.915  50.984  1.00  0.00     0.208 C 
BRANCH  13  14
HETATM   14  N4  UNL     1      26.661   1.526  51.356  1.00  0.00    -0.351 N 
HETATM   15  H9  UNL     1      27.508   0.938  51.099  1.00  0.00     0.166 HD
BRANCH  14  16
HETATM   16  C10 UNL     1      25.613   0.893  52.121  1.00  0.00     0.032 A 
HETATM   17  C11 UNL     1      25.717  -0.159  53.011  1.00  0.00     0.029 A 
HETATM   18  C12 UNL     1      24.566  -0.601  53.630  1.00  0.00     0.002 A 
HETATM   19  C13 UNL     1      23.343  -0.019  53.374  1.00  0.00     0.000 A 
HETATM   20  C14 UNL     1      23.245   1.031  52.483  1.00  0.00     0.002 A 
HETATM   21  C15 UNL     1      24.384   1.491  51.853  1.00  0.00     0.029 A 
ENDBRANCH  14  16
ENDBRANCH  13  14
ENDBRANCH   1  12
TORSDOF 3
ENDMDL
