MODEL 1
REMARK VINA RESULT:      -6.4      0.000      0.000
REMARK  9 active torsions:
REMARK  status: ('A' for Active; 'I' for Inactive)
REMARK    1  A    between atoms: C3_3  and  C4_4 
REMARK    2  A    between atoms: C3_3  and  N2_16 
REMARK    3  A    between atoms: C4_4  and  C5_5 
REMARK    4  A    between atoms: C5_5  and  C6_6 
REMARK       I    between atoms: C6_6  and  N1_8 
REMARK    5  A    between atoms: N1_8  and  C7_9 
REMARK    6  A    between atoms: N2_16  and  C14_17 
REMARK    7  A    between atoms: N2_16  and  C16_20 
REMARK    8  A    between atoms: C14_17  and  C15_18 
REMARK    9  A    between atoms: C16_20  and  C17_21 
ROOT
HETATM    1  C5  UNL     1      21.787  -0.871  54.120  1.00  0.00     0.109 C 
ENDROOT
BRANCH   1   2
HETATM    2  C4  UNL     1      21.301   0.520  53.863  1.00  0.00     0.066 C 
BRANCH   2   3
HETATM    3  C3  UNL     1      20.570   0.690  52.578  1.00  0.00     0.003 C 
HETATM    4  C2  UNL     1      19.421   0.021  52.388  1.00  0.00    -0.006 C 
HETATM    5  C1  UNL     1      18.528   0.030  51.207  1.00  0.00     0.038 C 
BRANCH   3   6
HETATM    6  N2  UNL     1      21.010   1.529  51.519  1.00  0.00    -0.382 N 
BRANCH   6   7
HETATM    7  C14 UNL     1      21.879   1.039  50.474  1.00  0.00     0.137 C 
BRANCH   7   8
HETATM    8  C15 UNL     1      21.344   1.287  49.075  1.00  0.00     0.134 C 
HETATM    9 CL1  UNL     1      22.590   2.107  48.069  1.00  0.00    -0.129 Cl
ENDBRANCH   7   8
ENDBRANCH   6   7
BRANCH   6  10
HETATM   10  C16 UNL     1      20.670   2.931  51.335  1.00  0.00     0.137 C 
BRANCH  10  11
HETATM   11  C17 UNL     1      21.673   3.854  51.976  1.00  0.00     0.134 C 
HETATM   12 CL2  UNL     1      22.673   4.600  50.693  1.00  0.00    -0.129 Cl
ENDBRANCH  10  11
ENDBRANCH   6  10
ENDBRANCH   3   6
ENDBRANCH   2   3
ENDBRANCH   1   2
BRANCH   1  13
HETATM   13  C6  UNL     1      23.287  -0.872  54.279  1.00  0.00     0.222 C 
HETATM   14  O1  UNL     1      23.804  -1.373  55.331  1.00  0.00    -0.273 OA
HETATM   15  N1  UNL     1      24.105  -0.315  53.254  1.00  0.00    -0.327 N 
HETATM   16  H9  UNL     1      23.630   0.090  52.399  1.00  0.00     0.169 HD
BRANCH  15  17
HETATM   17  C7  UNL     1      25.517  -0.331  53.428  1.00  0.00     0.034 A 
HETATM   18  C8  UNL     1      26.217   0.552  54.224  1.00  0.00     0.030 A 
HETATM   19  C9  UNL     1      27.575   0.538  54.391  1.00  0.00     0.009 A 
HETATM   20  C10 UNL     1      28.309  -0.427  53.717  1.00  0.00    -0.062 A 
HETATM   21  C11 UNL     1      29.792  -0.524  53.833  1.00  0.00     0.048 C 
HETATM   22  C12 UNL     1      27.657  -1.330  52.912  1.00  0.00     0.009 A 
HETATM   23  C13 UNL     1      26.298  -1.267  52.784  1.00  0.00     0.030 A 
ENDBRANCH  15  17
ENDBRANCH   1  13
TORSDOF 9
ENDMDL
MODEL 2
REMARK VINA RESULT:      -6.3      3.055      4.003
REMARK  9 active torsions:
REMARK  status: ('A' for Active; 'I' for Inactive)
REMARK    1  A    between atoms: C3_3  and  C4_4 
REMARK    2  A    between atoms: C3_3  and  N2_16 
REMARK    3  A    between atoms: C4_4  and  C5_5 
REMARK    4  A    between atoms: C5_5  and  C6_6 
REMARK       I    between atoms: C6_6  and  N1_8 
REMARK    5  A    between atoms: N1_8  and  C7_9 
REMARK    6  A    between atoms: N2_16  and  C14_17 
REMARK    7  A    between atoms: N2_16  and  C16_20 
REMARK    8  A    between atoms: C14_17  and  C15_18 
REMARK    9  A    between atoms: C16_20  and  C17_21 
ROOT
HETATM    1  C5  UNL     1      24.300   3.780  51.045  1.00  0.00     0.109 C 
ENDROOT
BRANCH   1   2
HETATM    2  C4  UNL     1      23.107   3.375  51.850  1.00  0.00     0.066 C 
BRANCH   2   3
HETATM    3  C3  UNL     1      22.379   2.190  51.320  1.00  0.00     0.003 C 
HETATM    4  C2  UNL     1      22.222   2.063  49.991  1.00  0.00    -0.006 C 
HETATM    5  C1  UNL     1      21.543   0.984  49.238  1.00  0.00     0.038 C 
BRANCH   3   6
HETATM    6  N2  UNL     1      21.832   1.163  52.134  1.00  0.00    -0.382 N 
BRANCH   6   7
HETATM    7  C14 UNL     1      20.525   1.289  52.737  1.00  0.00     0.137 C 
BRANCH   7   8
HETATM    8  C15 UNL     1      19.510   0.300  52.193  1.00  0.00     0.134 C 
HETATM    9 CL1  UNL     1      19.077  -0.906  53.457  1.00  0.00    -0.129 Cl
ENDBRANCH   7   8
ENDBRANCH   6   7
BRANCH   6  10
HETATM   10  C16 UNL     1      22.469  -0.101  52.469  1.00  0.00     0.137 C 
BRANCH  10  11
HETATM   11  C17 UNL     1      23.122  -0.075  53.825  1.00  0.00     0.134 C 
HETATM   12 CL2  UNL     1      22.297  -1.258  54.885  1.00  0.00    -0.129 Cl
ENDBRANCH  10  11
ENDBRANCH   6  10
ENDBRANCH   3   6
ENDBRANCH   2   3
ENDBRANCH   1   2
BRANCH   1  13
HETATM   13  C6  UNL     1      25.474   2.894  51.381  1.00  0.00     0.222 C 
HETATM   14  O1  UNL     1      26.289   2.559  50.460  1.00  0.00    -0.273 OA
HETATM   15  N1  UNL     1      25.657   2.445  52.721  1.00  0.00    -0.327 N 
HETATM   16  H9  UNL     1      24.955   2.749  53.451  1.00  0.00     0.169 HD
BRANCH  15  17
HETATM   17  C7  UNL     1      26.774   1.612  53.011  1.00  0.00     0.034 A 
HETATM   18  C8  UNL     1      27.985   2.066  53.491  1.00  0.00     0.030 A 
HETATM   19  C9  UNL     1      29.059   1.267  53.770  1.00  0.00     0.009 A 
HETATM   20  C10 UNL     1      28.932  -0.099  53.559  1.00  0.00    -0.062 A 
HETATM   21  C11 UNL     1      30.045  -1.052  53.832  1.00  0.00     0.048 C 
HETATM   22  C12 UNL     1      27.745  -0.600  53.083  1.00  0.00     0.009 A 
HETATM   23  C13 UNL     1      26.706   0.247  52.823  1.00  0.00     0.030 A 
ENDBRANCH  15  17
ENDBRANCH   1  13
TORSDOF 9
ENDMDL
MODEL 3
REMARK VINA RESULT:      -6.3      3.046      4.040
REMARK  9 active torsions:
REMARK  status: ('A' for Active; 'I' for Inactive)
REMARK    1  A    between atoms: C3_3  and  C4_4 
REMARK    2  A    between atoms: C3_3  and  N2_16 
REMARK    3  A    between atoms: C4_4  and  C5_5 
REMARK    4  A    between atoms: C5_5  and  C6_6 
REMARK       I    between atoms: C6_6  and  N1_8 
REMARK    5  A    between atoms: N1_8  and  C7_9 
REMARK    6  A    between atoms: N2_16  and  C14_17 
REMARK    7  A    between atoms: N2_16  and  C16_20 
REMARK    8  A    between atoms: C14_17  and  C15_18 
REMARK    9  A    between atoms: C16_20  and  C17_21 
ROOT
HETATM    1  C5  UNL     1      24.442   3.940  51.124  1.00  0.00     0.109 C 
ENDROOT
BRANCH   1   2
HETATM    2  C4  UNL     1      23.207   3.525  51.856  1.00  0.00     0.066 C 
BRANCH   2   3
HETATM    3  C3  UNL     1      22.459   2.407  51.220  1.00  0.00     0.003 C 
HETATM    4  C2  UNL     1      22.362   2.367  49.880  1.00  0.00    -0.006 C 
HETATM    5  C1  UNL     1      21.677   1.366  49.031  1.00  0.00     0.038 C 
BRANCH   3   6
HETATM    6  N2  UNL     1      21.832   1.357  51.942  1.00  0.00    -0.382 N 
BRANCH   6   7
HETATM    7  C14 UNL     1      22.535   0.138  52.272  1.00  0.00     0.137 C 
BRANCH   7   8
HETATM    8  C15 UNL     1      22.933   0.046  53.733  1.00  0.00     0.134 C 
HETATM    9 CL1  UNL     1      22.000  -1.258  54.551  1.00  0.00    -0.129 Cl
ENDBRANCH   7   8
ENDBRANCH   6   7
BRANCH   6  10
HETATM   10  C16 UNL     1      20.463   1.348  52.433  1.00  0.00     0.137 C 
BRANCH  10  11
HETATM   11  C17 UNL     1      19.639   0.247  51.820  1.00  0.00     0.134 C 
HETATM   12 CL2  UNL     1      18.807  -0.648  53.128  1.00  0.00    -0.129 Cl
ENDBRANCH  10  11
ENDBRANCH   6  10
ENDBRANCH   3   6
ENDBRANCH   2   3
ENDBRANCH   1   2
BRANCH   1  13
HETATM   13  C6  UNL     1      25.571   2.989  51.436  1.00  0.00     0.222 C 
HETATM   14  O1  UNL     1      26.345   2.608  50.499  1.00  0.00    -0.273 OA
HETATM   15  N1  UNL     1      25.756   2.531  52.772  1.00  0.00    -0.327 N 
HETATM   16  H9  UNL     1      25.088   2.875  53.517  1.00  0.00     0.169 HD
BRANCH  15  17
HETATM   17  C7  UNL     1      26.830   1.636  53.041  1.00  0.00     0.034 A 
HETATM   18  C8  UNL     1      28.072   2.020  53.501  1.00  0.00     0.030 A 
HETATM   19  C9  UNL     1      29.104   1.161  53.759  1.00  0.00     0.009 A 
HETATM   20  C10 UNL     1      28.898  -0.195  53.546  1.00  0.00    -0.062 A 
HETATM   21  C11 UNL     1      29.961  -1.210  53.797  1.00  0.00     0.048 C 
HETATM   22  C12 UNL     1      27.677  -0.627  53.089  1.00  0.00     0.009 A 
HETATM   23  C13 UNL     1      26.683   0.278  52.850  1.00  0.00     0.030 A 
ENDBRANCH  15  17
ENDBRANCH   1  13
TORSDOF 9
ENDMDL
MODEL 4
REMARK VINA RESULT:      -6.2      1.092      2.019
REMARK  9 active torsions:
REMARK  status: ('A' for Active; 'I' for Inactive)
REMARK    1  A    between atoms: C3_3  and  C4_4 
REMARK    2  A    between atoms: C3_3  and  N2_16 
REMARK    3  A    between atoms: C4_4  and  C5_5 
REMARK    4  A    between atoms: C5_5  and  C6_6 
REMARK       I    between atoms: C6_6  and  N1_8 
REMARK    5  A    between atoms: N1_8  and  C7_9 
REMARK    6  A    between atoms: N2_16  and  C14_17 
REMARK    7  A    between atoms: N2_16  and  C16_20 
REMARK    8  A    between atoms: C14_17  and  C15_18 
REMARK    9  A    between atoms: C16_20  and  C17_21 
ROOT
HETATM    1  C5  UNL     1      22.106  -0.544  54.189  1.00  0.00     0.109 C 
ENDROOT
BRANCH   1   2
HETATM    2  C4  UNL     1      21.691  -0.776  52.771  1.00  0.00     0.066 C 
BRANCH   2   3
HETATM    3  C3  UNL     1      21.042   0.394  52.119  1.00  0.00     0.003 C 
HETATM    4  C2  UNL     1      19.702   0.488  52.134  1.00  0.00    -0.006 C 
HETATM    5  C1  UNL     1      18.841   1.546  51.558  1.00  0.00     0.038 C 
BRANCH   3   6
HETATM    6  N2  UNL     1      21.754   1.441  51.475  1.00  0.00    -0.382 N 
BRANCH   6   7
HETATM    7  C14 UNL     1      21.998   2.707  52.127  1.00  0.00     0.137 C 
BRANCH   7   8
HETATM    8  C15 UNL     1      23.383   3.267  51.862  1.00  0.00     0.134 C 
HETATM    9 CL1  UNL     1      24.374   3.211  53.364  1.00  0.00    -0.129 Cl
ENDBRANCH   7   8
ENDBRANCH   6   7
BRANCH   6  10
HETATM   10  C16 UNL     1      22.313   1.402  50.133  1.00  0.00     0.137 C 
BRANCH  10  11
HETATM   11  C17 UNL     1      21.420   2.064  49.117  1.00  0.00     0.134 C 
HETATM   12 CL2  UNL     1      22.423   3.098  48.055  1.00  0.00    -0.129 Cl
ENDBRANCH  10  11
ENDBRANCH   6  10
ENDBRANCH   3   6
ENDBRANCH   2   3
ENDBRANCH   1   2
BRANCH   1  13
HETATM   13  C6  UNL     1      23.603  -0.681  54.317  1.00  0.00     0.222 C 
HETATM   14  O1  UNL     1      24.094  -1.231  55.357  1.00  0.00    -0.273 OA
HETATM   15  N1  UNL     1      24.447  -0.196  53.276  1.00  0.00    -0.327 N 
HETATM   16  H9  UNL     1      23.994   0.253  52.433  1.00  0.00     0.169 HD
BRANCH  15  17
HETATM   17  C7  UNL     1      25.855  -0.340  53.421  1.00  0.00     0.034 A 
HETATM   18  C8  UNL     1      26.648   0.470  54.207  1.00  0.00     0.030 A 
HETATM   19  C9  UNL     1      28.001   0.333  54.346  1.00  0.00     0.009 A 
HETATM   20  C10 UNL     1      28.632  -0.690  53.651  1.00  0.00    -0.062 A 
HETATM   21  C11 UNL     1      30.102  -0.920  53.736  1.00  0.00     0.048 C 
HETATM   22  C12 UNL     1      27.885  -1.524  52.855  1.00  0.00     0.009 A 
HETATM   23  C13 UNL     1      26.535  -1.339  52.756  1.00  0.00     0.030 A 
ENDBRANCH  15  17
ENDBRANCH   1  13
TORSDOF 9
ENDMDL
MODEL 5
REMARK VINA RESULT:      -6.1      1.618      2.021
REMARK  9 active torsions:
REMARK  status: ('A' for Active; 'I' for Inactive)
REMARK    1  A    between atoms: C3_3  and  C4_4 
REMARK    2  A    between atoms: C3_3  and  N2_16 
REMARK    3  A    between atoms: C4_4  and  C5_5 
REMARK    4  A    between atoms: C5_5  and  C6_6 
REMARK       I    between atoms: C6_6  and  N1_8 
REMARK    5  A    between atoms: N1_8  and  C7_9 
REMARK    6  A    between atoms: N2_16  and  C14_17 
REMARK    7  A    between atoms: N2_16  and  C16_20 
REMARK    8  A    between atoms: C14_17  and  C15_18 
REMARK    9  A    between atoms: C16_20  and  C17_21 
ROOT
HETATM    1  C5  UNL     1      21.854  -0.362  53.360  1.00  0.00     0.109 C 
ENDROOT
BRANCH   1   2
HETATM    2  C4  UNL     1      21.496   1.085  53.234  1.00  0.00     0.066 C 
BRANCH   2   3
HETATM    3  C3  UNL     1      21.423   1.582  51.833  1.00  0.00     0.003 C 
HETATM    4  C2  UNL     1      21.281   0.695  50.834  1.00  0.00    -0.006 C 
HETATM    5  C1  UNL     1      21.186   0.948  49.378  1.00  0.00     0.038 C 
BRANCH   3   6
HETATM    6  N2  UNL     1      21.491   2.954  51.472  1.00  0.00    -0.382 N 
BRANCH   6   7
HETATM    7  C14 UNL     1      20.360   3.838  51.634  1.00  0.00     0.137 C 
BRANCH   7   8
HETATM    8  C15 UNL     1      19.682   4.200  50.325  1.00  0.00     0.134 C 
HETATM    9 CL1  UNL     1      18.293   3.098  50.019  1.00  0.00    -0.129 Cl
ENDBRANCH   7   8
ENDBRANCH   6   7
BRANCH   6  10
HETATM   10  C16 UNL     1      22.645   3.640  50.913  1.00  0.00     0.137 C 
BRANCH  10  11
HETATM   11  C17 UNL     1      23.309   4.554  51.909  1.00  0.00     0.134 C 
HETATM   12 CL2  UNL     1      24.154   3.558  53.133  1.00  0.00    -0.129 Cl
ENDBRANCH  10  11
ENDBRANCH   6  10
ENDBRANCH   3   6
ENDBRANCH   2   3
ENDBRANCH   1   2
BRANCH   1  13
HETATM   13  C6  UNL     1      23.323  -0.505  53.673  1.00  0.00     0.222 C 
HETATM   14  O1  UNL     1      23.681  -1.144  54.716  1.00  0.00    -0.273 OA
HETATM   15  N1  UNL     1      24.289   0.076  52.801  1.00  0.00    -0.327 N 
HETATM   16  H9  UNL     1      23.944   0.598  51.948  1.00  0.00     0.169 HD
BRANCH  15  17
HETATM   17  C7  UNL     1      25.668  -0.076  53.118  1.00  0.00     0.034 A 
HETATM   18  C8  UNL     1      26.372   0.756  53.965  1.00  0.00     0.030 A 
HETATM   19  C9  UNL     1      27.697   0.611  54.269  1.00  0.00     0.009 A 
HETATM   20  C10 UNL     1      28.393  -0.441  53.690  1.00  0.00    -0.062 A 
HETATM   21  C11 UNL     1      29.839  -0.681  53.958  1.00  0.00     0.048 C 
HETATM   22  C12 UNL     1      27.735  -1.297  52.841  1.00  0.00     0.009 A 
HETATM   23  C13 UNL     1      26.409  -1.104  52.574  1.00  0.00     0.030 A 
ENDBRANCH  15  17
ENDBRANCH   1  13
TORSDOF 9
ENDMDL
MODEL 6
REMARK VINA RESULT:      -6.1      2.706      3.680
REMARK  9 active torsions:
REMARK  status: ('A' for Active; 'I' for Inactive)
REMARK    1  A    between atoms: C3_3  and  C4_4 
REMARK    2  A    between atoms: C3_3  and  N2_16 
REMARK    3  A    between atoms: C4_4  and  C5_5 
REMARK    4  A    between atoms: C5_5  and  C6_6 
REMARK       I    between atoms: C6_6  and  N1_8 
REMARK    5  A    between atoms: N1_8  and  C7_9 
REMARK    6  A    between atoms: N2_16  and  C14_17 
REMARK    7  A    between atoms: N2_16  and  C16_20 
REMARK    8  A    between atoms: C14_17  and  C15_18 
REMARK    9  A    between atoms: C16_20  and  C17_21 
ROOT
HETATM    1  C5  UNL     1      24.859   4.143  50.715  1.00  0.00     0.109 C 
ENDROOT
BRANCH   1   2
HETATM    2  C4  UNL     1      23.851   4.282  51.810  1.00  0.00     0.066 C 
BRANCH   2   3
HETATM    3  C3  UNL     1      22.586   3.531  51.582  1.00  0.00     0.003 C 
HETATM    4  C2  UNL     1      21.428   4.061  52.010  1.00  0.00    -0.006 C 
HETATM    5  C1  UNL     1      20.060   3.507  51.899  1.00  0.00     0.038 C 
BRANCH   3   6
HETATM    6  N2  UNL     1      22.516   2.271  50.929  1.00  0.00    -0.382 N 
BRANCH   6   7
HETATM    7  C14 UNL     1      22.337   2.167  49.499  1.00  0.00     0.137 C 
BRANCH   7   8
HETATM    8  C15 UNL     1      21.217   1.224  49.097  1.00  0.00     0.134 C 
HETATM    9 CL1  UNL     1      19.772   2.162  48.576  1.00  0.00    -0.129 Cl
ENDBRANCH   7   8
ENDBRANCH   6   7
BRANCH   6  10
HETATM   10  C16 UNL     1      22.608   0.966  51.565  1.00  0.00     0.137 C 
BRANCH  10  11
HETATM   11  C17 UNL     1      22.767   1.065  53.060  1.00  0.00     0.134 C 
HETATM   12 CL2  UNL     1      21.231   0.574  53.836  1.00  0.00    -0.129 Cl
ENDBRANCH  10  11
ENDBRANCH   6  10
ENDBRANCH   3   6
ENDBRANCH   2   3
ENDBRANCH   1   2
BRANCH   1  13
HETATM   13  C6  UNL     1      25.914   3.139  51.109  1.00  0.00     0.222 C 
HETATM   14  O1  UNL     1      26.767   2.754  50.243  1.00  0.00    -0.273 OA
HETATM   15  N1  UNL     1      25.944   2.636  52.442  1.00  0.00    -0.327 N 
HETATM   16  H9  UNL     1      25.216   2.985  53.125  1.00  0.00     0.169 HD
BRANCH  15  17
HETATM   17  C7  UNL     1      26.951   1.692  52.789  1.00  0.00     0.034 A 
HETATM   18  C8  UNL     1      28.180   2.019  53.324  1.00  0.00     0.030 A 
HETATM   19  C9  UNL     1      29.148   1.113  53.658  1.00  0.00     0.009 A 
HETATM   20  C10 UNL     1      28.887  -0.234  53.446  1.00  0.00    -0.062 A 
HETATM   21  C11 UNL     1      29.878  -1.297  53.776  1.00  0.00     0.048 C 
HETATM   22  C12 UNL     1      27.677  -0.610  52.916  1.00  0.00     0.009 A 
HETATM   23  C13 UNL     1      26.747   0.341  52.602  1.00  0.00     0.030 A 
ENDBRANCH  15  17
ENDBRANCH   1  13
TORSDOF 9
ENDMDL
MODEL 7
REMARK VINA RESULT:      -6.1      2.815      3.939
REMARK  9 active torsions:
REMARK  status: ('A' for Active; 'I' for Inactive)
REMARK    1  A    between atoms: C3_3  and  C4_4 
REMARK    2  A    between atoms: C3_3  and  N2_16 
REMARK    3  A    between atoms: C4_4  and  C5_5 
REMARK    4  A    between atoms: C5_5  and  C6_6 
REMARK       I    between atoms: C6_6  and  N1_8 
REMARK    5  A    between atoms: N1_8  and  C7_9 
REMARK    6  A    between atoms: N2_16  and  C14_17 
REMARK    7  A    between atoms: N2_16  and  C16_20 
REMARK    8  A    between atoms: C14_17  and  C15_18 
REMARK    9  A    between atoms: C16_20  and  C17_21 
ROOT
HETATM    1  C5  UNL     1      24.910   4.265  50.650  1.00  0.00     0.109 C 
ENDROOT
BRANCH   1   2
HETATM    2  C4  UNL     1      24.100   3.813  49.477  1.00  0.00     0.066 C 
BRANCH   2   3
HETATM    3  C3  UNL     1      22.896   3.014  49.832  1.00  0.00     0.003 C 
HETATM    4  C2  UNL     1      22.531   1.996  49.033  1.00  0.00    -0.006 C 
HETATM    5  C1  UNL     1      21.384   1.071  49.178  1.00  0.00     0.038 C 
BRANCH   3   6
HETATM    6  N2  UNL     1      22.092   3.253  50.979  1.00  0.00    -0.382 N 
BRANCH   6   7
HETATM    7  C14 UNL     1      22.457   2.743  52.281  1.00  0.00     0.137 C 
BRANCH   7   8
HETATM    8  C15 UNL     1      21.713   1.478  52.665  1.00  0.00     0.134 C 
HETATM    9 CL1  UNL     1      22.852   0.087  52.746  1.00  0.00    -0.129 Cl
ENDBRANCH   7   8
ENDBRANCH   6   7
BRANCH   6  10
HETATM   10  C16 UNL     1      20.847   4.004  51.015  1.00  0.00     0.137 C 
BRANCH  10  11
HETATM   11  C17 UNL     1      20.895   5.239  50.155  1.00  0.00     0.134 C 
HETATM   12 CL2  UNL     1      21.801   6.514  51.026  1.00  0.00    -0.129 Cl
ENDBRANCH  10  11
ENDBRANCH   6  10
ENDBRANCH   3   6
ENDBRANCH   2   3
ENDBRANCH   1   2
BRANCH   1  13
HETATM   13  C6  UNL     1      25.904   3.196  51.032  1.00  0.00     0.222 C 
HETATM   14  O1  UNL     1      26.684   2.720  50.144  1.00  0.00    -0.273 OA
HETATM   15  N1  UNL     1      25.958   2.734  52.379  1.00  0.00    -0.327 N 
HETATM   16  H9  UNL     1      25.290   3.159  53.082  1.00  0.00     0.169 HD
BRANCH  15  17
HETATM   17  C7  UNL     1      26.906   1.727  52.715  1.00  0.00     0.034 A 
HETATM   18  C8  UNL     1      26.726   0.378  52.489  1.00  0.00     0.030 A 
HETATM   19  C9  UNL     1      27.636  -0.591  52.812  1.00  0.00     0.009 A 
HETATM   20  C10 UNL     1      28.827  -0.200  53.409  1.00  0.00    -0.062 A 
HETATM   21  C11 UNL     1      29.880  -1.180  53.799  1.00  0.00     0.048 C 
HETATM   22  C12 UNL     1      29.052   1.133  53.653  1.00  0.00     0.009 A 
HETATM   23  C13 UNL     1      28.106   2.056  53.308  1.00  0.00     0.030 A 
ENDBRANCH  15  17
ENDBRANCH   1  13
TORSDOF 9
ENDMDL
MODEL 8
REMARK VINA RESULT:      -6.1      7.162      8.932
REMARK  9 active torsions:
REMARK  status: ('A' for Active; 'I' for Inactive)
REMARK    1  A    between atoms: C3_3  and  C4_4 
REMARK    2  A    between atoms: C3_3  and  N2_16 
REMARK    3  A    between atoms: C4_4  and  C5_5 
REMARK    4  A    between atoms: C5_5  and  C6_6 
REMARK       I    between atoms: C6_6  and  N1_8 
REMARK    5  A    between atoms: N1_8  and  C7_9 
REMARK    6  A    between atoms: N2_16  and  C14_17 
REMARK    7  A    between atoms: N2_16  and  C16_20 
REMARK    8  A    between atoms: C14_17  and  C15_18 
REMARK    9  A    between atoms: C16_20  and  C17_21 
ROOT
HETATM    1  C5  UNL     1      26.816   5.193  48.910  1.00  0.00     0.109 C 
ENDROOT
BRANCH   1   2
HETATM    2  C4  UNL     1      28.211   4.790  48.555  1.00  0.00     0.066 C 
BRANCH   2   3
HETATM    3  C3  UNL     1      29.083   5.912  48.113  1.00  0.00     0.003 C 
HETATM    4  C2  UNL     1      28.517   6.997  47.557  1.00  0.00    -0.006 C 
HETATM    5  C1  UNL     1      29.171   8.224  47.047  1.00  0.00     0.038 C 
BRANCH   3   6
HETATM    6  N2  UNL     1      30.498   5.919  48.243  1.00  0.00    -0.382 N 
BRANCH   6   7
HETATM    7  C14 UNL     1      31.362   5.509  47.160  1.00  0.00     0.137 C 
BRANCH   7   8
HETATM    8  C15 UNL     1      32.270   4.347  47.517  1.00  0.00     0.134 C 
HETATM    9 CL1  UNL     1      31.889   2.921  46.488  1.00  0.00    -0.129 Cl
ENDBRANCH   7   8
ENDBRANCH   6   7
BRANCH   6  10
HETATM   10  C16 UNL     1      31.251   6.316  49.423  1.00  0.00     0.137 C 
BRANCH  10  11
HETATM   11  C17 UNL     1      31.667   7.762  49.379  1.00  0.00     0.134 C 
HETATM   12 CL2  UNL     1      33.374   7.856  48.849  1.00  0.00    -0.129 Cl
ENDBRANCH  10  11
ENDBRANCH   6  10
ENDBRANCH   3   6
ENDBRANCH   2   3
ENDBRANCH   1   2
BRANCH   1  13
HETATM   13  C6  UNL     1      26.138   4.083  49.674  1.00  0.00     0.222 C 
HETATM   14  O1  UNL     1      25.045   3.597  49.234  1.00  0.00    -0.273 OA
HETATM   15  N1  UNL     1      26.727   3.592  50.875  1.00  0.00    -0.327 N 
HETATM   16  H9  UNL     1      27.635   4.027  51.201  1.00  0.00     0.169 HD
BRANCH  15  17
HETATM   17  C7  UNL     1      26.068   2.543  51.576  1.00  0.00     0.034 A 
HETATM   18  C8  UNL     1      26.506   1.236  51.619  1.00  0.00     0.030 A 
HETATM   19  C9  UNL     1      25.874   0.227  52.292  1.00  0.00     0.009 A 
HETATM   20  C10 UNL     1      24.709   0.529  52.983  1.00  0.00    -0.062 A 
HETATM   21  C11 UNL     1      23.947  -0.501  53.744  1.00  0.00     0.048 C 
HETATM   22  C12 UNL     1      24.233   1.817  52.971  1.00  0.00     0.009 A 
HETATM   23  C13 UNL     1      24.908   2.784  52.281  1.00  0.00     0.030 A 
ENDBRANCH  15  17
ENDBRANCH   1  13
TORSDOF 9
ENDMDL
MODEL 9
REMARK VINA RESULT:      -6.0      2.973      4.461
REMARK  9 active torsions:
REMARK  status: ('A' for Active; 'I' for Inactive)
REMARK    1  A    between atoms: C3_3  and  C4_4 
REMARK    2  A    between atoms: C3_3  and  N2_16 
REMARK    3  A    between atoms: C4_4  and  C5_5 
REMARK    4  A    between atoms: C5_5  and  C6_6 
REMARK       I    between atoms: C6_6  and  N1_8 
REMARK    5  A    between atoms: N1_8  and  C7_9 
REMARK    6  A    between atoms: N2_16  and  C14_17 
REMARK    7  A    between atoms: N2_16  and  C16_20 
REMARK    8  A    between atoms: C14_17  and  C15_18 
REMARK    9  A    between atoms: C16_20  and  C17_21 
ROOT
HETATM    1  C5  UNL     1      25.317   4.783  50.083  1.00  0.00     0.109 C 
ENDROOT
BRANCH   1   2
HETATM    2  C4  UNL     1      24.163   4.325  49.250  1.00  0.00     0.066 C 
BRANCH   2   3
HETATM    3  C3  UNL     1      22.992   3.841  50.032  1.00  0.00     0.003 C 
HETATM    4  C2  UNL     1      22.356   4.697  50.849  1.00  0.00    -0.006 C 
HETATM    5  C1  UNL     1      21.182   4.449  51.717  1.00  0.00     0.038 C 
BRANCH   3   6
HETATM    6  N2  UNL     1      22.489   2.514  49.971  1.00  0.00    -0.382 N 
BRANCH   6   7
HETATM    7  C14 UNL     1      22.926   1.493  50.895  1.00  0.00     0.137 C 
BRANCH   7   8
HETATM    8  C15 UNL     1      21.790   0.654  51.450  1.00  0.00     0.134 C 
HETATM    9 CL1  UNL     1      21.436   1.133  53.149  1.00  0.00    -0.129 Cl
ENDBRANCH   7   8
ENDBRANCH   6   7
BRANCH   6  10
HETATM   10  C16 UNL     1      21.512   2.008  49.019  1.00  0.00     0.137 C 
BRANCH  10  11
HETATM   11  C17 UNL     1      22.117   1.722  47.670  1.00  0.00     0.134 C 
HETATM   12 CL2  UNL     1      21.970   3.186  46.650  1.00  0.00    -0.129 Cl
ENDBRANCH  10  11
ENDBRANCH   6  10
ENDBRANCH   3   6
ENDBRANCH   2   3
ENDBRANCH   1   2
BRANCH   1  13
HETATM   13  C6  UNL     1      26.125   3.595  50.543  1.00  0.00     0.222 C 
HETATM   14  O1  UNL     1      26.936   3.038  49.732  1.00  0.00    -0.273 OA
HETATM   15  N1  UNL     1      25.971   3.111  51.874  1.00  0.00    -0.327 N 
HETATM   16  H9  UNL     1      25.285   3.605  52.510  1.00  0.00     0.169 HD
BRANCH  15  17
HETATM   17  C7  UNL     1      26.747   1.990  52.284  1.00  0.00     0.034 A 
HETATM   18  C8  UNL     1      26.404   0.674  52.050  1.00  0.00     0.030 A 
HETATM   19  C9  UNL     1      27.149  -0.403  52.444  1.00  0.00     0.009 A 
HETATM   20  C10 UNL     1      28.333  -0.168  53.128  1.00  0.00    -0.062 A 
HETATM   21  C11 UNL     1      29.212  -1.275  53.599  1.00  0.00     0.048 C 
HETATM   22  C12 UNL     1      28.717   1.126  53.384  1.00  0.00     0.009 A 
HETATM   23  C13 UNL     1      27.933   2.163  52.965  1.00  0.00     0.030 A 
ENDBRANCH  15  17
ENDBRANCH   1  13
TORSDOF 9
ENDMDL
