MODEL 1
REMARK VINA RESULT:      -8.6      0.000      0.000
REMARK  4 active torsions:
REMARK  status: ('A' for Active; 'I' for Inactive)
REMARK    1  A    between atoms: O1_2  and  C2_3 
REMARK    2  A    between atoms: C5_6  and  C6_7 
REMARK    3  A    between atoms: C6_7  and  C7_9 
REMARK    4  A    between atoms: C14_17  and  C15_18 
REMARK       I    between atoms: C15_18  and  N1_19 
ROOT
HETATM    1  C2  UNL     1      28.352  -0.281  53.734  1.00  0.00     0.043 C 
HETATM    2  C3  UNL     1      27.036  -0.448  53.805  1.00  0.00     0.010 C 
HETATM    3  C4  UNL     1      25.838   0.151  54.295  1.00  0.00     0.065 C 
HETATM    4  C5  UNL     1      24.712   0.622  53.555  1.00  0.00    -0.051 C 
HETATM    5  C13 UNL     1      24.996   1.774  52.564  1.00  0.00     0.070 C 
HETATM    6  C14 UNL     1      26.510   1.785  52.209  1.00  0.00     0.173 C 
HETATM    7  N2  UNL     1      27.282   2.524  53.135  1.00  0.00    -0.409 N 
HETATM    8  C16 UNL     1      28.595   2.240  53.549  1.00  0.00     0.121 C 
HETATM    9  C17 UNL     1      28.697   0.988  54.422  1.00  0.00     0.083 C 
HETATM   10  H16 UNL     1      26.967   3.505  53.273  1.00  0.00     0.154 HD
ENDROOT
BRANCH   4  11
HETATM   11  C6  UNL     1      23.527   0.059  53.666  1.00  0.00     0.047 C 
HETATM   12 CL1  UNL     1      23.478  -1.161  54.955  1.00  0.00    -0.083 Cl
BRANCH  11  13
HETATM   13  C7  UNL     1      22.227   0.086  53.034  1.00  0.00    -0.014 A 
HETATM   14  C8  UNL     1      21.098  -0.230  53.746  1.00  0.00     0.016 A 
HETATM   15  C9  UNL     1      19.838  -0.242  53.168  1.00  0.00     0.043 A 
HETATM   16  C10 UNL     1      19.704   0.072  51.838  1.00  0.00     0.116 A 
HETATM   17  F1  UNL     1      18.503   0.082  51.205  1.00  0.00    -0.206 F 
HETATM   18  C11 UNL     1      20.829   0.391  51.113  1.00  0.00     0.043 A 
HETATM   19  C12 UNL     1      22.098   0.403  51.702  1.00  0.00     0.016 A 
ENDBRANCH  11  13
ENDBRANCH   4  11
BRANCH   6  20
HETATM   20  C15 UNL     1      26.466   2.776  51.025  1.00  0.00     0.238 C 
HETATM   21  N1  UNL     1      25.850   4.059  50.915  1.00  0.00    -0.368 N 
HETATM   22  H14 UNL     1      26.161   5.025  51.201  1.00  0.00     0.159 HD
HETATM   23  H15 UNL     1      24.914   4.136  50.478  1.00  0.00     0.159 HD
HETATM   24  O2  UNL     1      26.985   2.644  49.875  1.00  0.00    -0.271 OA
ENDBRANCH   6  20
BRANCH   1  25
HETATM   25  O1  UNL     1      29.188  -1.188  53.110  1.00  0.00    -0.360 OA
HETATM   26  C1  UNL     1      29.015  -2.561  53.105  1.00  0.00     0.209 C 
ENDBRANCH   1  25
TORSDOF 4
ENDMDL
MODEL 2
REMARK VINA RESULT:      -8.5      4.149      6.921
REMARK  4 active torsions:
REMARK  status: ('A' for Active; 'I' for Inactive)
REMARK    1  A    between atoms: O1_2  and  C2_3 
REMARK    2  A    between atoms: C5_6  and  C6_7 
REMARK    3  A    between atoms: C6_7  and  C7_9 
REMARK    4  A    between atoms: C14_17  and  C15_18 
REMARK       I    between atoms: C15_18  and  N1_19 
ROOT
HETATM    1  C2  UNL     1      22.597   2.350  50.471  1.00  0.00     0.043 C 
HETATM    2  C3  UNL     1      23.338   1.644  51.320  1.00  0.00     0.010 C 
HETATM    3  C4  UNL     1      23.667   1.507  52.701  1.00  0.00     0.065 C 
HETATM    4  C5  UNL     1      23.442   0.392  53.562  1.00  0.00    -0.051 C 
HETATM    5  C13 UNL     1      21.962  -0.000  53.777  1.00  0.00     0.070 C 
HETATM    6  C14 UNL     1      21.107   0.551  52.600  1.00  0.00     0.173 C 
HETATM    7  N2  UNL     1      20.682   1.881  52.813  1.00  0.00    -0.409 N 
HETATM    8  C16 UNL     1      20.521   2.879  51.834  1.00  0.00     0.121 C 
HETATM    9  C17 UNL     1      21.846   3.368  51.246  1.00  0.00     0.083 C 
HETATM   10  H16 UNL     1      20.160   2.031  53.699  1.00  0.00     0.154 HD
ENDROOT
BRANCH   4  11
HETATM   11  C6  UNL     1      24.439  -0.293  54.080  1.00  0.00     0.047 C 
HETATM   12 CL1  UNL     1      23.905  -1.391  55.369  1.00  0.00    -0.083 Cl
BRANCH  11  13
HETATM   13  C7  UNL     1      25.875  -0.416  53.963  1.00  0.00    -0.014 A 
HETATM   14  C8  UNL     1      26.705   0.244  54.834  1.00  0.00     0.016 A 
HETATM   15  C9  UNL     1      28.086   0.173  54.736  1.00  0.00     0.043 A 
HETATM   16  C10 UNL     1      28.653  -0.580  53.738  1.00  0.00     0.116 A 
HETATM   17  F1  UNL     1      29.996  -0.697  53.582  1.00  0.00    -0.206 F 
HETATM   18  C11 UNL     1      27.831  -1.247  52.859  1.00  0.00     0.043 A 
HETATM   19  C12 UNL     1      26.438  -1.172  52.962  1.00  0.00     0.016 A 
ENDBRANCH  11  13
ENDBRANCH   4  11
BRANCH   6  20
HETATM   20  C15 UNL     1      19.797  -0.214  52.885  1.00  0.00     0.238 C 
HETATM   21  N1  UNL     1      19.425  -1.035  53.992  1.00  0.00    -0.368 N 
HETATM   22  H14 UNL     1      19.041  -0.810  54.948  1.00  0.00     0.159 HD
HETATM   23  H15 UNL     1      19.523  -2.063  53.916  1.00  0.00     0.159 HD
HETATM   24  O2  UNL     1      18.750  -0.266  52.169  1.00  0.00    -0.271 OA
ENDBRANCH   6  20
BRANCH   1  25
HETATM   25  O1  UNL     1      22.591   2.111  49.109  1.00  0.00    -0.360 OA
HETATM   26  C1  UNL     1      21.660   1.337  48.438  1.00  0.00     0.209 C 
ENDBRANCH   1  25
TORSDOF 4
ENDMDL
MODEL 3
REMARK VINA RESULT:      -8.4      1.146      1.703
REMARK  4 active torsions:
REMARK  status: ('A' for Active; 'I' for Inactive)
REMARK    1  A    between atoms: O1_2  and  C2_3 
REMARK    2  A    between atoms: C5_6  and  C6_7 
REMARK    3  A    between atoms: C6_7  and  C7_9 
REMARK    4  A    between atoms: C14_17  and  C15_18 
REMARK       I    between atoms: C15_18  and  N1_19 
ROOT
HETATM    1  C2  UNL     1      27.280  -0.462  53.627  1.00  0.00     0.043 C 
HETATM    2  C3  UNL     1      25.978  -0.547  53.372  1.00  0.00     0.010 C 
HETATM    3  C4  UNL     1      24.729   0.098  53.609  1.00  0.00     0.065 C 
HETATM    4  C5  UNL     1      23.839   0.688  52.662  1.00  0.00    -0.051 C 
HETATM    5  C13 UNL     1      24.409   1.878  51.858  1.00  0.00     0.070 C 
HETATM    6  C14 UNL     1      25.962   1.812  51.872  1.00  0.00     0.173 C 
HETATM    7  N2  UNL     1      26.524   2.439  53.008  1.00  0.00    -0.409 N 
HETATM    8  C16 UNL     1      27.684   2.044  53.698  1.00  0.00     0.121 C 
HETATM    9  C17 UNL     1      27.510   0.735  54.473  1.00  0.00     0.083 C 
HETATM   10  H16 UNL     1      26.233   3.428  53.143  1.00  0.00     0.154 HD
ENDROOT
BRANCH   4  11
HETATM   11  C6  UNL     1      22.635   0.198  52.447  1.00  0.00     0.047 C 
HETATM   12 CL1  UNL     1      22.332  -1.281  53.380  1.00  0.00    -0.083 Cl
BRANCH  11  13
HETATM   13  C7  UNL     1      21.463   0.461  51.643  1.00  0.00    -0.014 A 
HETATM   14  C8  UNL     1      21.587   0.895  50.348  1.00  0.00     0.016 A 
HETATM   15  C9  UNL     1      20.487   1.184  49.556  1.00  0.00     0.043 A 
HETATM   16  C10 UNL     1      19.224   1.034  50.075  1.00  0.00     0.116 A 
HETATM   17  F1  UNL     1      18.102   1.297  49.359  1.00  0.00    -0.206 F 
HETATM   18  C11 UNL     1      19.087   0.599  51.373  1.00  0.00     0.043 A 
HETATM   19  C12 UNL     1      20.201   0.309  52.168  1.00  0.00     0.016 A 
ENDBRANCH  11  13
ENDBRANCH   4  11
BRANCH   6  20
HETATM   20  C15 UNL     1      26.252   2.875  50.791  1.00  0.00     0.238 C 
HETATM   21  N1  UNL     1      25.887   4.254  50.727  1.00  0.00    -0.368 N 
HETATM   22  H14 UNL     1      26.315   5.124  51.139  1.00  0.00     0.159 HD
HETATM   23  H15 UNL     1      25.047   4.531  50.187  1.00  0.00     0.159 HD
HETATM   24  O2  UNL     1      26.896   2.733  49.707  1.00  0.00    -0.271 OA
ENDBRANCH   6  20
BRANCH   1  25
HETATM   25  O1  UNL     1      28.196  -1.382  53.151  1.00  0.00    -0.360 OA
HETATM   26  C1  UNL     1      29.552  -1.375  53.425  1.00  0.00     0.209 C 
ENDBRANCH   1  25
TORSDOF 4
ENDMDL
MODEL 4
REMARK VINA RESULT:      -8.3      4.001      6.824
REMARK  4 active torsions:
REMARK  status: ('A' for Active; 'I' for Inactive)
REMARK    1  A    between atoms: O1_2  and  C2_3 
REMARK    2  A    between atoms: C5_6  and  C6_7 
REMARK    3  A    between atoms: C6_7  and  C7_9 
REMARK    4  A    between atoms: C14_17  and  C15_18 
REMARK       I    between atoms: C15_18  and  N1_19 
ROOT
HETATM    1  C2  UNL     1      22.461   4.257  51.040  1.00  0.00     0.043 C 
HETATM    2  C3  UNL     1      23.215   3.335  51.630  1.00  0.00     0.010 C 
HETATM    3  C4  UNL     1      23.923   2.120  51.390  1.00  0.00     0.065 C 
HETATM    4  C5  UNL     1      25.323   1.871  51.501  1.00  0.00    -0.051 C 
HETATM    5  C13 UNL     1      26.227   2.696  50.556  1.00  0.00     0.070 C 
HETATM    6  C14 UNL     1      25.465   3.973  50.101  1.00  0.00     0.173 C 
HETATM    7  N2  UNL     1      24.654   3.747  48.966  1.00  0.00    -0.409 N 
HETATM    8  C16 UNL     1      23.413   4.348  48.688  1.00  0.00     0.121 C 
HETATM    9  C17 UNL     1      22.292   3.876  49.616  1.00  0.00     0.083 C 
HETATM   10  H16 UNL     1      25.158   3.353  48.147  1.00  0.00     0.154 HD
ENDROOT
BRANCH   4  11
HETATM   11  C6  UNL     1      25.809   1.040  52.399  1.00  0.00     0.047 C 
HETATM   12 CL1  UNL     1      24.565   0.466  53.529  1.00  0.00    -0.083 Cl
BRANCH  11  13
HETATM   13  C7  UNL     1      27.070   0.458  52.799  1.00  0.00    -0.014 A 
HETATM   14  C8  UNL     1      27.267  -0.898  52.732  1.00  0.00     0.016 A 
HETATM   15  C9  UNL     1      28.452  -1.494  53.132  1.00  0.00     0.043 A 
HETATM   16  C10 UNL     1      29.472  -0.711  53.614  1.00  0.00     0.116 A 
HETATM   17  F1  UNL     1      30.659  -1.224  54.023  1.00  0.00    -0.206 F 
HETATM   18  C11 UNL     1      29.287   0.651  53.686  1.00  0.00     0.043 A 
HETATM   19  C12 UNL     1      28.089   1.248  53.280  1.00  0.00     0.016 A 
ENDBRANCH  11  13
ENDBRANCH   4  11
BRANCH   6  20
HETATM   20  C15 UNL     1      26.645   4.733  49.458  1.00  0.00     0.238 C 
HETATM   21  N1  UNL     1      26.945   6.128  49.432  1.00  0.00    -0.368 N 
HETATM   22  H14 UNL     1      27.422   6.767  50.122  1.00  0.00     0.159 HD
HETATM   23  H15 UNL     1      26.671   6.690  48.606  1.00  0.00     0.159 HD
HETATM   24  O2  UNL     1      27.620   4.253  48.801  1.00  0.00    -0.271 OA
ENDBRANCH   6  20
BRANCH   1  25
HETATM   25  O1  UNL     1      21.957   5.353  51.715  1.00  0.00    -0.360 OA
HETATM   26  C1  UNL     1      21.692   6.588  51.149  1.00  0.00     0.209 C 
ENDBRANCH   1  25
TORSDOF 4
ENDMDL
MODEL 5
REMARK VINA RESULT:      -8.2      4.227      7.255
REMARK  4 active torsions:
REMARK  status: ('A' for Active; 'I' for Inactive)
REMARK    1  A    between atoms: O1_2  and  C2_3 
REMARK    2  A    between atoms: C5_6  and  C6_7 
REMARK    3  A    between atoms: C6_7  and  C7_9 
REMARK    4  A    between atoms: C14_17  and  C15_18 
REMARK       I    between atoms: C15_18  and  N1_19 
ROOT
HETATM    1  C2  UNL     1      21.414   2.090  50.291  1.00  0.00     0.043 C 
HETATM    2  C3  UNL     1      22.684   1.821  50.574  1.00  0.00     0.010 C 
HETATM    3  C4  UNL     1      23.695   2.013  51.562  1.00  0.00     0.065 C 
HETATM    4  C5  UNL     1      24.377   1.029  52.338  1.00  0.00    -0.051 C 
HETATM    5  C13 UNL     1      23.487   0.181  53.276  1.00  0.00     0.070 C 
HETATM    6  C14 UNL     1      22.019   0.219  52.765  1.00  0.00     0.173 C 
HETATM    7  N2  UNL     1      21.301   1.334  53.255  1.00  0.00    -0.409 N 
HETATM    8  C16 UNL     1      20.304   2.057  52.575  1.00  0.00     0.121 C 
HETATM    9  C17 UNL     1      20.848   2.885  51.409  1.00  0.00     0.083 C 
HETATM   10  H16 UNL     1      21.294   1.421  54.291  1.00  0.00     0.154 HD
ENDROOT
BRANCH   4  11
HETATM   11  C6  UNL     1      25.670   0.819  52.207  1.00  0.00     0.047 C 
HETATM   12 CL1  UNL     1      26.459   2.064  51.218  1.00  0.00    -0.083 Cl
BRANCH  11  13
HETATM   13  C7  UNL     1      26.677  -0.147  52.586  1.00  0.00    -0.014 A 
HETATM   14  C8  UNL     1      27.846   0.258  53.178  1.00  0.00     0.016 A 
HETATM   15  C9  UNL     1      28.846  -0.635  53.529  1.00  0.00     0.043 A 
HETATM   16  C10 UNL     1      28.671  -1.975  53.282  1.00  0.00     0.116 A 
HETATM   17  F1  UNL     1      29.605  -2.906  53.599  1.00  0.00    -0.206 F 
HETATM   18  C11 UNL     1      27.502  -2.394  52.689  1.00  0.00     0.043 A 
HETATM   19  C12 UNL     1      26.496  -1.488  52.337  1.00  0.00     0.016 A 
ENDBRANCH  11  13
ENDBRANCH   4  11
BRANCH   6  20
HETATM   20  C15 UNL     1      21.434  -0.903  53.649  1.00  0.00     0.238 C 
HETATM   21  N1  UNL     1      20.117  -1.082  54.168  1.00  0.00    -0.368 N 
HETATM   22  H14 UNL     1      19.237  -1.489  53.753  1.00  0.00     0.159 HD
HETATM   23  H15 UNL     1      19.907  -0.777  55.136  1.00  0.00     0.159 HD
HETATM   24  O2  UNL     1      22.027  -1.928  54.107  1.00  0.00    -0.271 OA
ENDBRANCH   6  20
BRANCH   1  25
HETATM   25  O1  UNL     1      20.802   1.667  49.126  1.00  0.00    -0.360 OA
HETATM   26  C1  UNL     1      20.739   2.391  47.948  1.00  0.00     0.209 C 
ENDBRANCH   1  25
TORSDOF 4
ENDMDL
MODEL 6
REMARK VINA RESULT:      -8.1      1.754      2.207
REMARK  4 active torsions:
REMARK  status: ('A' for Active; 'I' for Inactive)
REMARK    1  A    between atoms: O1_2  and  C2_3 
REMARK    2  A    between atoms: C5_6  and  C6_7 
REMARK    3  A    between atoms: C6_7  and  C7_9 
REMARK    4  A    between atoms: C14_17  and  C15_18 
REMARK       I    between atoms: C15_18  and  N1_19 
ROOT
HETATM    1  C2  UNL     1      26.290  -0.434  53.543  1.00  0.00     0.043 C 
HETATM    2  C3  UNL     1      25.053  -0.392  53.059  1.00  0.00     0.010 C 
HETATM    3  C4  UNL     1      23.823   0.325  53.141  1.00  0.00     0.065 C 
HETATM    4  C5  UNL     1      23.155   1.066  52.121  1.00  0.00    -0.051 C 
HETATM    5  C13 UNL     1      23.933   2.275  51.553  1.00  0.00     0.070 C 
HETATM    6  C14 UNL     1      25.452   2.085  51.829  1.00  0.00     0.173 C 
HETATM    7  N2  UNL     1      25.837   2.562  53.103  1.00  0.00    -0.409 N 
HETATM    8  C16 UNL     1      26.828   2.016  53.939  1.00  0.00     0.121 C 
HETATM    9  C17 UNL     1      26.438   0.661  54.534  1.00  0.00     0.083 C 
HETATM   10  H16 UNL     1      25.589   3.554  53.286  1.00  0.00     0.154 HD
ENDROOT
BRANCH   4  11
HETATM   11  C6  UNL     1      21.983   0.694  51.651  1.00  0.00     0.047 C 
HETATM   12 CL1  UNL     1      21.837   0.971  49.904  1.00  0.00    -0.083 Cl
BRANCH  11  13
HETATM   13  C7  UNL     1      20.726   0.156  52.119  1.00  0.00    -0.014 A 
HETATM   14  C8  UNL     1      20.662  -0.553  53.292  1.00  0.00     0.016 A 
HETATM   15  C9  UNL     1      19.481  -1.108  53.758  1.00  0.00     0.043 A 
HETATM   16  C10 UNL     1      18.327  -0.949  53.029  1.00  0.00     0.116 A 
HETATM   17  F1  UNL     1      17.136  -1.463  53.424  1.00  0.00    -0.206 F 
HETATM   18  C11 UNL     1      18.378  -0.240  51.851  1.00  0.00     0.043 A 
HETATM   19  C12 UNL     1      19.573   0.318  51.386  1.00  0.00     0.016 A 
ENDBRANCH  11  13
ENDBRANCH   4  11
BRANCH   6  20
HETATM   20  C15 UNL     1      25.996   3.216  50.929  1.00  0.00     0.238 C 
HETATM   21  N1  UNL     1      25.430   4.481  50.587  1.00  0.00    -0.368 N 
HETATM   22  H14 UNL     1      25.419   5.413  51.079  1.00  0.00     0.159 HD
HETATM   23  H15 UNL     1      24.915   4.580  49.694  1.00  0.00     0.159 HD
HETATM   24  O2  UNL     1      27.094   3.249  50.293  1.00  0.00    -0.271 OA
ENDBRANCH   6  20
BRANCH   1  25
HETATM   25  O1  UNL     1      27.218  -1.376  53.140  1.00  0.00    -0.360 OA
HETATM   26  C1  UNL     1      28.591  -1.243  53.249  1.00  0.00     0.209 C 
ENDBRANCH   1  25
TORSDOF 4
ENDMDL
MODEL 7
REMARK VINA RESULT:      -8.1      3.740      6.446
REMARK  4 active torsions:
REMARK  status: ('A' for Active; 'I' for Inactive)
REMARK    1  A    between atoms: O1_2  and  C2_3 
REMARK    2  A    between atoms: C5_6  and  C6_7 
REMARK    3  A    between atoms: C6_7  and  C7_9 
REMARK    4  A    between atoms: C14_17  and  C15_18 
REMARK       I    between atoms: C15_18  and  N1_19 
ROOT
HETATM    1  C2  UNL     1      24.506   4.297  51.138  1.00  0.00     0.043 C 
HETATM    2  C3  UNL     1      24.930   3.249  51.837  1.00  0.00     0.010 C 
HETATM    3  C4  UNL     1      24.634   2.448  52.978  1.00  0.00     0.065 C 
HETATM    4  C5  UNL     1      24.304   1.060  53.029  1.00  0.00    -0.051 C 
HETATM    5  C13 UNL     1      23.012   0.650  52.287  1.00  0.00     0.070 C 
HETATM    6  C14 UNL     1      22.670   1.727  51.218  1.00  0.00     0.173 C 
HETATM    7  N2  UNL     1      21.909   2.795  51.745  1.00  0.00    -0.409 N 
HETATM    8  C16 UNL     1      21.982   4.147  51.364  1.00  0.00     0.121 C 
HETATM    9  C17 UNL     1      23.284   4.827  51.791  1.00  0.00     0.083 C 
HETATM   10  H16 UNL     1      21.030   2.506  52.218  1.00  0.00     0.154 HD
ENDROOT
BRANCH   4  11
HETATM   11  C6  UNL     1      25.093   0.184  53.615  1.00  0.00     0.047 C 
HETATM   12 CL1  UNL     1      24.203  -0.907  54.697  1.00  0.00    -0.083 Cl
BRANCH  11  13
HETATM   13  C7  UNL     1      26.494  -0.162  53.696  1.00  0.00    -0.014 A 
HETATM   14  C8  UNL     1      27.025  -1.123  52.874  1.00  0.00     0.016 A 
HETATM   15  C9  UNL     1      28.357  -1.501  52.941  1.00  0.00     0.043 A 
HETATM   16  C10 UNL     1      29.184  -0.898  53.857  1.00  0.00     0.116 A 
HETATM   17  F1  UNL     1      30.497  -1.216  53.979  1.00  0.00    -0.206 F 
HETATM   18  C11 UNL     1      28.663   0.069  54.686  1.00  0.00     0.043 A 
HETATM   19  C12 UNL     1      27.318   0.446  54.614  1.00  0.00     0.016 A 
ENDBRANCH  11  13
ENDBRANCH   4  11
BRANCH   6  20
HETATM   20  C15 UNL     1      21.575   0.954  50.450  1.00  0.00     0.238 C 
HETATM   21  N1  UNL     1      21.334   0.839  49.048  1.00  0.00    -0.368 N 
HETATM   22  H14 UNL     1      21.745   0.215  48.304  1.00  0.00     0.159 HD
HETATM   23  H15 UNL     1      20.632   1.455  48.602  1.00  0.00     0.159 HD
HETATM   24  O2  UNL     1      20.639   0.242  50.927  1.00  0.00    -0.271 OA
ENDBRANCH   6  20
BRANCH   1  25
HETATM   25  O1  UNL     1      25.158   4.754  50.007  1.00  0.00    -0.360 OA
HETATM   26  C1  UNL     1      26.325   4.221  49.487  1.00  0.00     0.209 C 
ENDBRANCH   1  25
TORSDOF 4
ENDMDL
MODEL 8
REMARK VINA RESULT:      -8.1      3.866      6.858
REMARK  4 active torsions:
REMARK  status: ('A' for Active; 'I' for Inactive)
REMARK    1  A    between atoms: O1_2  and  C2_3 
REMARK    2  A    between atoms: C5_6  and  C6_7 
REMARK    3  A    between atoms: C6_7  and  C7_9 
REMARK    4  A    between atoms: C14_17  and  C15_18 
REMARK       I    between atoms: C15_18  and  N1_19 
ROOT
HETATM    1  C2  UNL     1      20.075   0.916  51.447  1.00  0.00     0.043 C 
HETATM    2  C3  UNL     1      21.160   0.459  52.064  1.00  0.00     0.010 C 
HETATM    3  C4  UNL     1      22.560   0.246  51.894  1.00  0.00     0.065 C 
HETATM    4  C5  UNL     1      23.643   0.833  52.615  1.00  0.00    -0.051 C 
HETATM    5  C13 UNL     1      23.766   2.370  52.505  1.00  0.00     0.070 C 
HETATM    6  C14 UNL     1      22.392   2.968  52.090  1.00  0.00     0.173 C 
HETATM    7  N2  UNL     1      22.204   2.981  50.689  1.00  0.00    -0.409 N 
HETATM    8  C16 UNL     1      20.991   2.793  50.002  1.00  0.00     0.121 C 
HETATM    9  C17 UNL     1      20.467   1.358  50.086  1.00  0.00     0.083 C 
HETATM   10  H16 UNL     1      22.952   3.471  50.158  1.00  0.00     0.154 HD
ENDROOT
BRANCH   4  11
HETATM   11  C6  UNL     1      24.437   0.111  53.377  1.00  0.00     0.047 C 
HETATM   12 CL1  UNL     1      23.540  -0.834  54.583  1.00  0.00    -0.083 Cl
BRANCH  11  13
HETATM   13  C7  UNL     1      25.847  -0.137  53.582  1.00  0.00    -0.014 A 
HETATM   14  C8  UNL     1      26.521   0.471  54.611  1.00  0.00     0.016 A 
HETATM   15  C9  UNL     1      27.877   0.280  54.821  1.00  0.00     0.043 A 
HETATM   16  C10 UNL     1      28.581  -0.545  53.978  1.00  0.00     0.116 A 
HETATM   17  F1  UNL     1      29.909  -0.780  54.124  1.00  0.00    -0.206 F 
HETATM   18  C11 UNL     1      27.916  -1.161  52.944  1.00  0.00     0.043 A 
HETATM   19  C12 UNL     1      26.547  -0.965  52.736  1.00  0.00     0.016 A 
ENDBRANCH  11  13
ENDBRANCH   4  11
BRANCH   6  20
HETATM   20  C15 UNL     1      22.698   4.459  52.348  1.00  0.00     0.238 C 
HETATM   21  N1  UNL     1      23.708   5.071  53.150  1.00  0.00    -0.368 N 
HETATM   22  H14 UNL     1      24.720   5.300  52.967  1.00  0.00     0.159 HD
HETATM   23  H15 UNL     1      23.474   5.379  54.111  1.00  0.00     0.159 HD
HETATM   24  O2  UNL     1      22.094   5.473  51.883  1.00  0.00    -0.271 OA
ENDBRANCH   6  20
BRANCH   1  25
HETATM   25  O1  UNL     1      18.829   0.936  52.045  1.00  0.00    -0.360 OA
HETATM   26  C1  UNL     1      17.649   1.303  51.422  1.00  0.00     0.209 C 
ENDBRANCH   1  25
TORSDOF 4
ENDMDL
MODEL 9
REMARK VINA RESULT:      -8.1      2.120      4.329
REMARK  4 active torsions:
REMARK  status: ('A' for Active; 'I' for Inactive)
REMARK    1  A    between atoms: O1_2  and  C2_3 
REMARK    2  A    between atoms: C5_6  and  C6_7 
REMARK    3  A    between atoms: C6_7  and  C7_9 
REMARK    4  A    between atoms: C14_17  and  C15_18 
REMARK       I    between atoms: C15_18  and  N1_19 
ROOT
HETATM    1  C2  UNL     1      24.152   4.003  50.896  1.00  0.00     0.043 C 
HETATM    2  C3  UNL     1      23.380   3.059  51.425  1.00  0.00     0.010 C 
HETATM    3  C4  UNL     1      23.184   1.647  51.478  1.00  0.00     0.065 C 
HETATM    4  C5  UNL     1      23.270   0.779  52.607  1.00  0.00    -0.051 C 
HETATM    5  C13 UNL     1      24.653   0.710  53.295  1.00  0.00     0.070 C 
HETATM    6  C14 UNL     1      25.467   1.987  52.944  1.00  0.00     0.173 C 
HETATM    7  N2  UNL     1      26.177   1.863  51.728  1.00  0.00    -0.409 N 
HETATM    8  C16 UNL     1      26.429   2.885  50.795  1.00  0.00     0.121 C 
HETATM    9  C17 UNL     1      25.175   3.345  50.048  1.00  0.00     0.083 C 
HETATM   10  H16 UNL     1      26.813   1.042  51.681  1.00  0.00     0.154 HD
ENDROOT
BRANCH   4  11
HETATM   11  C6  UNL     1      22.217   0.137  53.066  1.00  0.00     0.047 C 
HETATM   12 CL1  UNL     1      22.578  -0.782  54.542  1.00  0.00    -0.083 Cl
BRANCH  11  13
HETATM   13  C7  UNL     1      20.832  -0.101  52.726  1.00  0.00    -0.014 A 
HETATM   14  C8  UNL     1      20.300   0.408  51.569  1.00  0.00     0.016 A 
HETATM   15  C9  UNL     1      18.970   0.225  51.223  1.00  0.00     0.043 A 
HETATM   16  C10 UNL     1      18.148  -0.491  52.059  1.00  0.00     0.116 A 
HETATM   17  F1  UNL     1      16.838  -0.712  51.785  1.00  0.00    -0.206 F 
HETATM   18  C11 UNL     1      18.671  -1.008  53.222  1.00  0.00     0.043 A 
HETATM   19  C12 UNL     1      20.014  -0.820  53.566  1.00  0.00     0.016 A 
ENDBRANCH  11  13
ENDBRANCH   4  11
BRANCH   6  20
HETATM   20  C15 UNL     1      26.617   1.818  53.960  1.00  0.00     0.238 C 
HETATM   21  N1  UNL     1      27.862   2.507  54.072  1.00  0.00    -0.368 N 
HETATM   22  H14 UNL     1      28.131   3.425  54.515  1.00  0.00     0.159 HD
HETATM   23  H15 UNL     1      28.714   2.084  53.663  1.00  0.00     0.159 HD
HETATM   24  O2  UNL     1      26.688   1.007  54.933  1.00  0.00    -0.271 OA
ENDBRANCH   6  20
BRANCH   1  25
HETATM   25  O1  UNL     1      23.959   5.350  51.143  1.00  0.00    -0.360 OA
HETATM   26  C1  UNL     1      24.516   6.384  50.412  1.00  0.00     0.209 C 
ENDBRANCH   1  25
TORSDOF 4
ENDMDL
