MODEL 1
REMARK VINA RESULT:      -6.1      0.000      0.000
REMARK  10 active torsions:
REMARK  status: ('A' for Active; 'I' for Inactive)
REMARK    1  A    between atoms: C2_2  and  O1_3 
REMARK    2  A    between atoms: O1_3  and  C3_4 
REMARK    3  A    between atoms: C3_4  and  C4_5 
REMARK    4  A    between atoms: C3_4  and  C7_11 
REMARK    5  A    between atoms: C4_5  and  O2_6 
REMARK    6  A    between atoms: O2_6  and  C5_7 
REMARK    7  A    between atoms: C5_7  and  C6_8 
REMARK    8  A    between atoms: C6_8  and  O3_9 
REMARK    9  A    between atoms: C9_13  and  N1_14 
REMARK   10  A    between atoms: N1_14  and  C10_15 
ROOT
HETATM    1  C7  UNL     1      23.169   2.751  52.855  1.00  0.00     0.091 A 
HETATM    2  C8  UNL     1      23.793   4.075  52.604  1.00  0.00     0.012 A 
HETATM    3  C9  UNL     1      24.518   2.935  52.417  1.00  0.00     0.017 A 
ENDROOT
BRANCH   1   4
HETATM    4  C3  UNL     1      22.055   2.433  51.848  1.00  0.00     0.158 C 
BRANCH   4   5
HETATM    5  O1  UNL     1      22.438   1.428  51.013  1.00  0.00    -0.383 OA
BRANCH   5   6
HETATM    6  C2  UNL     1      22.243   1.612  49.668  1.00  0.00     0.163 C 
HETATM    7  C1  UNL     1      22.986   2.739  49.047  1.00  0.00     0.033 C 
ENDBRANCH   5   6
ENDBRANCH   4   5
BRANCH   4   8
HETATM    8  C4  UNL     1      20.766   2.062  52.559  1.00  0.00     0.200 C 
BRANCH   8   9
HETATM    9  O2  UNL     1      20.687   0.698  52.693  1.00  0.00    -0.386 OA
BRANCH   9  10
HETATM   10  C5  UNL     1      20.644   0.259  53.998  1.00  0.00     0.195 C 
BRANCH  10  11
HETATM   11  C6  UNL     1      20.779  -1.232  54.145  1.00  0.00     0.211 C 
BRANCH  11  12
HETATM   12  O3  UNL     1      21.853  -1.467  55.035  1.00  0.00    -0.311 OA
HETATM   13 BR1  UNL     1      23.447  -0.824  54.337  1.00  0.00     0.099 Br
ENDBRANCH  11  12
ENDBRANCH  10  11
ENDBRANCH   9  10
ENDBRANCH   8   9
ENDBRANCH   4   8
ENDBRANCH   1   4
BRANCH   3  14
HETATM   14  N1  UNL     1      25.873   2.709  51.993  1.00  0.00    -0.359 N 
HETATM   15  H15 UNL     1      26.343   3.310  51.282  1.00  0.00     0.166 HD
BRANCH  14  16
HETATM   16  C10 UNL     1      26.739   1.687  52.448  1.00  0.00     0.034 A 
HETATM   17  C11 UNL     1      27.880   2.137  53.096  1.00  0.00     0.032 A 
HETATM   18  C12 UNL     1      28.773   1.173  53.566  1.00  0.00     0.046 A 
HETATM   19  C13 UNL     1      28.504  -0.163  53.376  1.00  0.00     0.138 A 
HETATM   20  F1  UNL     1      29.430  -1.033  53.865  1.00  0.00    -0.204 F 
HETATM   21  C14 UNL     1      27.359  -0.593  52.725  1.00  0.00     0.074 A 
HETATM   22 CL1  UNL     1      27.065  -2.318  52.509  1.00  0.00    -0.081 Cl
HETATM   23  C15 UNL     1      26.457   0.339  52.250  1.00  0.00     0.056 A 
ENDBRANCH  14  16
ENDBRANCH   3  14
TORSDOF 10
ENDMDL
MODEL 2
REMARK VINA RESULT:      -6.0      1.994      2.976
REMARK  10 active torsions:
REMARK  status: ('A' for Active; 'I' for Inactive)
REMARK    1  A    between atoms: C2_2  and  O1_3 
REMARK    2  A    between atoms: O1_3  and  C3_4 
REMARK    3  A    between atoms: C3_4  and  C4_5 
REMARK    4  A    between atoms: C3_4  and  C7_11 
REMARK    5  A    between atoms: C4_5  and  O2_6 
REMARK    6  A    between atoms: O2_6  and  C5_7 
REMARK    7  A    between atoms: C5_7  and  C6_8 
REMARK    8  A    between atoms: C6_8  and  O3_9 
REMARK    9  A    between atoms: C9_13  and  N1_14 
REMARK   10  A    between atoms: N1_14  and  C10_15 
ROOT
HETATM    1  C7  UNL     1      23.335   1.976  52.786  1.00  0.00     0.091 A 
HETATM    2  C8  UNL     1      24.018   2.726  51.701  1.00  0.00     0.012 A 
HETATM    3  C9  UNL     1      24.724   2.317  52.794  1.00  0.00     0.017 A 
ENDROOT
BRANCH   1   4
HETATM    4  C3  UNL     1      22.873   0.585  52.329  1.00  0.00     0.158 C 
BRANCH   4   5
HETATM    5  O1  UNL     1      23.386  -0.379  53.140  1.00  0.00    -0.383 OA
BRANCH   5   6
HETATM    6  C2  UNL     1      22.506  -1.085  53.921  1.00  0.00     0.163 C 
HETATM    7  C1  UNL     1      22.903  -1.285  55.338  1.00  0.00     0.033 C 
ENDBRANCH   5   6
ENDBRANCH   4   5
BRANCH   4   8
HETATM    8  C4  UNL     1      21.358   0.497  52.299  1.00  0.00     0.200 C 
BRANCH   8   9
HETATM    9  O2  UNL     1      20.936   0.217  51.022  1.00  0.00    -0.386 OA
BRANCH   9  10
HETATM   10  C5  UNL     1      19.767   0.851  50.661  1.00  0.00     0.195 C 
BRANCH  10  11
HETATM   11  C6  UNL     1      18.689   0.784  51.706  1.00  0.00     0.211 C 
BRANCH  11  12
HETATM   12  O3  UNL     1      18.049  -0.469  51.565  1.00  0.00    -0.311 OA
HETATM   13 BR1  UNL     1      18.007  -1.381  53.180  1.00  0.00     0.099 Br
ENDBRANCH  11  12
ENDBRANCH  10  11
ENDBRANCH   9  10
ENDBRANCH   8   9
ENDBRANCH   4   8
ENDBRANCH   1   4
BRANCH   3  14
HETATM   14  N1  UNL     1      26.106   2.463  53.164  1.00  0.00    -0.359 N 
HETATM   15  H15 UNL     1      26.527   3.389  53.395  1.00  0.00     0.166 HD
BRANCH  14  16
HETATM   16  C10 UNL     1      27.065   1.428  53.265  1.00  0.00     0.034 A 
HETATM   17  C11 UNL     1      28.309   1.831  53.730  1.00  0.00     0.032 A 
HETATM   18  C12 UNL     1      29.296   0.853  53.849  1.00  0.00     0.046 A 
HETATM   19  C13 UNL     1      29.017  -0.450  53.508  1.00  0.00     0.138 A 
HETATM   20  F1  UNL     1      30.039  -1.337  53.653  1.00  0.00    -0.204 F 
HETATM   21  C14 UNL     1      27.769  -0.833  53.043  1.00  0.00     0.074 A 
HETATM   22 CL1  UNL     1      27.466  -2.517  52.620  1.00  0.00    -0.081 Cl
HETATM   23  C15 UNL     1      26.771   0.114  52.917  1.00  0.00     0.056 A 
ENDBRANCH  14  16
ENDBRANCH   3  14
TORSDOF 10
ENDMDL
MODEL 3
REMARK VINA RESULT:      -6.0      2.134      3.593
REMARK  10 active torsions:
REMARK  status: ('A' for Active; 'I' for Inactive)
REMARK    1  A    between atoms: C2_2  and  O1_3 
REMARK    2  A    between atoms: O1_3  and  C3_4 
REMARK    3  A    between atoms: C3_4  and  C4_5 
REMARK    4  A    between atoms: C3_4  and  C7_11 
REMARK    5  A    between atoms: C4_5  and  O2_6 
REMARK    6  A    between atoms: O2_6  and  C5_7 
REMARK    7  A    between atoms: C5_7  and  C6_8 
REMARK    8  A    between atoms: C6_8  and  O3_9 
REMARK    9  A    between atoms: C9_13  and  N1_14 
REMARK   10  A    between atoms: N1_14  and  C10_15 
ROOT
HETATM    1  C7  UNL     1      23.550   2.411  52.919  1.00  0.00     0.091 A 
HETATM    2  C8  UNL     1      24.504   3.172  52.072  1.00  0.00     0.012 A 
HETATM    3  C9  UNL     1      24.946   2.542  53.197  1.00  0.00     0.017 A 
ENDROOT
BRANCH   1   4
HETATM    4  C3  UNL     1      23.007   1.165  52.207  1.00  0.00     0.158 C 
BRANCH   4   5
HETATM    5  O1  UNL     1      23.285   0.044  52.927  1.00  0.00    -0.383 OA
BRANCH   5   6
HETATM    6  C2  UNL     1      22.224  -0.696  53.384  1.00  0.00     0.163 C 
HETATM    7  C1  UNL     1      22.244  -1.046  54.828  1.00  0.00     0.033 C 
ENDBRANCH   5   6
ENDBRANCH   4   5
BRANCH   4   8
HETATM    8  C4  UNL     1      21.512   1.280  51.971  1.00  0.00     0.200 C 
BRANCH   8   9
HETATM    9  O2  UNL     1      21.280   1.854  50.744  1.00  0.00    -0.386 OA
BRANCH   9  10
HETATM   10  C5  UNL     1      21.795   1.143  49.681  1.00  0.00     0.195 C 
BRANCH  10  11
HETATM   11  C6  UNL     1      22.136   1.992  48.488  1.00  0.00     0.211 C 
BRANCH  11  12
HETATM   12  O3  UNL     1      21.737   3.315  48.790  1.00  0.00    -0.311 OA
HETATM   13 BR1  UNL     1      23.164   4.490  48.641  1.00  0.00     0.099 Br
ENDBRANCH  11  12
ENDBRANCH  10  11
ENDBRANCH   9  10
ENDBRANCH   8   9
ENDBRANCH   4   8
ENDBRANCH   1   4
BRANCH   3  14
HETATM   14  N1  UNL     1      26.248   2.441  53.801  1.00  0.00    -0.359 N 
HETATM   15  H15 UNL     1      26.635   3.185  54.420  1.00  0.00     0.166 HD
BRANCH  14  16
HETATM   16  C10 UNL     1      27.164   1.372  53.655  1.00  0.00     0.034 A 
HETATM   17  C11 UNL     1      28.478   1.685  53.972  1.00  0.00     0.032 A 
HETATM   18  C12 UNL     1      29.426   0.670  53.846  1.00  0.00     0.046 A 
HETATM   19  C13 UNL     1      29.042  -0.580  53.419  1.00  0.00     0.138 A 
HETATM   20  F1  UNL     1      30.033  -1.508  53.323  1.00  0.00    -0.204 F 
HETATM   21  C14 UNL     1      27.725  -0.873  53.106  1.00  0.00     0.074 A 
HETATM   22 CL1  UNL     1      27.288  -2.492  52.562  1.00  0.00    -0.081 Cl
HETATM   23  C15 UNL     1      26.763   0.113  53.222  1.00  0.00     0.056 A 
ENDBRANCH  14  16
ENDBRANCH   3  14
TORSDOF 10
ENDMDL
MODEL 4
REMARK VINA RESULT:      -5.9      1.435      1.786
REMARK  10 active torsions:
REMARK  status: ('A' for Active; 'I' for Inactive)
REMARK    1  A    between atoms: C2_2  and  O1_3 
REMARK    2  A    between atoms: O1_3  and  C3_4 
REMARK    3  A    between atoms: C3_4  and  C4_5 
REMARK    4  A    between atoms: C3_4  and  C7_11 
REMARK    5  A    between atoms: C4_5  and  O2_6 
REMARK    6  A    between atoms: O2_6  and  C5_7 
REMARK    7  A    between atoms: C5_7  and  C6_8 
REMARK    8  A    between atoms: C6_8  and  O3_9 
REMARK    9  A    between atoms: C9_13  and  N1_14 
REMARK   10  A    between atoms: N1_14  and  C10_15 
ROOT
HETATM    1  C7  UNL     1      23.688   2.542  52.768  1.00  0.00     0.091 A 
HETATM    2  C8  UNL     1      24.138   3.778  53.459  1.00  0.00     0.012 A 
HETATM    3  C9  UNL     1      25.029   2.776  53.209  1.00  0.00     0.017 A 
ENDROOT
BRANCH   1   4
HETATM    4  C3  UNL     1      23.286   2.805  51.311  1.00  0.00     0.158 C 
BRANCH   4   5
HETATM    5  O1  UNL     1      24.250   2.358  50.461  1.00  0.00    -0.383 OA
BRANCH   5   6
HETATM    6  C2  UNL     1      24.896   3.290  49.688  1.00  0.00     0.163 C 
HETATM    7  C1  UNL     1      26.380   3.235  49.699  1.00  0.00     0.033 C 
ENDBRANCH   5   6
ENDBRANCH   4   5
BRANCH   4   8
HETATM    8  C4  UNL     1      21.955   2.151  50.987  1.00  0.00     0.200 C 
BRANCH   8   9
HETATM    9  O2  UNL     1      20.990   2.614  51.848  1.00  0.00    -0.386 OA
BRANCH   9  10
HETATM   10  C5  UNL     1      20.051   1.670  52.205  1.00  0.00     0.195 C 
BRANCH  10  11
HETATM   11  C6  UNL     1      20.554   0.255  52.141  1.00  0.00     0.211 C 
BRANCH  11  12
HETATM   12  O3  UNL     1      20.117  -0.395  53.318  1.00  0.00    -0.311 OA
HETATM   13 BR1  UNL     1      21.456  -0.418  54.602  1.00  0.00     0.099 Br
ENDBRANCH  11  12
ENDBRANCH  10  11
ENDBRANCH   9  10
ENDBRANCH   8   9
ENDBRANCH   4   8
ENDBRANCH   1   4
BRANCH   3  14
HETATM   14  N1  UNL     1      26.433   2.637  53.489  1.00  0.00    -0.359 N 
HETATM   15  H15 UNL     1      27.024   3.441  53.789  1.00  0.00     0.166 HD
BRANCH  14  16
HETATM   16  C10 UNL     1      27.195   1.448  53.403  1.00  0.00     0.034 A 
HETATM   17  C11 UNL     1      28.509   1.568  53.833  1.00  0.00     0.032 A 
HETATM   18  C12 UNL     1      29.310   0.428  53.770  1.00  0.00     0.046 A 
HETATM   19  C13 UNL     1      28.789  -0.753  53.295  1.00  0.00     0.138 A 
HETATM   20  F1  UNL     1      29.641  -1.814  53.266  1.00  0.00    -0.204 F 
HETATM   21  C14 UNL     1      27.474  -0.853  52.868  1.00  0.00     0.074 A 
HETATM   22 CL1  UNL     1      26.858  -2.391  52.266  1.00  0.00    -0.081 Cl
HETATM   23  C15 UNL     1      26.657   0.260  52.920  1.00  0.00     0.056 A 
ENDBRANCH  14  16
ENDBRANCH   3  14
TORSDOF 10
ENDMDL
MODEL 5
REMARK VINA RESULT:      -5.9      4.658      6.182
REMARK  10 active torsions:
REMARK  status: ('A' for Active; 'I' for Inactive)
REMARK    1  A    between atoms: C2_2  and  O1_3 
REMARK    2  A    between atoms: O1_3  and  C3_4 
REMARK    3  A    between atoms: C3_4  and  C4_5 
REMARK    4  A    between atoms: C3_4  and  C7_11 
REMARK    5  A    between atoms: C4_5  and  O2_6 
REMARK    6  A    between atoms: O2_6  and  C5_7 
REMARK    7  A    between atoms: C5_7  and  C6_8 
REMARK    8  A    between atoms: C6_8  and  O3_9 
REMARK    9  A    between atoms: C9_13  and  N1_14 
REMARK   10  A    between atoms: N1_14  and  C10_15 
ROOT
HETATM    1  C7  UNL     1      25.385   2.121  53.256  1.00  0.00     0.091 A 
HETATM    2  C8  UNL     1      24.325   3.161  53.220  1.00  0.00     0.012 A 
HETATM    3  C9  UNL     1      24.887   2.722  52.058  1.00  0.00     0.017 A 
ENDROOT
BRANCH   1   4
HETATM    4  C3  UNL     1      24.851   0.763  53.731  1.00  0.00     0.158 C 
BRANCH   4   5
HETATM    5  O1  UNL     1      24.158   0.146  52.735  1.00  0.00    -0.383 OA
BRANCH   5   6
HETATM    6  C2  UNL     1      23.018  -0.534  53.082  1.00  0.00     0.163 C 
HETATM    7  C1  UNL     1      21.971   0.256  53.780  1.00  0.00     0.033 C 
ENDBRANCH   5   6
ENDBRANCH   4   5
BRANCH   4   8
HETATM    8  C4  UNL     1      25.980  -0.128  54.215  1.00  0.00     0.200 C 
BRANCH   8   9
HETATM    9  O2  UNL     1      26.815   0.589  55.037  1.00  0.00    -0.386 OA
BRANCH   9  10
HETATM   10  C5  UNL     1      28.132   0.185  54.997  1.00  0.00     0.195 C 
BRANCH  10  11
HETATM   11  C6  UNL     1      29.054   1.175  54.340  1.00  0.00     0.211 C 
BRANCH  11  12
HETATM   12  O3  UNL     1      29.711   0.497  53.287  1.00  0.00    -0.311 OA
HETATM   13 BR1  UNL     1      29.598  -1.341  53.507  1.00  0.00     0.099 Br
ENDBRANCH  11  12
ENDBRANCH  10  11
ENDBRANCH   9  10
ENDBRANCH   8   9
ENDBRANCH   4   8
ENDBRANCH   1   4
BRANCH   3  14
HETATM   14  N1  UNL     1      24.661   3.073  50.681  1.00  0.00    -0.359 N 
HETATM   15  H15 UNL     1      23.916   2.624  50.106  1.00  0.00     0.166 HD
BRANCH  14  16
HETATM   16  C10 UNL     1      25.378   4.032  49.928  1.00  0.00     0.034 A 
HETATM   17  C11 UNL     1      26.674   3.660  49.597  1.00  0.00     0.032 A 
HETATM   18  C12 UNL     1      27.431   4.567  48.855  1.00  0.00     0.046 A 
HETATM   19  C13 UNL     1      26.886   5.775  48.483  1.00  0.00     0.138 A 
HETATM   20  F1  UNL     1      27.695   6.599  47.763  1.00  0.00    -0.204 F 
HETATM   21  C14 UNL     1      25.590   6.129  48.825  1.00  0.00     0.074 A 
HETATM   22 CL1  UNL     1      24.942   7.690  48.323  1.00  0.00    -0.081 Cl
HETATM   23  C15 UNL     1      24.817   5.250  49.558  1.00  0.00     0.056 A 
ENDBRANCH  14  16
ENDBRANCH   3  14
TORSDOF 10
ENDMDL
MODEL 6
REMARK VINA RESULT:      -5.9      4.346      6.870
REMARK  10 active torsions:
REMARK  status: ('A' for Active; 'I' for Inactive)
REMARK    1  A    between atoms: C2_2  and  O1_3 
REMARK    2  A    between atoms: O1_3  and  C3_4 
REMARK    3  A    between atoms: C3_4  and  C4_5 
REMARK    4  A    between atoms: C3_4  and  C7_11 
REMARK    5  A    between atoms: C4_5  and  O2_6 
REMARK    6  A    between atoms: O2_6  and  C5_7 
REMARK    7  A    between atoms: C5_7  and  C6_8 
REMARK    8  A    between atoms: C6_8  and  O3_9 
REMARK    9  A    between atoms: C9_13  and  N1_14 
REMARK   10  A    between atoms: N1_14  and  C10_15 
ROOT
HETATM    1  C7  UNL     1      24.604   1.415  52.412  1.00  0.00     0.091 A 
HETATM    2  C8  UNL     1      24.317   2.687  53.124  1.00  0.00     0.012 A 
HETATM    3  C9  UNL     1      23.427   2.203  52.211  1.00  0.00     0.017 A 
ENDROOT
BRANCH   1   4
HETATM    4  C3  UNL     1      24.584   0.204  53.355  1.00  0.00     0.158 C 
BRANCH   4   5
HETATM    5  O1  UNL     1      23.385  -0.436  53.286  1.00  0.00    -0.383 OA
BRANCH   5   6
HETATM    6  C2  UNL     1      22.768  -0.756  54.468  1.00  0.00     0.163 C 
HETATM    7  C1  UNL     1      21.691  -1.776  54.390  1.00  0.00     0.033 C 
ENDBRANCH   5   6
ENDBRANCH   4   5
BRANCH   4   8
HETATM    8  C4  UNL     1      25.713  -0.757  53.031  1.00  0.00     0.200 C 
BRANCH   8   9
HETATM    9  O2  UNL     1      26.630  -0.755  54.054  1.00  0.00    -0.386 OA
BRANCH   9  10
HETATM   10  C5  UNL     1      27.792  -0.071  53.770  1.00  0.00     0.195 C 
BRANCH  10  11
HETATM   11  C6  UNL     1      28.695   0.116  54.957  1.00  0.00     0.211 C 
BRANCH  11  12
HETATM   12  O3  UNL     1      29.090   1.474  54.971  1.00  0.00    -0.311 OA
HETATM   13 BR1  UNL     1      28.432   2.373  53.488  1.00  0.00     0.099 Br
ENDBRANCH  11  12
ENDBRANCH  10  11
ENDBRANCH   9  10
ENDBRANCH   8   9
ENDBRANCH   4   8
ENDBRANCH   1   4
BRANCH   3  14
HETATM   14  N1  UNL     1      22.159   2.693  51.742  1.00  0.00    -0.359 N 
HETATM   15  H15 UNL     1      21.965   3.710  51.619  1.00  0.00     0.166 HD
BRANCH  14  16
HETATM   16  C10 UNL     1      21.031   1.913  51.394  1.00  0.00     0.034 A 
HETATM   17  C11 UNL     1      20.596   2.071  50.086  1.00  0.00     0.032 A 
HETATM   18  C12 UNL     1      19.485   1.329  49.686  1.00  0.00     0.046 A 
HETATM   19  C13 UNL     1      18.867   0.483  50.577  1.00  0.00     0.138 A 
HETATM   20  F1  UNL     1      17.790  -0.201  50.103  1.00  0.00    -0.204 F 
HETATM   21  C14 UNL     1      19.315   0.340  51.881  1.00  0.00     0.074 A 
HETATM   22 CL1  UNL     1      18.484  -0.758  52.982  1.00  0.00    -0.081 Cl
HETATM   23  C15 UNL     1      20.414   1.062  52.305  1.00  0.00     0.056 A 
ENDBRANCH  14  16
ENDBRANCH   3  14
TORSDOF 10
ENDMDL
MODEL 7
REMARK VINA RESULT:      -5.8      1.593      2.204
REMARK  10 active torsions:
REMARK  status: ('A' for Active; 'I' for Inactive)
REMARK    1  A    between atoms: C2_2  and  O1_3 
REMARK    2  A    between atoms: O1_3  and  C3_4 
REMARK    3  A    between atoms: C3_4  and  C4_5 
REMARK    4  A    between atoms: C3_4  and  C7_11 
REMARK    5  A    between atoms: C4_5  and  O2_6 
REMARK    6  A    between atoms: O2_6  and  C5_7 
REMARK    7  A    between atoms: C5_7  and  C6_8 
REMARK    8  A    between atoms: C6_8  and  O3_9 
REMARK    9  A    between atoms: C9_13  and  N1_14 
REMARK   10  A    between atoms: N1_14  and  C10_15 
ROOT
HETATM    1  C7  UNL     1      23.722   2.566  51.816  1.00  0.00     0.091 A 
HETATM    2  C8  UNL     1      24.066   1.786  53.033  1.00  0.00     0.012 A 
HETATM    3  C9  UNL     1      25.047   2.429  52.337  1.00  0.00     0.017 A 
ENDROOT
BRANCH   1   4
HETATM    4  C3  UNL     1      22.877   3.806  52.139  1.00  0.00     0.158 C 
BRANCH   4   5
HETATM    5  O1  UNL     1      23.568   4.942  51.850  1.00  0.00    -0.383 OA
BRANCH   5   6
HETATM    6  C2  UNL     1      22.890   5.952  51.216  1.00  0.00     0.163 C 
HETATM    7  C1  UNL     1      23.673   7.178  50.913  1.00  0.00     0.033 C 
ENDBRANCH   5   6
ENDBRANCH   4   5
BRANCH   4   8
HETATM    8  C4  UNL     1      21.562   3.782  51.381  1.00  0.00     0.200 C 
BRANCH   8   9
HETATM    9  O2  UNL     1      21.050   2.508  51.382  1.00  0.00    -0.386 OA
BRANCH   9  10
HETATM   10  C5  UNL     1      20.299   2.201  52.496  1.00  0.00     0.195 C 
BRANCH  10  11
HETATM   11  C6  UNL     1      20.336   0.746  52.874  1.00  0.00     0.211 C 
BRANCH  11  12
HETATM   12  O3  UNL     1      20.621   0.682  54.257  1.00  0.00    -0.311 OA
HETATM   13 BR1  UNL     1      21.659  -0.804  54.655  1.00  0.00     0.099 Br
ENDBRANCH  11  12
ENDBRANCH  10  11
ENDBRANCH   9  10
ENDBRANCH   8   9
ENDBRANCH   4   8
ENDBRANCH   1   4
BRANCH   3  14
HETATM   14  N1  UNL     1      26.467   2.529  52.537  1.00  0.00    -0.359 N 
HETATM   15  H15 UNL     1      26.985   3.427  52.420  1.00  0.00     0.166 HD
BRANCH  14  16
HETATM   16  C10 UNL     1      27.343   1.480  52.902  1.00  0.00     0.034 A 
HETATM   17  C11 UNL     1      28.499   1.887  53.553  1.00  0.00     0.032 A 
HETATM   18  C12 UNL     1      29.402   0.895  53.935  1.00  0.00     0.046 A 
HETATM   19  C13 UNL     1      29.129  -0.425  53.662  1.00  0.00     0.138 A 
HETATM   20  F1  UNL     1      30.065  -1.325  54.069  1.00  0.00    -0.204 F 
HETATM   21  C14 UNL     1      27.970  -0.812  53.010  1.00  0.00     0.074 A 
HETATM   22 CL1  UNL     1      27.670  -2.519  52.684  1.00  0.00    -0.081 Cl
HETATM   23  C15 UNL     1      27.057   0.148  52.620  1.00  0.00     0.056 A 
ENDBRANCH  14  16
ENDBRANCH   3  14
TORSDOF 10
ENDMDL
MODEL 8
REMARK VINA RESULT:      -5.8      4.026      6.194
REMARK  10 active torsions:
REMARK  status: ('A' for Active; 'I' for Inactive)
REMARK    1  A    between atoms: C2_2  and  O1_3 
REMARK    2  A    between atoms: O1_3  and  C3_4 
REMARK    3  A    between atoms: C3_4  and  C4_5 
REMARK    4  A    between atoms: C3_4  and  C7_11 
REMARK    5  A    between atoms: C4_5  and  O2_6 
REMARK    6  A    between atoms: O2_6  and  C5_7 
REMARK    7  A    between atoms: C5_7  and  C6_8 
REMARK    8  A    between atoms: C6_8  and  O3_9 
REMARK    9  A    between atoms: C9_13  and  N1_14 
REMARK   10  A    between atoms: N1_14  and  C10_15 
ROOT
HETATM    1  C7  UNL     1      25.204   2.069  51.867  1.00  0.00     0.091 A 
HETATM    2  C8  UNL     1      24.891   2.504  53.252  1.00  0.00     0.012 A 
HETATM    3  C9  UNL     1      24.551   1.249  52.840  1.00  0.00     0.017 A 
ENDROOT
BRANCH   1   4
HETATM    4  C3  UNL     1      26.714   1.945  51.625  1.00  0.00     0.158 C 
BRANCH   4   5
HETATM    5  O1  UNL     1      27.080   2.645  50.517  1.00  0.00    -0.383 OA
BRANCH   5   6
HETATM    6  C2  UNL     1      26.191   3.569  50.028  1.00  0.00     0.163 C 
HETATM    7  C1  UNL     1      26.753   4.602  49.121  1.00  0.00     0.033 C 
ENDBRANCH   5   6
ENDBRANCH   4   5
BRANCH   4   8
HETATM    8  C4  UNL     1      27.502   2.422  52.832  1.00  0.00     0.200 C 
BRANCH   8   9
HETATM    9  O2  UNL     1      28.624   1.646  52.988  1.00  0.00    -0.386 OA
BRANCH   9  10
HETATM   10  C5  UNL     1      28.362   0.315  53.230  1.00  0.00     0.195 C 
BRANCH  10  11
HETATM   11  C6  UNL     1      27.686   0.056  54.549  1.00  0.00     0.211 C 
BRANCH  11  12
HETATM   12  O3  UNL     1      26.696  -0.927  54.323  1.00  0.00    -0.311 OA
HETATM   13 BR1  UNL     1      26.918  -1.728  52.664  1.00  0.00     0.099 Br
ENDBRANCH  11  12
ENDBRANCH  10  11
ENDBRANCH   9  10
ENDBRANCH   8   9
ENDBRANCH   4   8
ENDBRANCH   1   4
BRANCH   3  14
HETATM   14  N1  UNL     1      23.900   0.154  53.508  1.00  0.00    -0.359 N 
HETATM   15  H15 UNL     1      24.418  -0.517  54.115  1.00  0.00     0.166 HD
BRANCH  14  16
HETATM   16  C10 UNL     1      22.524  -0.171  53.447  1.00  0.00     0.034 A 
HETATM   17  C11 UNL     1      22.113  -1.134  54.357  1.00  0.00     0.032 A 
HETATM   18  C12 UNL     1      20.767  -1.497  54.342  1.00  0.00     0.046 A 
HETATM   19  C13 UNL     1      19.906  -0.905  53.447  1.00  0.00     0.138 A 
HETATM   20  F1  UNL     1      18.610  -1.320  53.502  1.00  0.00    -0.204 F 
HETATM   21  C14 UNL     1      20.335   0.054  52.544  1.00  0.00     0.074 A 
HETATM   22 CL1  UNL     1      19.188   0.779  51.418  1.00  0.00    -0.081 Cl
HETATM   23  C15 UNL     1      21.663   0.433  52.537  1.00  0.00     0.056 A 
ENDBRANCH  14  16
ENDBRANCH   3  14
TORSDOF 10
ENDMDL
MODEL 9
REMARK VINA RESULT:      -5.7      3.800      4.910
REMARK  10 active torsions:
REMARK  status: ('A' for Active; 'I' for Inactive)
REMARK    1  A    between atoms: C2_2  and  O1_3 
REMARK    2  A    between atoms: O1_3  and  C3_4 
REMARK    3  A    between atoms: C3_4  and  C4_5 
REMARK    4  A    between atoms: C3_4  and  C7_11 
REMARK    5  A    between atoms: C4_5  and  O2_6 
REMARK    6  A    between atoms: O2_6  and  C5_7 
REMARK    7  A    between atoms: C5_7  and  C6_8 
REMARK    8  A    between atoms: C6_8  and  O3_9 
REMARK    9  A    between atoms: C9_13  and  N1_14 
REMARK   10  A    between atoms: N1_14  and  C10_15 
ROOT
HETATM    1  C7  UNL     1      23.069   1.495  52.728  1.00  0.00     0.091 A 
HETATM    2  C8  UNL     1      22.685   1.493  51.293  1.00  0.00     0.012 A 
HETATM    3  C9  UNL     1      23.248   2.605  51.845  1.00  0.00     0.017 A 
ENDROOT
BRANCH   1   4
HETATM    4  C3  UNL     1      24.227   0.533  53.022  1.00  0.00     0.158 C 
BRANCH   4   5
HETATM    5  O1  UNL     1      25.292   1.208  53.533  1.00  0.00    -0.383 OA
BRANCH   5   6
HETATM    6  C2  UNL     1      26.545   0.736  53.236  1.00  0.00     0.163 C 
HETATM    7  C1  UNL     1      26.672  -0.033  51.971  1.00  0.00     0.033 C 
ENDBRANCH   5   6
ENDBRANCH   4   5
BRANCH   4   8
HETATM    8  C4  UNL     1      23.795  -0.566  53.976  1.00  0.00     0.200 C 
BRANCH   8   9
HETATM    9  O2  UNL     1      22.468  -0.407  54.294  1.00  0.00    -0.386 OA
BRANCH   9  10
HETATM   10  C5  UNL     1      21.754  -1.585  54.347  1.00  0.00     0.195 C 
BRANCH  10  11
HETATM   11  C6  UNL     1      20.289  -1.424  54.049  1.00  0.00     0.211 C 
BRANCH  11  12
HETATM   12  O3  UNL     1      20.083  -0.072  53.690  1.00  0.00    -0.311 OA
HETATM   13 BR1  UNL     1      19.127   0.059  52.106  1.00  0.00     0.099 Br
ENDBRANCH  11  12
ENDBRANCH  10  11
ENDBRANCH   9  10
ENDBRANCH   8   9
ENDBRANCH   4   8
ENDBRANCH   1   4
BRANCH   3  14
HETATM   14  N1  UNL     1      23.584   3.892  51.298  1.00  0.00    -0.359 N 
HETATM   15  H15 UNL     1      23.000   4.740  51.465  1.00  0.00     0.166 HD
BRANCH  14  16
HETATM   16  C10 UNL     1      24.702   4.197  50.485  1.00  0.00     0.034 A 
HETATM   17  C11 UNL     1      25.654   3.191  50.406  1.00  0.00     0.032 A 
HETATM   18  C12 UNL     1      26.780   3.436  49.620  1.00  0.00     0.046 A 
HETATM   19  C13 UNL     1      26.912   4.637  48.963  1.00  0.00     0.138 A 
HETATM   20  F1  UNL     1      28.042   4.791  48.220  1.00  0.00    -0.204 F 
HETATM   21  C14 UNL     1      25.951   5.631  49.056  1.00  0.00     0.074 A 
HETATM   22 CL1  UNL     1      26.170   7.153  48.194  1.00  0.00    -0.081 Cl
HETATM   23  C15 UNL     1      24.824   5.416  49.827  1.00  0.00     0.056 A 
ENDBRANCH  14  16
ENDBRANCH   3  14
TORSDOF 10
ENDMDL
