MODEL 1
REMARK VINA RESULT:      -9.4      0.000      0.000
REMARK  2 active torsions:
REMARK  status: ('A' for Active; 'I' for Inactive)
REMARK    1  A    between atoms: C7_8  and  N1_9 
REMARK    2  A    between atoms: N1_9  and  C8_10 
ROOT
HETATM    1  C8  UNL     1      25.142   1.533  51.704  1.00  0.00     0.155 C 
HETATM    2  N2  UNL     1      25.325   2.679  51.243  1.00  0.00    -0.255 NA
HETATM    3  C9  UNL     1      26.493   3.145  50.591  1.00  0.00     0.184 A 
HETATM    4  C10 UNL     1      26.501   3.409  49.157  1.00  0.00     0.033 A 
HETATM    5  C11 UNL     1      26.210   4.440  49.939  1.00  0.00     0.032 A 
HETATM    6  N3  UNL     1      25.869   5.809  50.056  1.00  0.00    -0.390 N 
HETATM    7  C12 UNL     1      24.834   6.143  50.996  1.00  0.00     0.151 C 
HETATM    8  C13 UNL     1      23.451   5.734  50.658  1.00  0.00     0.304 C 
HETATM    9  N4  UNL     1      23.244   4.321  50.419  1.00  0.00     0.124 N 
HETATM   10  C14 UNL     1      23.203   3.810  49.044  1.00  0.00     0.324 C 
HETATM   11  C15 UNL     1      22.998   3.207  51.228  1.00  0.00     0.392 A 
HETATM   12  O1  UNL     1      23.111   4.262  51.892  1.00  0.00    -0.102 OA
HETATM   13  N5  UNL     1      22.756   2.166  52.132  1.00  0.00    -0.255 N 
HETATM   14  C16 UNL     1      21.656   1.830  52.810  1.00  0.00     0.220 A 
HETATM   15  N6  UNL     1      22.018   0.740  53.498  1.00  0.00    -0.229 NA
HETATM   16  C17 UNL     1      23.298   0.489  53.197  1.00  0.00     0.158 A 
HETATM   17 CL1  UNL     1      24.073  -0.914  53.953  1.00  0.00    -0.060 Cl
HETATM   18  C18 UNL     1      23.831   1.393  52.306  1.00  0.00     0.130 A 
HETATM   19  H10 UNL     1      26.353   6.571  49.492  1.00  0.00     0.159 HD
ENDROOT
BRANCH   1  20
HETATM   20  N1  UNL     1      25.975   0.408  51.727  1.00  0.00    -0.339 N 
HETATM   21  H7  UNL     1      25.908  -0.475  51.187  1.00  0.00     0.167 HD
BRANCH  20  22
HETATM   22  C7  UNL     1      27.121   0.300  52.559  1.00  0.00     0.042 A 
HETATM   23  C2  UNL     1      27.718  -0.881  52.982  1.00  0.00    -0.035 A 
HETATM   24  C1  UNL     1      27.112  -2.136  52.528  1.00  0.00     0.050 C 
HETATM   25  C3  UNL     1      28.823  -0.812  53.785  1.00  0.00     0.012 A 
HETATM   26  C4  UNL     1      29.273   0.425  54.122  1.00  0.00     0.043 A 
HETATM   27  C5  UNL     1      28.753   1.678  53.758  1.00  0.00     0.118 A 
HETATM   28  F1  UNL     1      29.273   2.857  54.153  1.00  0.00    -0.206 F 
HETATM   29  C6  UNL     1      27.634   1.511  52.943  1.00  0.00     0.072 A 
ENDBRANCH  20  22
ENDBRANCH   1  20
TORSDOF 2
ENDMDL
MODEL 2
REMARK VINA RESULT:      -8.6      3.113      6.443
REMARK  2 active torsions:
REMARK  status: ('A' for Active; 'I' for Inactive)
REMARK    1  A    between atoms: C7_8  and  N1_9 
REMARK    2  A    between atoms: N1_9  and  C8_10 
ROOT
HETATM    1  C8  UNL     1      24.250   2.294  52.466  1.00  0.00     0.155 C 
HETATM    2  N2  UNL     1      24.963   1.549  53.170  1.00  0.00    -0.255 NA
HETATM    3  C9  UNL     1      24.520   0.715  54.225  1.00  0.00     0.184 A 
HETATM    4  C10 UNL     1      24.497  -0.736  54.083  1.00  0.00     0.033 A 
HETATM    5  C11 UNL     1      25.601  -0.218  54.605  1.00  0.00     0.032 A 
HETATM    6  N3  UNL     1      26.894  -0.422  55.141  1.00  0.00    -0.390 N 
HETATM    7  C12 UNL     1      27.928   0.479  54.709  1.00  0.00     0.151 C 
HETATM    8  C13 UNL     1      28.391   0.359  53.308  1.00  0.00     0.304 C 
HETATM    9  N4  UNL     1      27.375   0.498  52.285  1.00  0.00     0.124 N 
HETATM   10  C14 UNL     1      26.786  -0.698  51.673  1.00  0.00     0.324 C 
HETATM   11  C15 UNL     1      26.780   1.575  51.623  1.00  0.00     0.392 A 
HETATM   12  O1  UNL     1      27.639   1.944  52.455  1.00  0.00    -0.102 OA
HETATM   13  N5  UNL     1      26.254   2.727  51.025  1.00  0.00    -0.255 N 
HETATM   14  C16 UNL     1      26.761   3.548  50.103  1.00  0.00     0.220 A 
HETATM   15  N6  UNL     1      25.798   4.458  49.911  1.00  0.00    -0.229 NA
HETATM   16  C17 UNL     1      24.782   4.134  50.720  1.00  0.00     0.158 A 
HETATM   17 CL1  UNL     1      23.335   5.158  50.691  1.00  0.00    -0.060 Cl
HETATM   18  C18 UNL     1      25.027   3.008  51.473  1.00  0.00     0.130 A 
HETATM   19  H10 UNL     1      27.109  -1.193  55.842  1.00  0.00     0.159 HD
ENDROOT
BRANCH   1  20
HETATM   20  N1  UNL     1      22.871   2.536  52.489  1.00  0.00    -0.339 N 
HETATM   21  H7  UNL     1      22.338   3.275  52.983  1.00  0.00     0.167 HD
BRANCH  20  22
HETATM   22  C7  UNL     1      21.925   1.741  51.788  1.00  0.00     0.042 A 
HETATM   23  C2  UNL     1      20.922   0.968  52.357  1.00  0.00    -0.035 A 
HETATM   24  C1  UNL     1      20.826   0.970  53.819  1.00  0.00     0.050 C 
HETATM   25  C3  UNL     1      20.089   0.259  51.536  1.00  0.00     0.012 A 
HETATM   26  C4  UNL     1      20.299   0.357  50.197  1.00  0.00     0.043 A 
HETATM   27  C5  UNL     1      21.275   1.101  49.514  1.00  0.00     0.118 A 
HETATM   28  F1  UNL     1      21.405   1.128  48.172  1.00  0.00    -0.206 F 
HETATM   29  C6  UNL     1      22.075   1.789  50.426  1.00  0.00     0.072 A 
ENDBRANCH  20  22
ENDBRANCH   1  20
TORSDOF 2
ENDMDL
MODEL 3
REMARK VINA RESULT:      -8.4      3.195      4.671
REMARK  2 active torsions:
REMARK  status: ('A' for Active; 'I' for Inactive)
REMARK    1  A    between atoms: C7_8  and  N1_9 
REMARK    2  A    between atoms: N1_9  and  C8_10 
ROOT
HETATM    1  C8  UNL     1      21.869   2.832  51.297  1.00  0.00     0.155 C 
HETATM    2  N2  UNL     1      22.540   3.878  51.420  1.00  0.00    -0.255 NA
HETATM    3  C9  UNL     1      22.749   4.606  52.616  1.00  0.00     0.184 A 
HETATM    4  C10 UNL     1      24.049   4.618  53.276  1.00  0.00     0.033 A 
HETATM    5  C11 UNL     1      23.825   5.597  52.409  1.00  0.00     0.032 A 
HETATM    6  N3  UNL     1      24.295   6.761  51.755  1.00  0.00    -0.390 N 
HETATM    7  C12 UNL     1      24.033   6.865  50.346  1.00  0.00     0.151 C 
HETATM    8  C13 UNL     1      24.777   5.952  49.448  1.00  0.00     0.304 C 
HETATM    9  N4  UNL     1      24.629   4.535  49.713  1.00  0.00     0.124 N 
HETATM   10  C14 UNL     1      25.659   3.824  50.478  1.00  0.00     0.324 C 
HETATM   11  C15 UNL     1      23.698   3.555  49.358  1.00  0.00     0.392 A 
HETATM   12  O1  UNL     1      23.412   4.677  48.884  1.00  0.00    -0.102 OA
HETATM   13  N5  UNL     1      22.707   2.659  48.942  1.00  0.00    -0.255 N 
HETATM   14  C16 UNL     1      22.487   2.078  47.759  1.00  0.00     0.220 A 
HETATM   15  N6  UNL     1      21.410   1.310  47.968  1.00  0.00    -0.229 NA
HETATM   16  C17 UNL     1      21.050   1.474  49.247  1.00  0.00     0.158 A 
HETATM   17 CL1  UNL     1      19.643   0.572  49.838  1.00  0.00    -0.060 Cl
HETATM   18  C18 UNL     1      21.865   2.347  49.931  1.00  0.00     0.130 A 
HETATM   19  H10 UNL     1      24.807   7.539  52.268  1.00  0.00     0.159 HD
ENDROOT
BRANCH   1  20
HETATM   20  N1  UNL     1      21.149   2.087  52.238  1.00  0.00    -0.339 N 
HETATM   21  H7  UNL     1      20.186   2.228  52.595  1.00  0.00     0.167 HD
BRANCH  20  22
HETATM   22  C7  UNL     1      21.673   0.943  52.897  1.00  0.00     0.042 A 
HETATM   23  C2  UNL     1      20.936  -0.123  53.397  1.00  0.00    -0.035 A 
HETATM   24  C1  UNL     1      19.482  -0.066  53.232  1.00  0.00     0.050 C 
HETATM   25  C3  UNL     1      21.597  -1.153  54.007  1.00  0.00     0.012 A 
HETATM   26  C4  UNL     1      22.951  -1.068  54.085  1.00  0.00     0.043 A 
HETATM   27  C5  UNL     1      23.794  -0.046  53.619  1.00  0.00     0.118 A 
HETATM   28  F1  UNL     1      25.136  -0.052  53.752  1.00  0.00    -0.206 F 
HETATM   29  C6  UNL     1      23.038   0.958  53.014  1.00  0.00     0.072 A 
ENDBRANCH  20  22
ENDBRANCH   1  20
TORSDOF 2
ENDMDL
MODEL 4
REMARK VINA RESULT:      -8.3      2.967      5.357
REMARK  2 active torsions:
REMARK  status: ('A' for Active; 'I' for Inactive)
REMARK    1  A    between atoms: C7_8  and  N1_9 
REMARK    2  A    between atoms: N1_9  and  C8_10 
ROOT
HETATM    1  C8  UNL     1      22.992   3.311  52.106  1.00  0.00     0.155 C 
HETATM    2  N2  UNL     1      21.799   3.415  51.752  1.00  0.00    -0.255 NA
HETATM    3  C9  UNL     1      21.159   4.593  51.295  1.00  0.00     0.184 A 
HETATM    4  C10 UNL     1      20.779   4.752  49.896  1.00  0.00     0.033 A 
HETATM    5  C11 UNL     1      19.853   4.246  50.699  1.00  0.00     0.032 A 
HETATM    6  N3  UNL     1      18.543   3.735  50.860  1.00  0.00    -0.390 N 
HETATM    7  C12 UNL     1      18.398   2.559  51.673  1.00  0.00     0.151 C 
HETATM    8  C13 UNL     1      18.924   1.287  51.126  1.00  0.00     0.304 C 
HETATM    9  N4  UNL     1      20.327   1.277  50.768  1.00  0.00     0.124 N 
HETATM   10  C14 UNL     1      20.725   1.470  49.369  1.00  0.00     0.324 C 
HETATM   11  C15 UNL     1      21.523   1.063  51.459  1.00  0.00     0.392 A 
HETATM   12  O1  UNL     1      20.520   0.968  52.202  1.00  0.00    -0.102 OA
HETATM   13  N5  UNL     1      22.654   0.832  52.251  1.00  0.00    -0.255 N 
HETATM   14  C16 UNL     1      23.160  -0.298  52.752  1.00  0.00     0.220 A 
HETATM   15  N6  UNL     1      24.258   0.099  53.408  1.00  0.00    -0.229 NA
HETATM   16  C17 UNL     1      24.344   1.428  53.265  1.00  0.00     0.158 A 
HETATM   17 CL1  UNL     1      25.714   2.259  54.023  1.00  0.00    -0.060 Cl
HETATM   18  C18 UNL     1      23.319   1.959  52.517  1.00  0.00     0.130 A 
HETATM   19  H10 UNL     1      17.690   4.194  50.419  1.00  0.00     0.159 HD
ENDROOT
BRANCH   1  20
HETATM   20  N1  UNL     1      24.019   4.260  52.166  1.00  0.00    -0.339 N 
HETATM   21  H7  UNL     1      24.364   4.810  52.974  1.00  0.00     0.167 HD
BRANCH  20  22
HETATM   22  C7  UNL     1      24.799   4.641  51.042  1.00  0.00     0.042 A 
HETATM   23  C2  UNL     1      24.838   5.902  50.461  1.00  0.00    -0.035 A 
HETATM   24  C1  UNL     1      23.998   6.941  51.063  1.00  0.00     0.050 C 
HETATM   25  C3  UNL     1      25.647   6.105  49.378  1.00  0.00     0.012 A 
HETATM   26  C4  UNL     1      26.372   5.045  48.932  1.00  0.00     0.043 A 
HETATM   27  C5  UNL     1      26.410   3.734  49.435  1.00  0.00     0.118 A 
HETATM   28  F1  UNL     1      27.164   2.745  48.913  1.00  0.00    -0.206 F 
HETATM   29  C6  UNL     1      25.559   3.620  50.534  1.00  0.00     0.072 A 
ENDBRANCH  20  22
ENDBRANCH   1  20
TORSDOF 2
ENDMDL
MODEL 5
REMARK VINA RESULT:      -8.1      1.899      2.474
REMARK  2 active torsions:
REMARK  status: ('A' for Active; 'I' for Inactive)
REMARK    1  A    between atoms: C7_8  and  N1_9 
REMARK    2  A    between atoms: N1_9  and  C8_10 
ROOT
HETATM    1  C8  UNL     1      23.305   2.614  51.441  1.00  0.00     0.155 C 
HETATM    2  N2  UNL     1      24.023   3.552  51.034  1.00  0.00    -0.255 NA
HETATM    3  C9  UNL     1      25.404   3.480  50.733  1.00  0.00     0.184 A 
HETATM    4  C10 UNL     1      25.881   3.549  49.356  1.00  0.00     0.033 A 
HETATM    5  C11 UNL     1      25.815   4.701  50.009  1.00  0.00     0.032 A 
HETATM    6  N3  UNL     1      26.005   6.104  50.005  1.00  0.00    -0.390 N 
HETATM    7  C12 UNL     1      24.972   6.902  50.609  1.00  0.00     0.151 C 
HETATM    8  C13 UNL     1      23.675   6.984  49.900  1.00  0.00     0.304 C 
HETATM    9  N4  UNL     1      23.012   5.724  49.632  1.00  0.00     0.124 N 
HETATM   10  C14 UNL     1      23.134   5.101  48.310  1.00  0.00     0.324 C 
HETATM   11  C15 UNL     1      22.162   4.882  50.354  1.00  0.00     0.392 A 
HETATM   12  O1  UNL     1      22.495   5.895  51.008  1.00  0.00    -0.102 OA
HETATM   13  N5  UNL     1      21.318   4.117  51.167  1.00  0.00    -0.255 N 
HETATM   14  C16 UNL     1      20.039   4.286  51.512  1.00  0.00     0.220 A 
HETATM   15  N6  UNL     1      19.768   3.231  52.290  1.00  0.00    -0.229 NA
HETATM   16  C17 UNL     1      20.887   2.499  52.366  1.00  0.00     0.158 A 
HETATM   17 CL1  UNL     1      20.845   1.012  53.331  1.00  0.00    -0.060 Cl
HETATM   18  C18 UNL     1      21.933   3.033  51.650  1.00  0.00     0.130 A 
HETATM   19  H10 UNL     1      26.870   6.564  49.590  1.00  0.00     0.159 HD
ENDROOT
BRANCH   1  20
HETATM   20  N1  UNL     1      23.609   1.276  51.715  1.00  0.00    -0.339 N 
HETATM   21  H7  UNL     1      23.280   0.414  51.241  1.00  0.00     0.167 HD
BRANCH  20  22
HETATM   22  C7  UNL     1      24.477   0.869  52.763  1.00  0.00     0.042 A 
HETATM   23  C2  UNL     1      24.318  -0.251  53.570  1.00  0.00    -0.035 A 
HETATM   24  C1  UNL     1      23.147  -1.095  53.318  1.00  0.00     0.050 C 
HETATM   25  C3  UNL     1      25.249  -0.503  54.539  1.00  0.00     0.012 A 
HETATM   26  C4  UNL     1      26.285   0.369  54.653  1.00  0.00     0.043 A 
HETATM   27  C5  UNL     1      26.544   1.527  53.900  1.00  0.00     0.118 A 
HETATM   28  F1  UNL     1      27.605   2.336  54.097  1.00  0.00    -0.206 F 
HETATM   29  C6  UNL     1      25.549   1.704  52.940  1.00  0.00     0.072 A 
ENDBRANCH  20  22
ENDBRANCH   1  20
TORSDOF 2
ENDMDL
MODEL 6
REMARK VINA RESULT:      -8.1      2.502      3.414
REMARK  2 active torsions:
REMARK  status: ('A' for Active; 'I' for Inactive)
REMARK    1  A    between atoms: C7_8  and  N1_9 
REMARK    2  A    between atoms: N1_9  and  C8_10 
ROOT
HETATM    1  C8  UNL     1      22.058   2.427  52.241  1.00  0.00     0.155 C 
HETATM    2  N2  UNL     1      22.190   3.619  51.894  1.00  0.00    -0.255 NA
HETATM    3  C9  UNL     1      23.116   4.550  52.424  1.00  0.00     0.184 A 
HETATM    4  C10 UNL     1      24.260   5.005  51.642  1.00  0.00     0.033 A 
HETATM    5  C11 UNL     1      23.164   5.747  51.559  1.00  0.00     0.032 A 
HETATM    6  N3  UNL     1      22.511   6.880  51.018  1.00  0.00    -0.390 N 
HETATM    7  C12 UNL     1      21.161   6.696  50.558  1.00  0.00     0.151 C 
HETATM    8  C13 UNL     1      20.965   5.886  49.334  1.00  0.00     0.304 C 
HETATM    9  N4  UNL     1      21.495   4.539  49.368  1.00  0.00     0.124 N 
HETATM   10  C14 UNL     1      22.797   4.250  48.755  1.00  0.00     0.324 C 
HETATM   11  C15 UNL     1      21.030   3.305  49.831  1.00  0.00     0.392 A 
HETATM   12  O1  UNL     1      20.204   4.225  50.018  1.00  0.00    -0.102 OA
HETATM   13  N5  UNL     1      20.464   2.125  50.330  1.00  0.00    -0.255 N 
HETATM   14  C16 UNL     1      19.507   1.334  49.840  1.00  0.00     0.220 A 
HETATM   15  N6  UNL     1      19.403   0.350  50.741  1.00  0.00    -0.229 NA
HETATM   16  C17 UNL     1      20.292   0.606  51.709  1.00  0.00     0.158 A 
HETATM   17 CL1  UNL     1      20.403  -0.536  53.061  1.00  0.00    -0.060 Cl
HETATM   18  C18 UNL     1      21.014   1.756  51.490  1.00  0.00     0.130 A 
HETATM   19  H10 UNL     1      22.976   7.835  50.957  1.00  0.00     0.159 HD
ENDROOT
BRANCH   1  20
HETATM   20  N1  UNL     1      22.734   1.670  53.204  1.00  0.00    -0.339 N 
HETATM   21  H7  UNL     1      22.489   1.493  54.196  1.00  0.00     0.167 HD
BRANCH  20  22
HETATM   22  C7  UNL     1      23.951   0.984  52.948  1.00  0.00     0.042 A 
HETATM   23  C2  UNL     1      24.350  -0.218  53.518  1.00  0.00    -0.035 A 
HETATM   24  C1  UNL     1      23.431  -0.841  54.474  1.00  0.00     0.050 C 
HETATM   25  C3  UNL     1      25.558  -0.749  53.161  1.00  0.00     0.012 A 
HETATM   26  C4  UNL     1      26.302  -0.058  52.258  1.00  0.00     0.043 A 
HETATM   27  C5  UNL     1      26.003   1.158  51.621  1.00  0.00     0.118 A 
HETATM   28  F1  UNL     1      26.818   1.771  50.738  1.00  0.00    -0.206 F 
HETATM   29  C6  UNL     1      24.758   1.624  52.043  1.00  0.00     0.072 A 
ENDBRANCH  20  22
ENDBRANCH   1  20
TORSDOF 2
ENDMDL
MODEL 7
REMARK VINA RESULT:      -8.0      3.398      5.571
REMARK  2 active torsions:
REMARK  status: ('A' for Active; 'I' for Inactive)
REMARK    1  A    between atoms: C7_8  and  N1_9 
REMARK    2  A    between atoms: N1_9  and  C8_10 
ROOT
HETATM    1  C8  UNL     1      22.699   3.998  49.486  1.00  0.00     0.155 C 
HETATM    2  N2  UNL     1      21.608   3.410  49.338  1.00  0.00    -0.255 NA
HETATM    3  C9  UNL     1      21.427   2.074  48.904  1.00  0.00     0.184 A 
HETATM    4  C10 UNL     1      20.977   1.036  49.823  1.00  0.00     0.033 A 
HETATM    5  C11 UNL     1      20.028   1.663  49.142  1.00  0.00     0.032 A 
HETATM    6  N3  UNL     1      18.651   1.821  48.856  1.00  0.00    -0.390 N 
HETATM    7  C12 UNL     1      18.157   3.167  48.756  1.00  0.00     0.151 C 
HETATM    8  C13 UNL     1      18.080   3.957  50.006  1.00  0.00     0.304 C 
HETATM    9  N4  UNL     1      19.318   4.107  50.744  1.00  0.00     0.124 N 
HETATM   10  C14 UNL     1      19.593   3.238  51.893  1.00  0.00     0.324 C 
HETATM   11  C15 UNL     1      20.408   4.979  50.678  1.00  0.00     0.392 A 
HETATM   12  O1  UNL     1      19.541   5.235  49.813  1.00  0.00    -0.102 OA
HETATM   13  N5  UNL     1      21.445   5.906  50.520  1.00  0.00    -0.255 N 
HETATM   14  C16 UNL     1      21.528   7.196  50.853  1.00  0.00     0.220 A 
HETATM   15  N6  UNL     1      22.762   7.552  50.475  1.00  0.00    -0.229 NA
HETATM   16  C17 UNL     1      23.340   6.468  49.943  1.00  0.00     0.158 A 
HETATM   17 CL1  UNL     1      25.004   6.618  49.348  1.00  0.00    -0.060 Cl
HETATM   18  C18 UNL     1      22.522   5.362  49.947  1.00  0.00     0.130 A 
HETATM   19  H10 UNL     1      17.998   0.994  48.706  1.00  0.00     0.159 HD
ENDROOT
BRANCH   1  20
HETATM   20  N1  UNL     1      24.013   3.562  49.283  1.00  0.00    -0.339 N 
HETATM   21  H7  UNL     1      24.581   3.555  48.415  1.00  0.00     0.167 HD
BRANCH  20  22
HETATM   22  C7  UNL     1      24.825   3.018  50.314  1.00  0.00     0.042 A 
HETATM   23  C2  UNL     1      26.211   3.082  50.386  1.00  0.00    -0.035 A 
HETATM   24  C1  UNL     1      26.904   3.777  49.298  1.00  0.00     0.050 C 
HETATM   25  C3  UNL     1      26.844   2.505  51.452  1.00  0.00     0.012 A 
HETATM   26  C4  UNL     1      26.067   1.897  52.386  1.00  0.00     0.043 A 
HETATM   27  C5  UNL     1      24.668   1.769  52.416  1.00  0.00     0.118 A 
HETATM   28  F1  UNL     1      23.987   1.137  53.392  1.00  0.00    -0.206 F 
HETATM   29  C6  UNL     1      24.109   2.385  51.296  1.00  0.00     0.072 A 
ENDBRANCH  20  22
ENDBRANCH   1  20
TORSDOF 2
ENDMDL
MODEL 8
REMARK VINA RESULT:      -7.7      2.968      6.030
REMARK  2 active torsions:
REMARK  status: ('A' for Active; 'I' for Inactive)
REMARK    1  A    between atoms: C7_8  and  N1_9 
REMARK    2  A    between atoms: N1_9  and  C8_10 
ROOT
HETATM    1  C8  UNL     1      23.544   1.959  52.549  1.00  0.00     0.155 C 
HETATM    2  N2  UNL     1      24.667   1.418  52.478  1.00  0.00    -0.255 NA
HETATM    3  C9  UNL     1      25.851   2.006  51.972  1.00  0.00     0.184 A 
HETATM    4  C10 UNL     1      26.947   2.380  52.858  1.00  0.00     0.033 A 
HETATM    5  C11 UNL     1      27.012   1.165  52.330  1.00  0.00     0.032 A 
HETATM    6  N3  UNL     1      27.706  -0.062  52.206  1.00  0.00    -0.390 N 
HETATM    7  C12 UNL     1      26.918  -1.263  52.256  1.00  0.00     0.151 C 
HETATM    8  C13 UNL     1      26.320  -1.629  53.561  1.00  0.00     0.304 C 
HETATM    9  N4  UNL     1      25.459  -0.636  54.170  1.00  0.00     0.124 N 
HETATM   10  C14 UNL     1      25.986   0.245  55.217  1.00  0.00     0.324 C 
HETATM   11  C15 UNL     1      24.110  -0.290  54.049  1.00  0.00     0.392 A 
HETATM   12  O1  UNL     1      24.425  -1.244  53.303  1.00  0.00    -0.102 OA
HETATM   13  N5  UNL     1      22.749  -0.032  53.846  1.00  0.00    -0.255 N 
HETATM   14  C16 UNL     1      21.659  -0.685  54.259  1.00  0.00     0.220 A 
HETATM   15  N6  UNL     1      20.642   0.039  53.777  1.00  0.00    -0.229 NA
HETATM   16  C17 UNL     1      21.174   1.071  53.109  1.00  0.00     0.158 A 
HETATM   17 CL1  UNL     1      20.068   2.231  52.351  1.00  0.00    -0.060 Cl
HETATM   18  C18 UNL     1      22.550   1.073  53.123  1.00  0.00     0.130 A 
HETATM   19  H10 UNL     1      28.760  -0.113  52.069  1.00  0.00     0.159 HD
ENDROOT
BRANCH   1  20
HETATM   20  N1  UNL     1      23.115   3.238  52.175  1.00  0.00    -0.339 N 
HETATM   21  H7  UNL     1      22.751   4.011  52.763  1.00  0.00     0.167 HD
BRANCH  20  22
HETATM   22  C7  UNL     1      23.110   3.700  50.832  1.00  0.00     0.042 A 
HETATM   23  C2  UNL     1      23.396   4.992  50.410  1.00  0.00    -0.035 A 
HETATM   24  C1  UNL     1      23.736   5.973  51.443  1.00  0.00     0.050 C 
HETATM   25  C3  UNL     1      23.347   5.275  49.072  1.00  0.00     0.012 A 
HETATM   26  C4  UNL     1      23.018   4.260  48.231  1.00  0.00     0.043 A 
HETATM   27  C5  UNL     1      22.710   2.926  48.543  1.00  0.00     0.118 A 
HETATM   28  F1  UNL     1      22.387   1.989  47.629  1.00  0.00    -0.206 F 
HETATM   29  C6  UNL     1      22.784   2.729  49.922  1.00  0.00     0.072 A 
ENDBRANCH  20  22
ENDBRANCH   1  20
TORSDOF 2
ENDMDL
MODEL 9
REMARK VINA RESULT:      -7.7      4.519      6.894
REMARK  2 active torsions:
REMARK  status: ('A' for Active; 'I' for Inactive)
REMARK    1  A    between atoms: C7_8  and  N1_9 
REMARK    2  A    between atoms: N1_9  and  C8_10 
ROOT
HETATM    1  C8  UNL     1      24.761   5.873  49.248  1.00  0.00     0.155 C 
HETATM    2  N2  UNL     1      24.309   6.877  48.659  1.00  0.00    -0.255 NA
HETATM    3  C9  UNL     1      22.990   7.381  48.752  1.00  0.00     0.184 A 
HETATM    4  C10 UNL     1      22.705   8.627  49.455  1.00  0.00     0.033 A 
HETATM    5  C11 UNL     1      22.933   8.730  48.153  1.00  0.00     0.032 A 
HETATM    6  N3  UNL     1      23.044   9.556  47.009  1.00  0.00    -0.390 N 
HETATM    7  C12 UNL     1      24.141   9.290  46.118  1.00  0.00     0.151 C 
HETATM    8  C13 UNL     1      25.502   9.621  46.600  1.00  0.00     0.304 C 
HETATM    9  N4  UNL     1      25.912   8.990  47.838  1.00  0.00     0.124 N 
HETATM   10  C14 UNL     1      25.821   9.730  49.101  1.00  0.00     0.324 C 
HETATM   11  C15 UNL     1      26.476   7.757  48.179  1.00  0.00     0.392 A 
HETATM   12  O1  UNL     1      26.287   7.869  46.947  1.00  0.00    -0.102 OA
HETATM   13  N5  UNL     1      27.038   6.494  48.404  1.00  0.00    -0.255 N 
HETATM   14  C16 UNL     1      28.273   6.033  48.196  1.00  0.00     0.220 A 
HETATM   15  N6  UNL     1      28.223   4.763  48.616  1.00  0.00    -0.229 NA
HETATM   16  C17 UNL     1      26.974   4.539  49.046  1.00  0.00     0.158 A 
HETATM   17 CL1  UNL     1      26.589   2.929  49.680  1.00  0.00    -0.060 Cl
HETATM   18  C18 UNL     1      26.156   5.639  48.929  1.00  0.00     0.130 A 
HETATM   19  H10 UNL     1      22.350  10.333  46.793  1.00  0.00     0.159 HD
ENDROOT
BRANCH   1  20
HETATM   20  N1  UNL     1      24.153   4.975  50.132  1.00  0.00    -0.339 N 
HETATM   21  H7  UNL     1      24.122   4.987  51.169  1.00  0.00     0.167 HD
BRANCH  20  22
HETATM   22  C7  UNL     1      23.435   3.824  49.709  1.00  0.00     0.042 A 
HETATM   23  C2  UNL     1      23.085   2.740  50.503  1.00  0.00    -0.035 A 
HETATM   24  C1  UNL     1      23.491   2.782  51.910  1.00  0.00     0.050 C 
HETATM   25  C3  UNL     1      22.389   1.706  49.938  1.00  0.00     0.012 A 
HETATM   26  C4  UNL     1      22.080   1.808  48.619  1.00  0.00     0.043 A 
HETATM   27  C5  UNL     1      22.381   2.849  47.725  1.00  0.00     0.118 A 
HETATM   28  F1  UNL     1      22.032   2.853  46.422  1.00  0.00    -0.206 F 
HETATM   29  C6  UNL     1      23.088   3.855  48.384  1.00  0.00     0.072 A 
ENDBRANCH  20  22
ENDBRANCH   1  20
TORSDOF 2
ENDMDL
