MODEL 1
REMARK VINA RESULT:      -8.6      0.000      0.000
REMARK  6 active torsions:
REMARK  status: ('A' for Active; 'I' for Inactive)
REMARK    1  A    between atoms: C4_4  and  O1_5 
REMARK    2  A    between atoms: O1_5  and  C5_6 
REMARK    3  A    between atoms: C17_21  and  C18_22 
REMARK    4  A    between atoms: C18_22  and  C19_23 
REMARK    5  A    between atoms: C19_23  and  C20_24 
REMARK    6  A    between atoms: C20_24  and  O4_26 
ROOT
HETATM    1  C5  UNL     1      22.968   1.496  52.690  1.00  0.00     0.064 C 
HETATM    2  C6  UNL     1      24.024   2.235  53.182  1.00  0.00    -0.021 C 
HETATM    3  C7  UNL     1      25.299   2.113  54.011  1.00  0.00     0.027 C 
HETATM    4  C8  UNL     1      25.793   1.014  53.461  1.00  0.00     0.040 C 
HETATM    5  C9  UNL     1      25.530  -0.376  53.904  1.00  0.00     0.256 C 
HETATM    6  O2  UNL     1      26.222  -1.322  53.920  1.00  0.00    -0.267 OA
HETATM    7  N1  UNL     1      24.249  -0.688  54.382  1.00  0.00    -0.333 N 
HETATM    8  C10 UNL     1      22.933  -1.010  54.871  1.00  0.00     0.087 C 
HETATM    9  C11 UNL     1      22.018  -0.544  53.922  1.00  0.00    -0.003 C 
HETATM   10  C12 UNL     1      22.856   0.033  52.894  1.00  0.00     0.094 C 
HETATM   11  C13 UNL     1      26.593   0.659  52.280  1.00  0.00    -0.031 C 
HETATM   12  C14 UNL     1      27.179  -0.661  52.326  1.00  0.00     0.050 C 
HETATM   13  C15 UNL     1      26.703   1.533  51.239  1.00  0.00     0.095 C 
HETATM   14  N2  UNL     1      26.089   2.780  50.802  1.00  0.00    -0.369 N 
HETATM   15  C16 UNL     1      24.871   3.442  51.236  1.00  0.00     0.009 C 
HETATM   16  C17 UNL     1      24.487   4.280  50.287  1.00  0.00    -0.001 C 
HETATM   17  C21 UNL     1      23.899   3.478  52.400  1.00  0.00     0.097 C 
HETATM   18  H6  UNL     1      23.965   0.292  54.540  1.00  0.00     0.168 HD
HETATM   19  H15 UNL     1      26.653   3.202  50.071  1.00  0.00     0.165 HD
ENDROOT
BRANCH  16  20
HETATM   20  C18 UNL     1      24.911   4.732  48.954  1.00  0.00     0.039 C 
BRANCH  20  21
HETATM   21  C19 UNL     1      25.689   6.021  49.105  1.00  0.00     0.113 C 
BRANCH  21  22
HETATM   22  C20 UNL     1      27.117   5.733  48.849  1.00  0.00     0.139 C 
HETATM   23  O3  UNL     1      27.640   6.512  47.991  1.00  0.00    -0.650 OA
BRANCH  22  24
HETATM   24  O4  UNL     1      27.934   4.760  49.400  1.00  0.00    -0.776 OA
HETATM   25  H21 UNL     1      28.045   3.866  48.945  1.00  0.00     0.167 HD
ENDBRANCH  22  24
ENDBRANCH  21  22
ENDBRANCH  20  21
ENDBRANCH  16  20
BRANCH   1  26
HETATM   26  O1  UNL     1      21.993   2.195  51.947  1.00  0.00    -0.314 OA
BRANCH  26  27
HETATM   27  C4  UNL     1      20.858   1.622  51.459  1.00  0.00     0.076 A 
HETATM   28  C3  UNL     1      20.479   0.881  50.290  1.00  0.00     0.044 A 
HETATM   29  C2  UNL     1      19.241   0.797  50.747  1.00  0.00    -0.057 A 
HETATM   30  C1  UNL     1      17.919   0.246  50.389  1.00  0.00     0.048 C 
HETATM   31  C22 UNL     1      19.628   1.558  51.947  1.00  0.00     0.044 A 
ENDBRANCH  26  27
ENDBRANCH   1  26
TORSDOF 6
ENDMDL
MODEL 2
REMARK VINA RESULT:      -8.6      2.893      5.950
REMARK  6 active torsions:
REMARK  status: ('A' for Active; 'I' for Inactive)
REMARK    1  A    between atoms: C4_4  and  O1_5 
REMARK    2  A    between atoms: O1_5  and  C5_6 
REMARK    3  A    between atoms: C17_21  and  C18_22 
REMARK    4  A    between atoms: C18_22  and  C19_23 
REMARK    5  A    between atoms: C19_23  and  C20_24 
REMARK    6  A    between atoms: C20_24  and  O4_26 
ROOT
HETATM    1  C5  UNL     1      25.542   3.145  51.154  1.00  0.00     0.064 C 
HETATM    2  C6  UNL     1      25.114   3.278  49.849  1.00  0.00    -0.021 C 
HETATM    3  C7  UNL     1      23.870   3.555  49.010  1.00  0.00     0.027 C 
HETATM    4  C8  UNL     1      23.381   4.572  49.704  1.00  0.00     0.040 C 
HETATM    5  C9  UNL     1      22.432   4.475  50.840  1.00  0.00     0.256 C 
HETATM    6  O2  UNL     1      21.554   5.178  51.169  1.00  0.00    -0.267 OA
HETATM    7  N1  UNL     1      22.560   3.392  51.721  1.00  0.00    -0.333 N 
HETATM    8  C10 UNL     1      22.693   2.280  52.627  1.00  0.00     0.087 C 
HETATM    9  C11 UNL     1      24.035   2.226  53.015  1.00  0.00    -0.003 C 
HETATM   10  C12 UNL     1      24.639   3.336  52.312  1.00  0.00     0.094 C 
HETATM   11  C13 UNL     1      23.583   6.025  49.785  1.00  0.00    -0.031 C 
HETATM   12  C14 UNL     1      22.526   6.742  50.461  1.00  0.00     0.050 C 
HETATM   13  C15 UNL     1      24.717   6.589  49.278  1.00  0.00     0.095 C 
HETATM   14  N2  UNL     1      26.008   6.150  48.765  1.00  0.00    -0.369 N 
HETATM   15  C16 UNL     1      26.682   4.867  48.860  1.00  0.00     0.009 C 
HETATM   16  C17 UNL     1      27.974   5.053  48.649  1.00  0.00    -0.001 C 
HETATM   17  C21 UNL     1      26.396   3.402  49.133  1.00  0.00     0.097 C 
HETATM   18  H6  UNL     1      23.143   2.822  51.086  1.00  0.00     0.168 HD
HETATM   19  H15 UNL     1      26.460   6.916  48.275  1.00  0.00     0.165 HD
ENDROOT
BRANCH  16  20
HETATM   20  C18 UNL     1      28.915   6.145  48.355  1.00  0.00     0.039 C 
BRANCH  20  21
HETATM   21  C19 UNL     1      30.267   5.546  48.035  1.00  0.00     0.113 C 
BRANCH  21  22
HETATM   22  C20 UNL     1      31.215   5.948  49.098  1.00  0.00     0.139 C 
HETATM   23  O3  UNL     1      32.011   6.871  48.736  1.00  0.00    -0.650 OA
BRANCH  22  24
HETATM   24  O4  UNL     1      31.346   5.471  50.390  1.00  0.00    -0.776 OA
HETATM   25  H21 UNL     1      31.747   6.052  51.113  1.00  0.00     0.167 HD
ENDBRANCH  22  24
ENDBRANCH  21  22
ENDBRANCH  20  21
ENDBRANCH  16  20
BRANCH   1  26
HETATM   26  O1  UNL     1      26.906   2.841  51.348  1.00  0.00    -0.314 OA
BRANCH  26  27
HETATM   27  C4  UNL     1      27.365   2.008  52.324  1.00  0.00     0.076 A 
HETATM   28  C3  UNL     1      27.300   0.605  52.618  1.00  0.00     0.044 A 
HETATM   29  C2  UNL     1      28.014   0.805  53.713  1.00  0.00    -0.057 A 
HETATM   30  C1  UNL     1      28.593   0.071  54.857  1.00  0.00     0.048 C 
HETATM   31  C22 UNL     1      28.081   2.245  53.412  1.00  0.00     0.044 A 
ENDBRANCH  26  27
ENDBRANCH   1  26
TORSDOF 6
ENDMDL
MODEL 3
REMARK VINA RESULT:      -8.4      2.260      6.374
REMARK  6 active torsions:
REMARK  status: ('A' for Active; 'I' for Inactive)
REMARK    1  A    between atoms: C4_4  and  O1_5 
REMARK    2  A    between atoms: O1_5  and  C5_6 
REMARK    3  A    between atoms: C17_21  and  C18_22 
REMARK    4  A    between atoms: C18_22  and  C19_23 
REMARK    5  A    between atoms: C19_23  and  C20_24 
REMARK    6  A    between atoms: C20_24  and  O4_26 
ROOT
HETATM    1  C5  UNL     1      23.997   3.239  50.258  1.00  0.00     0.064 C 
HETATM    2  C6  UNL     1      23.420   3.474  51.489  1.00  0.00    -0.021 C 
HETATM    3  C7  UNL     1      22.070   3.528  52.198  1.00  0.00     0.027 C 
HETATM    4  C8  UNL     1      21.539   2.418  51.706  1.00  0.00     0.040 C 
HETATM    5  C9  UNL     1      20.734   2.313  50.465  1.00  0.00     0.256 C 
HETATM    6  O2  UNL     1      19.819   1.632  50.199  1.00  0.00    -0.267 OA
HETATM    7  N1  UNL     1      21.083   3.127  49.377  1.00  0.00    -0.333 N 
HETATM    8  C10 UNL     1      21.443   3.961  48.260  1.00  0.00     0.087 C 
HETATM    9  C11 UNL     1      22.815   3.796  48.051  1.00  0.00    -0.003 C 
HETATM   10  C12 UNL     1      23.205   2.846  49.070  1.00  0.00     0.094 C 
HETATM   11  C13 UNL     1      21.575   0.978  51.999  1.00  0.00    -0.031 C 
HETATM   12  C14 UNL     1      20.517   0.213  51.379  1.00  0.00     0.050 C 
HETATM   13  C15 UNL     1      22.573   0.459  52.769  1.00  0.00     0.095 C 
HETATM   14  N2  UNL     1      23.845   0.894  53.330  1.00  0.00    -0.369 N 
HETATM   15  C16 UNL     1      24.673   2.048  53.023  1.00  0.00     0.009 C 
HETATM   16  C17 UNL     1      25.905   1.805  53.442  1.00  0.00    -0.001 C 
HETATM   17  C21 UNL     1      24.594   3.418  52.377  1.00  0.00     0.097 C 
HETATM   18  H6  UNL     1      21.659   3.782  49.931  1.00  0.00     0.168 HD
HETATM   19  H15 UNL     1      24.148   0.238  54.042  1.00  0.00     0.165 HD
ENDROOT
BRANCH  16  20
HETATM   20  C18 UNL     1      26.672   0.741  54.107  1.00  0.00     0.039 C 
BRANCH  20  21
HETATM   21  C19 UNL     1      28.029   0.638  53.447  1.00  0.00     0.113 C 
BRANCH  21  22
HETATM   22  C20 UNL     1      28.809   1.845  53.802  1.00  0.00     0.139 C 
HETATM   23  O3  UNL     1      29.195   1.854  55.013  1.00  0.00    -0.650 OA
BRANCH  22  24
HETATM   24  O4  UNL     1      29.164   2.929  53.017  1.00  0.00    -0.776 OA
HETATM   25  H21 UNL     1      28.574   3.219  52.249  1.00  0.00     0.167 HD
ENDBRANCH  22  24
ENDBRANCH  21  22
ENDBRANCH  20  21
ENDBRANCH  16  20
BRANCH   1  26
HETATM   26  O1  UNL     1      25.400   3.362  50.179  1.00  0.00    -0.314 OA
BRANCH  26  27
HETATM   27  C4  UNL     1      26.036   4.388  49.549  1.00  0.00     0.076 A 
HETATM   28  C3  UNL     1      25.758   5.763  49.247  1.00  0.00     0.044 A 
HETATM   29  C2  UNL     1      26.934   5.867  48.650  1.00  0.00    -0.057 A 
HETATM   30  C1  UNL     1      27.778   6.846  47.935  1.00  0.00     0.048 C 
HETATM   31  C22 UNL     1      27.220   4.456  48.960  1.00  0.00     0.044 A 
ENDBRANCH  26  27
ENDBRANCH   1  26
TORSDOF 6
ENDMDL
MODEL 4
REMARK VINA RESULT:      -7.9      1.755      2.014
REMARK  6 active torsions:
REMARK  status: ('A' for Active; 'I' for Inactive)
REMARK    1  A    between atoms: C4_4  and  O1_5 
REMARK    2  A    between atoms: O1_5  and  C5_6 
REMARK    3  A    between atoms: C17_21  and  C18_22 
REMARK    4  A    between atoms: C18_22  and  C19_23 
REMARK    5  A    between atoms: C19_23  and  C20_24 
REMARK    6  A    between atoms: C20_24  and  O4_26 
ROOT
HETATM    1  C5  UNL     1      22.740   2.416  51.435  1.00  0.00     0.064 C 
HETATM    2  C6  UNL     1      23.643   3.019  52.286  1.00  0.00    -0.021 C 
HETATM    3  C7  UNL     1      24.596   2.723  53.440  1.00  0.00     0.027 C 
HETATM    4  C8  UNL     1      25.163   1.628  52.957  1.00  0.00     0.040 C 
HETATM    5  C9  UNL     1      24.690   0.238  53.166  1.00  0.00     0.256 C 
HETATM    6  O2  UNL     1      25.284  -0.764  53.295  1.00  0.00    -0.267 OA
HETATM    7  N1  UNL     1      23.307   0.008  53.211  1.00  0.00    -0.333 N 
HETATM    8  C10 UNL     1      21.888  -0.229  53.256  1.00  0.00     0.087 C 
HETATM    9  C11 UNL     1      21.334   0.385  52.128  1.00  0.00    -0.003 C 
HETATM   10  C12 UNL     1      22.479   0.958  51.455  1.00  0.00     0.094 C 
HETATM   11  C13 UNL     1      26.258   1.289  52.037  1.00  0.00    -0.031 C 
HETATM   12  C14 UNL     1      26.718  -0.077  52.128  1.00  0.00     0.050 C 
HETATM   13  C15 UNL     1      26.734   2.224  51.165  1.00  0.00     0.095 C 
HETATM   14  N2  UNL     1      26.361   3.549  50.689  1.00  0.00    -0.369 N 
HETATM   15  C16 UNL     1      25.114   4.284  50.805  1.00  0.00     0.009 C 
HETATM   16  C17 UNL     1      25.089   5.221  49.870  1.00  0.00    -0.001 C 
HETATM   17  C21 UNL     1      23.839   4.322  51.627  1.00  0.00     0.097 C 
HETATM   18  H6  UNL     1      23.052   0.996  53.372  1.00  0.00     0.168 HD
HETATM   19  H15 UNL     1      27.146   3.971  50.202  1.00  0.00     0.165 HD
ENDROOT
BRANCH  16  20
HETATM   20  C18 UNL     1      25.924   5.729  48.772  1.00  0.00     0.039 C 
BRANCH  20  21
HETATM   21  C19 UNL     1      25.754   7.230  48.690  1.00  0.00     0.113 C 
BRANCH  21  22
HETATM   22  C20 UNL     1      26.843   7.864  49.466  1.00  0.00     0.139 C 
HETATM   23  O3  UNL     1      27.944   7.916  48.833  1.00  0.00    -0.650 OA
BRANCH  22  24
HETATM   24  O4  UNL     1      26.824   8.391  50.746  1.00  0.00    -0.776 OA
HETATM   25  H21 UNL     1      26.804   9.391  50.887  1.00  0.00     0.167 HD
ENDBRANCH  22  24
ENDBRANCH  21  22
ENDBRANCH  20  21
ENDBRANCH  16  20
BRANCH   1  26
HETATM   26  O1  UNL     1      22.082   3.252  50.508  1.00  0.00    -0.314 OA
BRANCH  26  27
HETATM   27  C4  UNL     1      20.756   3.556  50.571  1.00  0.00     0.076 A 
HETATM   28  C3  UNL     1      19.791   3.827  51.598  1.00  0.00     0.044 A 
HETATM   29  C2  UNL     1      18.858   3.989  50.676  1.00  0.00    -0.057 A 
HETATM   30  C1  UNL     1      17.422   4.306  50.537  1.00  0.00     0.048 C 
HETATM   31  C22 UNL     1      19.847   3.710  49.620  1.00  0.00     0.044 A 
ENDBRANCH  26  27
ENDBRANCH   1  26
TORSDOF 6
ENDMDL
MODEL 5
REMARK VINA RESULT:      -7.9      2.294      5.354
REMARK  6 active torsions:
REMARK  status: ('A' for Active; 'I' for Inactive)
REMARK    1  A    between atoms: C4_4  and  O1_5 
REMARK    2  A    between atoms: O1_5  and  C5_6 
REMARK    3  A    between atoms: C17_21  and  C18_22 
REMARK    4  A    between atoms: C18_22  and  C19_23 
REMARK    5  A    between atoms: C19_23  and  C20_24 
REMARK    6  A    between atoms: C20_24  and  O4_26 
ROOT
HETATM    1  C5  UNL     1      24.434   2.296  51.945  1.00  0.00     0.064 C 
HETATM    2  C6  UNL     1      23.968   2.529  50.668  1.00  0.00    -0.021 C 
HETATM    3  C7  UNL     1      22.760   2.299  49.763  1.00  0.00     0.027 C 
HETATM    4  C8  UNL     1      21.804   2.640  50.614  1.00  0.00     0.040 C 
HETATM    5  C9  UNL     1      21.107   1.727  51.552  1.00  0.00     0.256 C 
HETATM    6  O2  UNL     1      19.996   1.708  51.923  1.00  0.00    -0.267 OA
HETATM    7  N1  UNL     1      21.850   0.697  52.150  1.00  0.00    -0.333 N 
HETATM    8  C10 UNL     1      22.612  -0.358  52.764  1.00  0.00     0.087 C 
HETATM    9  C11 UNL     1      23.761   0.226  53.304  1.00  0.00    -0.003 C 
HETATM   10  C12 UNL     1      23.614   1.629  52.983  1.00  0.00     0.094 C 
HETATM   11  C13 UNL     1      21.153   3.874  51.076  1.00  0.00    -0.031 C 
HETATM   12  C14 UNL     1      19.896   3.671  51.758  1.00  0.00     0.050 C 
HETATM   13  C15 UNL     1      21.757   5.081  50.880  1.00  0.00     0.095 C 
HETATM   14  N2  UNL     1      23.055   5.586  50.453  1.00  0.00    -0.369 N 
HETATM   15  C16 UNL     1      24.337   4.917  50.319  1.00  0.00     0.009 C 
HETATM   16  C17 UNL     1      25.293   5.832  50.336  1.00  0.00    -0.001 C 
HETATM   17  C21 UNL     1      24.935   3.529  50.183  1.00  0.00     0.097 C 
HETATM   18  H6  UNL     1      22.633   0.744  51.478  1.00  0.00     0.168 HD
HETATM   19  H15 UNL     1      22.982   6.574  50.231  1.00  0.00     0.165 HD
ENDROOT
BRANCH  16  20
HETATM   20  C18 UNL     1      25.445   7.290  50.448  1.00  0.00     0.039 C 
BRANCH  20  21
HETATM   21  C19 UNL     1      26.403   7.761  49.375  1.00  0.00     0.113 C 
BRANCH  21  22
HETATM   22  C20 UNL     1      27.316   8.759  49.975  1.00  0.00     0.139 C 
HETATM   23  O3  UNL     1      28.439   8.829  49.384  1.00  0.00    -0.650 OA
BRANCH  22  24
HETATM   24  O4  UNL     1      27.117   9.599  51.057  1.00  0.00    -0.776 OA
HETATM   25  H21 UNL     1      26.251  10.111  51.156  1.00  0.00     0.167 HD
ENDBRANCH  22  24
ENDBRANCH  21  22
ENDBRANCH  20  21
ENDBRANCH  16  20
BRANCH   1  26
HETATM   26  O1  UNL     1      25.737   2.750  52.240  1.00  0.00    -0.314 OA
BRANCH  26  27
HETATM   27  C4  UNL     1      26.753   1.932  52.633  1.00  0.00     0.076 A 
HETATM   28  C3  UNL     1      27.167   0.582  52.380  1.00  0.00     0.044 A 
HETATM   29  C2  UNL     1      28.201   0.750  53.188  1.00  0.00    -0.057 A 
HETATM   30  C1  UNL     1      29.368   0.024  53.728  1.00  0.00     0.048 C 
HETATM   31  C22 UNL     1      27.776   2.136  53.450  1.00  0.00     0.044 A 
ENDBRANCH  26  27
ENDBRANCH   1  26
TORSDOF 6
ENDMDL
MODEL 6
REMARK VINA RESULT:      -7.8      2.486      7.469
REMARK  6 active torsions:
REMARK  status: ('A' for Active; 'I' for Inactive)
REMARK    1  A    between atoms: C4_4  and  O1_5 
REMARK    2  A    between atoms: O1_5  and  C5_6 
REMARK    3  A    between atoms: C17_21  and  C18_22 
REMARK    4  A    between atoms: C18_22  and  C19_23 
REMARK    5  A    between atoms: C19_23  and  C20_24 
REMARK    6  A    between atoms: C20_24  and  O4_26 
ROOT
HETATM    1  C5  UNL     1      25.035   2.878  50.944  1.00  0.00     0.064 C 
HETATM    2  C6  UNL     1      24.273   3.756  51.686  1.00  0.00    -0.021 C 
HETATM    3  C7  UNL     1      23.672   5.158  51.653  1.00  0.00     0.027 C 
HETATM    4  C8  UNL     1      23.188   5.141  50.420  1.00  0.00     0.040 C 
HETATM    5  C9  UNL     1      23.909   5.565  49.195  1.00  0.00     0.256 C 
HETATM    6  O2  UNL     1      23.526   6.099  48.225  1.00  0.00    -0.267 OA
HETATM    7  N1  UNL     1      25.283   5.296  49.108  1.00  0.00    -0.333 N 
HETATM    8  C10 UNL     1      26.693   5.018  49.017  1.00  0.00     0.087 C 
HETATM    9  C11 UNL     1      26.865   3.666  49.327  1.00  0.00    -0.003 C 
HETATM   10  C12 UNL     1      25.519   3.199  49.581  1.00  0.00     0.094 C 
HETATM   11  C13 UNL     1      21.976   4.665  49.739  1.00  0.00    -0.031 C 
HETATM   12  C14 UNL     1      21.770   5.222  48.421  1.00  0.00     0.050 C 
HETATM   13  C15 UNL     1      21.170   3.743  50.338  1.00  0.00     0.095 C 
HETATM   14  N2  UNL     1      21.208   2.862  51.497  1.00  0.00    -0.369 N 
HETATM   15  C16 UNL     1      22.317   2.449  52.340  1.00  0.00     0.009 C 
HETATM   16  C17 UNL     1      21.977   1.334  52.967  1.00  0.00    -0.001 C 
HETATM   17  C21 UNL     1      23.726   2.862  52.723  1.00  0.00     0.097 C 
HETATM   18  H6  UNL     1      25.410   5.125  50.119  1.00  0.00     0.168 HD
HETATM   19  H15 UNL     1      20.276   2.512  51.692  1.00  0.00     0.165 HD
ENDROOT
BRANCH  16  20
HETATM   20  C18 UNL     1      20.839   0.407  53.064  1.00  0.00     0.039 C 
BRANCH  20  21
HETATM   21  C19 UNL     1      20.737  -0.084  54.491  1.00  0.00     0.113 C 
BRANCH  21  22
HETATM   22  C20 UNL     1      21.710  -1.184  54.673  1.00  0.00     0.139 C 
HETATM   23  O3  UNL     1      21.619  -2.086  53.782  1.00  0.00    -0.650 OA
BRANCH  22  24
HETATM   24  O4  UNL     1      22.675  -1.356  55.651  1.00  0.00    -0.776 OA
HETATM   25  H21 UNL     1      22.910  -2.282  55.980  1.00  0.00     0.167 HD
ENDBRANCH  22  24
ENDBRANCH  21  22
ENDBRANCH  20  21
ENDBRANCH  16  20
BRANCH   1  26
HETATM   26  O1  UNL     1      25.320   1.627  51.532  1.00  0.00    -0.314 OA
BRANCH  26  27
HETATM   27  C4  UNL     1      26.487   1.340  52.173  1.00  0.00     0.076 A 
HETATM   28  C3  UNL     1      27.187   0.160  52.594  1.00  0.00     0.044 A 
HETATM   29  C2  UNL     1      28.153   0.913  53.091  1.00  0.00    -0.057 A 
HETATM   30  C1  UNL     1      29.446   0.807  53.796  1.00  0.00     0.048 C 
HETATM   31  C22 UNL     1      27.435   2.125  52.660  1.00  0.00     0.044 A 
ENDBRANCH  26  27
ENDBRANCH   1  26
TORSDOF 6
ENDMDL
MODEL 7
REMARK VINA RESULT:      -7.5      1.647      1.854
REMARK  6 active torsions:
REMARK  status: ('A' for Active; 'I' for Inactive)
REMARK    1  A    between atoms: C4_4  and  O1_5 
REMARK    2  A    between atoms: O1_5  and  C5_6 
REMARK    3  A    between atoms: C17_21  and  C18_22 
REMARK    4  A    between atoms: C18_22  and  C19_23 
REMARK    5  A    between atoms: C19_23  and  C20_24 
REMARK    6  A    between atoms: C20_24  and  O4_26 
ROOT
HETATM    1  C5  UNL     1      23.407   1.301  52.577  1.00  0.00     0.064 C 
HETATM    2  C6  UNL     1      24.177   2.265  53.194  1.00  0.00    -0.021 C 
HETATM    3  C7  UNL     1      25.277   2.446  54.236  1.00  0.00     0.027 C 
HETATM    4  C8  UNL     1      26.083   1.467  53.850  1.00  0.00     0.040 C 
HETATM    5  C9  UNL     1      26.041   0.065  54.330  1.00  0.00     0.256 C 
HETATM    6  O2  UNL     1      26.902  -0.706  54.524  1.00  0.00    -0.267 OA
HETATM    7  N1  UNL     1      24.789  -0.507  54.600  1.00  0.00    -0.333 N 
HETATM    8  C10 UNL     1      23.504  -1.095  54.876  1.00  0.00     0.087 C 
HETATM    9  C11 UNL     1      22.699  -0.865  53.757  1.00  0.00    -0.003 C 
HETATM   10  C12 UNL     1      23.569  -0.145  52.852  1.00  0.00     0.094 C 
HETATM   11  C13 UNL     1      27.139   1.265  52.848  1.00  0.00    -0.031 C 
HETATM   12  C14 UNL     1      27.971   0.107  53.079  1.00  0.00     0.050 C 
HETATM   13  C15 UNL     1      27.250   2.115  51.788  1.00  0.00     0.095 C 
HETATM   14  N2  UNL     1      26.477   3.186  51.173  1.00  0.00    -0.369 N 
HETATM   15  C16 UNL     1      25.089   3.577  51.349  1.00  0.00     0.009 C 
HETATM   16  C17 UNL     1      24.716   4.287  50.296  1.00  0.00    -0.001 C 
HETATM   17  C21 UNL     1      23.937   3.430  52.324  1.00  0.00     0.097 C 
HETATM   18  H6  UNL     1      24.282   0.392  54.644  1.00  0.00     0.168 HD
HETATM   19  H15 UNL     1      27.063   3.702  50.524  1.00  0.00     0.165 HD
ENDROOT
BRANCH  16  20
HETATM   20  C18 UNL     1      25.270   4.786  49.029  1.00  0.00     0.039 C 
BRANCH  20  21
HETATM   21  C19 UNL     1      24.607   6.105  48.698  1.00  0.00     0.113 C 
BRANCH  21  22
HETATM   22  C20 UNL     1      23.203   5.835  48.314  1.00  0.00     0.139 C 
HETATM   23  O3  UNL     1      22.369   6.594  48.900  1.00  0.00    -0.650 OA
BRANCH  22  24
HETATM   24  O4  UNL     1      22.695   4.899  47.430  1.00  0.00    -0.776 OA
HETATM   25  H21 UNL     1      22.450   3.973  47.751  1.00  0.00     0.167 HD
ENDBRANCH  22  24
ENDBRANCH  21  22
ENDBRANCH  20  21
ENDBRANCH  16  20
BRANCH   1  26
HETATM   26  O1  UNL     1      22.457   1.751  51.635  1.00  0.00    -0.314 OA
BRANCH  26  27
HETATM   27  C4  UNL     1      21.194   1.251  51.534  1.00  0.00     0.076 A 
HETATM   28  C3  UNL     1      19.999   1.259  52.329  1.00  0.00     0.044 A 
HETATM   29  C2  UNL     1      19.383   0.541  51.404  1.00  0.00    -0.057 A 
HETATM   30  C1  UNL     1      18.074  -0.079  51.113  1.00  0.00     0.048 C 
HETATM   31  C22 UNL     1      20.609   0.532  50.588  1.00  0.00     0.044 A 
ENDBRANCH  26  27
ENDBRANCH   1  26
TORSDOF 6
ENDMDL
MODEL 8
REMARK VINA RESULT:      -7.2      2.652      7.135
REMARK  6 active torsions:
REMARK  status: ('A' for Active; 'I' for Inactive)
REMARK    1  A    between atoms: C4_4  and  O1_5 
REMARK    2  A    between atoms: O1_5  and  C5_6 
REMARK    3  A    between atoms: C17_21  and  C18_22 
REMARK    4  A    between atoms: C18_22  and  C19_23 
REMARK    5  A    between atoms: C19_23  and  C20_24 
REMARK    6  A    between atoms: C20_24  and  O4_26 
ROOT
HETATM    1  C5  UNL     1      24.777   3.367  50.696  1.00  0.00     0.064 C 
HETATM    2  C6  UNL     1      24.097   4.393  51.318  1.00  0.00    -0.021 C 
HETATM    3  C7  UNL     1      23.766   5.877  51.184  1.00  0.00     0.027 C 
HETATM    4  C8  UNL     1      23.445   5.897  49.898  1.00  0.00     0.040 C 
HETATM    5  C9  UNL     1      24.379   6.139  48.772  1.00  0.00     0.256 C 
HETATM    6  O2  UNL     1      24.223   6.693  47.751  1.00  0.00    -0.267 OA
HETATM    7  N1  UNL     1      25.682   5.630  48.869  1.00  0.00    -0.333 N 
HETATM    8  C10 UNL     1      27.020   5.107  48.968  1.00  0.00     0.087 C 
HETATM    9  C11 UNL     1      26.907   3.758  49.320  1.00  0.00    -0.003 C 
HETATM   10  C12 UNL     1      25.478   3.545  49.403  1.00  0.00     0.094 C 
HETATM   11  C13 UNL     1      22.263   5.615  49.072  1.00  0.00    -0.031 C 
HETATM   12  C14 UNL     1      22.328   6.146  47.730  1.00  0.00     0.050 C 
HETATM   13  C15 UNL     1      21.237   4.872  49.576  1.00  0.00     0.095 C 
HETATM   14  N2  UNL     1      20.970   4.044  50.744  1.00  0.00    -0.369 N 
HETATM   15  C16 UNL     1      21.873   3.476  51.731  1.00  0.00     0.009 C 
HETATM   16  C17 UNL     1      21.262   2.464  52.326  1.00  0.00    -0.001 C 
HETATM   17  C21 UNL     1      23.273   3.651  52.288  1.00  0.00     0.097 C 
HETATM   18  H6  UNL     1      25.649   5.479  49.891  1.00  0.00     0.168 HD
HETATM   19  H15 UNL     1      19.973   3.870  50.821  1.00  0.00     0.165 HD
ENDROOT
BRANCH  16  20
HETATM   20  C18 UNL     1      19.974   1.755  52.289  1.00  0.00     0.039 C 
BRANCH  20  21
HETATM   21  C19 UNL     1      20.141   0.491  51.476  1.00  0.00     0.113 C 
BRANCH  21  22
HETATM   22  C20 UNL     1      20.270   0.869  50.051  1.00  0.00     0.139 C 
HETATM   23  O3  UNL     1      21.377   0.514  49.537  1.00  0.00    -0.650 OA
BRANCH  22  24
HETATM   24  O4  UNL     1      19.377   1.537  49.231  1.00  0.00    -0.776 OA
HETATM   25  H21 UNL     1      18.972   1.072  48.430  1.00  0.00     0.167 HD
ENDBRANCH  22  24
ENDBRANCH  21  22
ENDBRANCH  20  21
ENDBRANCH  16  20
BRANCH   1  26
HETATM   26  O1  UNL     1      24.757   2.110  51.336  1.00  0.00    -0.314 OA
BRANCH  26  27
HETATM   27  C4  UNL     1      25.849   1.539  51.919  1.00  0.00     0.076 A 
HETATM   28  C3  UNL     1      26.429   0.230  51.995  1.00  0.00     0.044 A 
HETATM   29  C2  UNL     1      27.405   0.709  52.747  1.00  0.00    -0.057 A 
HETATM   30  C1  UNL     1      28.630   0.279  53.452  1.00  0.00     0.048 C 
HETATM   31  C22 UNL     1      26.810   2.053  52.671  1.00  0.00     0.044 A 
ENDBRANCH  26  27
ENDBRANCH   1  26
TORSDOF 6
ENDMDL
MODEL 9
REMARK VINA RESULT:      -7.2      2.802      7.384
REMARK  6 active torsions:
REMARK  status: ('A' for Active; 'I' for Inactive)
REMARK    1  A    between atoms: C4_4  and  O1_5 
REMARK    2  A    between atoms: O1_5  and  C5_6 
REMARK    3  A    between atoms: C17_21  and  C18_22 
REMARK    4  A    between atoms: C18_22  and  C19_23 
REMARK    5  A    between atoms: C19_23  and  C20_24 
REMARK    6  A    between atoms: C20_24  and  O4_26 
ROOT
HETATM    1  C5  UNL     1      23.734   5.338  49.764  1.00  0.00     0.064 C 
HETATM    2  C6  UNL     1      22.807   5.381  50.783  1.00  0.00    -0.021 C 
HETATM    3  C7  UNL     1      21.312   5.530  51.050  1.00  0.00     0.027 C 
HETATM    4  C8  UNL     1      20.858   4.699  50.122  1.00  0.00     0.040 C 
HETATM    5  C9  UNL     1      20.511   5.059  48.726  1.00  0.00     0.256 C 
HETATM    6  O2  UNL     1      19.669   4.658  48.016  1.00  0.00    -0.267 OA
HETATM    7  N1  UNL     1      21.294   6.024  48.075  1.00  0.00    -0.333 N 
HETATM    8  C10 UNL     1      22.098   7.014  47.407  1.00  0.00     0.087 C 
HETATM    9  C11 UNL     1      23.434   6.635  47.570  1.00  0.00    -0.003 C 
HETATM   10  C12 UNL     1      23.351   5.410  48.335  1.00  0.00     0.094 C 
HETATM   11  C13 UNL     1      20.633   3.254  49.978  1.00  0.00    -0.031 C 
HETATM   12  C14 UNL     1      19.768   2.888  48.881  1.00  0.00     0.050 C 
HETATM   13  C15 UNL     1      21.251   2.377  50.821  1.00  0.00     0.095 C 
HETATM   14  N2  UNL     1      22.300   2.402  51.831  1.00  0.00    -0.369 N 
HETATM   15  C16 UNL     1      23.305   3.407  52.131  1.00  0.00     0.009 C 
HETATM   16  C17 UNL     1      24.289   2.830  52.802  1.00  0.00    -0.001 C 
HETATM   17  C21 UNL     1      23.601   4.880  51.920  1.00  0.00     0.097 C 
HETATM   18  H6  UNL     1      21.719   6.399  48.939  1.00  0.00     0.168 HD
HETATM   19  H15 UNL     1      22.271   1.547  52.377  1.00  0.00     0.165 HD
ENDROOT
BRANCH  16  20
HETATM   20  C18 UNL     1      24.665   1.507  53.322  1.00  0.00     0.039 C 
BRANCH  20  21
HETATM   21  C19 UNL     1      25.915   1.043  52.607  1.00  0.00     0.113 C 
BRANCH  21  22
HETATM   22  C20 UNL     1      26.946   2.096  52.745  1.00  0.00     0.139 C 
HETATM   23  O3  UNL     1      27.337   2.259  53.944  1.00  0.00    -0.650 OA
BRANCH  22  24
HETATM   24  O4  UNL     1      27.522   2.900  51.777  1.00  0.00    -0.776 OA
HETATM   25  H21 UNL     1      28.509   3.114  51.810  1.00  0.00     0.167 HD
ENDBRANCH  22  24
ENDBRANCH  21  22
ENDBRANCH  20  21
ENDBRANCH  16  20
BRANCH   1  26
HETATM   26  O1  UNL     1      25.087   5.195  50.138  1.00  0.00    -0.314 OA
BRANCH  26  27
HETATM   27  C4  UNL     1      26.130   5.696  49.419  1.00  0.00     0.076 A 
HETATM   28  C3  UNL     1      26.649   6.994  49.093  1.00  0.00     0.044 A 
HETATM   29  C2  UNL     1      27.617   6.428  48.392  1.00  0.00    -0.057 A 
HETATM   30  C1  UNL     1      28.795   6.774  47.572  1.00  0.00     0.048 C 
HETATM   31  C22 UNL     1      27.085   5.096  48.725  1.00  0.00     0.044 A 
ENDBRANCH  26  27
ENDBRANCH   1  26
TORSDOF 6
ENDMDL
