MODEL 1
REMARK VINA RESULT:      -8.7      0.000      0.000
REMARK  2 active torsions:
REMARK  status: ('A' for Active; 'I' for Inactive)
REMARK    1  A    between atoms: O1_1  and  C1_2 
REMARK    2  A    between atoms: C7_10  and  C8_11 
ROOT
HETATM    1  C1  UNL     1      24.469  -0.828  54.507  1.00  0.00     0.095 A 
HETATM    2  C2  UNL     1      23.083  -0.663  54.405  1.00  0.00     0.157 A 
HETATM    3  N1  UNL     1      22.561   0.186  53.494  1.00  0.00    -0.233 NA
HETATM    4  C3  UNL     1      23.366   0.884  52.676  1.00  0.00     0.182 A 
HETATM    5  O2  UNL     1      23.124   1.761  51.716  1.00  0.00    -0.290 OA
HETATM    6  C4  UNL     1      24.221   2.186  51.183  1.00  0.00     0.089 A 
HETATM    7  C5  UNL     1      25.285   1.568  51.806  1.00  0.00     0.035 A 
HETATM    8  C6  UNL     1      24.736   0.734  52.761  1.00  0.00     0.046 A 
HETATM    9  C7  UNL     1      25.325  -0.121  53.674  1.00  0.00     0.024 A 
HETATM   10  C14 UNL     1      26.529   1.826  51.448  1.00  0.00     0.150 A 
HETATM   11  O3  UNL     1      26.826   2.724  50.435  1.00  0.00    -0.358 OA
HETATM   12  C15 UNL     1      25.808   3.401  49.745  1.00  0.00     0.204 A 
HETATM   13  C16 UNL     1      24.440   3.055  50.207  1.00  0.00     0.038 A 
ENDROOT
BRANCH   9  14
HETATM   14  C8  UNL     1      26.769  -0.302  53.791  1.00  0.00    -0.022 A 
HETATM   15  C9  UNL     1      27.485   0.495  54.694  1.00  0.00     0.012 A 
HETATM   16  C10 UNL     1      28.830   0.298  54.778  1.00  0.00     0.001 A 
HETATM   17  C11 UNL     1      29.460  -0.655  53.998  1.00  0.00     0.000 A 
HETATM   18  C12 UNL     1      28.708  -1.413  53.123  1.00  0.00     0.001 A 
HETATM   19  C13 UNL     1      27.329  -1.269  52.983  1.00  0.00     0.012 A 
ENDBRANCH   9  14
BRANCH   1  20
HETATM   20  O1  UNL     1      24.947  -1.728  55.476  1.00  0.00    -0.358 OA
HETATM   21  H1  UNL     1      24.221  -2.211  55.998  1.00  0.00     0.217 HD
ENDBRANCH   1  20
TORSDOF 2
ENDMDL
MODEL 2
REMARK VINA RESULT:      -8.3      1.568      3.997
REMARK  2 active torsions:
REMARK  status: ('A' for Active; 'I' for Inactive)
REMARK    1  A    between atoms: O1_1  and  C1_2 
REMARK    2  A    between atoms: C7_10  and  C8_11 
ROOT
HETATM    1  C1  UNL     1      25.751   2.845  51.470  1.00  0.00     0.095 A 
HETATM    2  C2  UNL     1      24.768   3.673  50.918  1.00  0.00     0.157 A 
HETATM    3  N1  UNL     1      23.461   3.441  51.166  1.00  0.00    -0.233 NA
HETATM    4  C3  UNL     1      23.089   2.412  51.945  1.00  0.00     0.182 A 
HETATM    5  O2  UNL     1      21.908   1.970  52.341  1.00  0.00    -0.290 OA
HETATM    6  C4  UNL     1      22.027   0.930  53.099  1.00  0.00     0.089 A 
HETATM    7  C5  UNL     1      23.366   0.635  53.238  1.00  0.00     0.035 A 
HETATM    8  C6  UNL     1      24.046   1.584  52.499  1.00  0.00     0.046 A 
HETATM    9  C7  UNL     1      25.397   1.775  52.279  1.00  0.00     0.024 A 
HETATM   10  C14 UNL     1      23.767  -0.390  53.967  1.00  0.00     0.150 A 
HETATM   11  O3  UNL     1      22.867  -1.212  54.627  1.00  0.00    -0.358 OA
HETATM   12  C15 UNL     1      21.484  -0.988  54.543  1.00  0.00     0.204 A 
HETATM   13  C16 UNL     1      21.118   0.181  53.704  1.00  0.00     0.038 A 
ENDROOT
BRANCH   9  14
HETATM   14  C8  UNL     1      26.434   0.918  52.848  1.00  0.00    -0.022 A 
HETATM   15  C9  UNL     1      27.047   1.297  54.050  1.00  0.00     0.012 A 
HETATM   16  C10 UNL     1      28.009   0.475  54.553  1.00  0.00     0.001 A 
HETATM   17  C11 UNL     1      28.363  -0.691  53.897  1.00  0.00     0.000 A 
HETATM   18  C12 UNL     1      27.728  -1.017  52.715  1.00  0.00     0.001 A 
HETATM   19  C13 UNL     1      26.735  -0.226  52.140  1.00  0.00     0.012 A 
ENDBRANCH   9  14
BRANCH   1  20
HETATM   20  O1  UNL     1      27.093   3.142  51.171  1.00  0.00    -0.358 OA
HETATM   21  H1  UNL     1      27.277   4.124  50.985  1.00  0.00     0.217 HD
ENDBRANCH   1  20
TORSDOF 2
ENDMDL
MODEL 3
REMARK VINA RESULT:      -7.9      1.881      5.546
REMARK  2 active torsions:
REMARK  status: ('A' for Active; 'I' for Inactive)
REMARK    1  A    between atoms: O1_1  and  C1_2 
REMARK    2  A    between atoms: C7_10  and  C8_11 
ROOT
HETATM    1  C1  UNL     1      26.946   1.728  52.968  1.00  0.00     0.095 A 
HETATM    2  C2  UNL     1      27.730   0.830  53.700  1.00  0.00     0.157 A 
HETATM    3  N1  UNL     1      27.152  -0.182  54.383  1.00  0.00    -0.233 NA
HETATM    4  C3  UNL     1      25.818  -0.337  54.368  1.00  0.00     0.182 A 
HETATM    5  O2  UNL     1      25.013  -1.220  54.935  1.00  0.00    -0.290 OA
HETATM    6  C4  UNL     1      23.777  -0.983  54.642  1.00  0.00     0.089 A 
HETATM    7  C5  UNL     1      23.721   0.127  53.826  1.00  0.00     0.035 A 
HETATM    8  C6  UNL     1      25.028   0.540  53.650  1.00  0.00     0.046 A 
HETATM    9  C7  UNL     1      25.565   1.592  52.933  1.00  0.00     0.024 A 
HETATM   10  C14 UNL     1      22.568   0.587  53.379  1.00  0.00     0.150 A 
HETATM   11  O3  UNL     1      21.364  -0.018  53.705  1.00  0.00    -0.358 OA
HETATM   12  C15 UNL     1      21.324  -1.153  54.530  1.00  0.00     0.204 A 
HETATM   13  C16 UNL     1      22.661  -1.605  54.990  1.00  0.00     0.038 A 
ENDROOT
BRANCH   9  14
HETATM   14  C8  UNL     1      24.759   2.537  52.165  1.00  0.00    -0.022 A 
HETATM   15  C9  UNL     1      24.559   2.307  50.798  1.00  0.00     0.012 A 
HETATM   16  C10 UNL     1      23.801   3.207  50.112  1.00  0.00     0.001 A 
HETATM   17  C11 UNL     1      23.252   4.306  50.748  1.00  0.00     0.000 A 
HETATM   18  C12 UNL     1      23.481   4.487  52.098  1.00  0.00     0.001 A 
HETATM   19  C13 UNL     1      24.245   3.609  52.865  1.00  0.00     0.012 A 
ENDBRANCH   9  14
BRANCH   1  20
HETATM   20  O1  UNL     1      27.611   2.759  52.279  1.00  0.00    -0.358 OA
HETATM   21  H1  UNL     1      27.212   2.987  51.372  1.00  0.00     0.217 HD
ENDBRANCH   1  20
TORSDOF 2
ENDMDL
MODEL 4
REMARK VINA RESULT:      -7.9      1.499      4.792
REMARK  2 active torsions:
REMARK  status: ('A' for Active; 'I' for Inactive)
REMARK    1  A    between atoms: O1_1  and  C1_2 
REMARK    2  A    between atoms: C7_10  and  C8_11 
ROOT
HETATM    1  C1  UNL     1      22.553   0.617  53.254  1.00  0.00     0.095 A 
HETATM    2  C2  UNL     1      22.509  -0.515  54.075  1.00  0.00     0.157 A 
HETATM    3  N1  UNL     1      23.648  -1.035  54.583  1.00  0.00    -0.233 NA
HETATM    4  C3  UNL     1      24.835  -0.473  54.305  1.00  0.00     0.182 A 
HETATM    5  O2  UNL     1      26.073  -0.772  54.663  1.00  0.00    -0.290 OA
HETATM    6  C4  UNL     1      26.921   0.058  54.152  1.00  0.00     0.089 A 
HETATM    7  C5  UNL     1      26.233   0.985  53.398  1.00  0.00     0.035 A 
HETATM    8  C6  UNL     1      24.898   0.645  53.497  1.00  0.00     0.046 A 
HETATM    9  C7  UNL     1      23.765   1.219  52.950  1.00  0.00     0.024 A 
HETATM   10  C14 UNL     1      26.867   1.953  52.762  1.00  0.00     0.150 A 
HETATM   11  O3  UNL     1      28.246   2.084  52.821  1.00  0.00    -0.358 OA
HETATM   12  C15 UNL     1      29.028   1.187  53.564  1.00  0.00     0.204 A 
HETATM   13  C16 UNL     1      28.240   0.130  54.247  1.00  0.00     0.038 A 
ENDROOT
BRANCH   9  14
HETATM   14  C8  UNL     1      23.797   2.400  52.092  1.00  0.00    -0.022 A 
HETATM   15  C9  UNL     1      23.913   2.232  50.705  1.00  0.00     0.012 A 
HETATM   16  C10 UNL     1      23.939   3.354  49.935  1.00  0.00     0.001 A 
HETATM   17  C11 UNL     1      23.852   4.612  50.506  1.00  0.00     0.000 A 
HETATM   18  C12 UNL     1      23.740   4.722  51.877  1.00  0.00     0.001 A 
HETATM   19  C13 UNL     1      23.707   3.620  52.729  1.00  0.00     0.012 A 
ENDBRANCH   9  14
BRANCH   1  20
HETATM   20  O1  UNL     1      21.332   1.107  52.758  1.00  0.00    -0.358 OA
HETATM   21  H1  UNL     1      20.508   0.640  53.126  1.00  0.00     0.217 HD
ENDBRANCH   1  20
TORSDOF 2
ENDMDL
MODEL 5
REMARK VINA RESULT:      -7.9      2.240      5.000
REMARK  2 active torsions:
REMARK  status: ('A' for Active; 'I' for Inactive)
REMARK    1  A    between atoms: O1_1  and  C1_2 
REMARK    2  A    between atoms: C7_10  and  C8_11 
ROOT
HETATM    1  C1  UNL     1      22.418  -0.950  54.685  1.00  0.00     0.095 A 
HETATM    2  C2  UNL     1      23.421  -1.519  55.478  1.00  0.00     0.157 A 
HETATM    3  N1  UNL     1      24.719  -1.219  55.256  1.00  0.00    -0.233 NA
HETATM    4  C3  UNL     1      25.063  -0.372  54.272  1.00  0.00     0.182 A 
HETATM    5  O2  UNL     1      26.230   0.083  53.849  1.00  0.00    -0.290 OA
HETATM    6  C4  UNL     1      26.084   0.895  52.855  1.00  0.00     0.089 A 
HETATM    7  C5  UNL     1      24.740   1.010  52.571  1.00  0.00     0.035 A 
HETATM    8  C6  UNL     1      24.086   0.199  53.479  1.00  0.00     0.046 A 
HETATM    9  C7  UNL     1      22.743  -0.072  53.661  1.00  0.00     0.024 A 
HETATM   10  C14 UNL     1      24.313   1.784  51.591  1.00  0.00     0.150 A 
HETATM   11  O3  UNL     1      25.189   2.515  50.804  1.00  0.00    -0.358 OA
HETATM   12  C15 UNL     1      26.575   2.460  51.019  1.00  0.00     0.204 A 
HETATM   13  C16 UNL     1      26.971   1.568  52.138  1.00  0.00     0.038 A 
ENDROOT
BRANCH   9  14
HETATM   14  C8  UNL     1      21.686   0.514  52.842  1.00  0.00    -0.022 A 
HETATM   15  C9  UNL     1      21.326  -0.115  51.642  1.00  0.00     0.012 A 
HETATM   16  C10 UNL     1      20.336   0.459  50.903  1.00  0.00     0.001 A 
HETATM   17  C11 UNL     1      19.713   1.619  51.327  1.00  0.00     0.000 A 
HETATM   18  C12 UNL     1      20.106   2.199  52.516  1.00  0.00     0.001 A 
HETATM   19  C13 UNL     1      21.110   1.671  53.325  1.00  0.00     0.012 A 
ENDBRANCH   9  14
BRANCH   1  20
HETATM   20  O1  UNL     1      21.087  -1.304  54.969  1.00  0.00    -0.358 OA
HETATM   21  H1  UNL     1      20.653  -1.905  54.274  1.00  0.00     0.217 HD
ENDBRANCH   1  20
TORSDOF 2
ENDMDL
MODEL 6
REMARK VINA RESULT:      -7.6      1.993      5.041
REMARK  2 active torsions:
REMARK  status: ('A' for Active; 'I' for Inactive)
REMARK    1  A    between atoms: O1_1  and  C1_2 
REMARK    2  A    between atoms: C7_10  and  C8_11 
ROOT
HETATM    1  C1  UNL     1      21.204  -0.324  53.775  1.00  0.00     0.095 A 
HETATM    2  C2  UNL     1      21.399  -1.187  54.859  1.00  0.00     0.157 A 
HETATM    3  N1  UNL     1      22.648  -1.494  55.272  1.00  0.00    -0.233 NA
HETATM    4  C3  UNL     1      23.717  -0.977  54.645  1.00  0.00     0.182 A 
HETATM    5  O2  UNL     1      25.019  -1.109  54.839  1.00  0.00    -0.290 OA
HETATM    6  C4  UNL     1      25.693  -0.414  53.982  1.00  0.00     0.089 A 
HETATM    7  C5  UNL     1      24.809   0.237  53.148  1.00  0.00     0.035 A 
HETATM    8  C6  UNL     1      23.545  -0.123  53.573  1.00  0.00     0.046 A 
HETATM    9  C7  UNL     1      22.290   0.226  53.109  1.00  0.00     0.024 A 
HETATM   10  C14 UNL     1      25.239   1.019  52.176  1.00  0.00     0.150 A 
HETATM   11  O3  UNL     1      26.591   1.224  51.948  1.00  0.00    -0.358 OA
HETATM   12  C15 UNL     1      27.563   0.603  52.747  1.00  0.00     0.204 A 
HETATM   13  C16 UNL     1      26.997  -0.259  53.815  1.00  0.00     0.038 A 
ENDROOT
BRANCH   9  14
HETATM   14  C8  UNL     1      22.073   1.124  51.979  1.00  0.00    -0.022 A 
HETATM   15  C9  UNL     1      22.048   2.507  52.202  1.00  0.00     0.012 A 
HETATM   16  C10 UNL     1      21.844   3.316  51.126  1.00  0.00     0.001 A 
HETATM   17  C11 UNL     1      21.668   2.785  49.860  1.00  0.00     0.000 A 
HETATM   18  C12 UNL     1      21.700   1.415  49.695  1.00  0.00     0.001 A 
HETATM   19  C13 UNL     1      21.904   0.525  50.748  1.00  0.00     0.012 A 
ENDBRANCH   9  14
BRANCH   1  20
HETATM   20  O1  UNL     1      19.879  -0.045  53.397  1.00  0.00    -0.358 OA
HETATM   21  H1  UNL     1      19.369   0.545  54.049  1.00  0.00     0.217 HD
ENDBRANCH   1  20
TORSDOF 2
ENDMDL
MODEL 7
REMARK VINA RESULT:      -7.4      2.386      4.894
REMARK  2 active torsions:
REMARK  status: ('A' for Active; 'I' for Inactive)
REMARK    1  A    between atoms: O1_1  and  C1_2 
REMARK    2  A    between atoms: C7_10  and  C8_11 
ROOT
HETATM    1  C1  UNL     1      23.434   4.113  51.828  1.00  0.00     0.095 A 
HETATM    2  C2  UNL     1      22.174   4.693  51.645  1.00  0.00     0.157 A 
HETATM    3  N1  UNL     1      21.054   4.008  51.964  1.00  0.00    -0.233 NA
HETATM    4  C3  UNL     1      21.136   2.763  52.458  1.00  0.00     0.182 A 
HETATM    5  O2  UNL     1      20.221   1.890  52.844  1.00  0.00    -0.290 OA
HETATM    6  C4  UNL     1      20.764   0.794  53.260  1.00  0.00     0.089 A 
HETATM    7  C5  UNL     1      22.134   0.913  53.159  1.00  0.00     0.035 A 
HETATM    8  C6  UNL     1      22.372   2.174  52.646  1.00  0.00     0.046 A 
HETATM    9  C7  UNL     1      23.550   2.827  52.337  1.00  0.00     0.024 A 
HETATM   10  C14 UNL     1      22.933  -0.073  53.521  1.00  0.00     0.150 A 
HETATM   11  O3  UNL     1      22.438  -1.269  54.019  1.00  0.00    -0.358 OA
HETATM   12  C15 UNL     1      21.057  -1.479  54.157  1.00  0.00     0.204 A 
HETATM   13  C16 UNL     1      20.230  -0.324  53.728  1.00  0.00     0.038 A 
ENDROOT
BRANCH   9  14
HETATM   14  C8  UNL     1      24.871   2.234  52.523  1.00  0.00    -0.022 A 
HETATM   15  C9  UNL     1      25.443   1.503  51.473  1.00  0.00     0.012 A 
HETATM   16  C10 UNL     1      26.677   0.964  51.680  1.00  0.00     0.001 A 
HETATM   17  C11 UNL     1      27.336   1.136  52.884  1.00  0.00     0.000 A 
HETATM   18  C12 UNL     1      26.727   1.864  53.886  1.00  0.00     0.001 A 
HETATM   19  C13 UNL     1      25.468   2.445  53.748  1.00  0.00     0.012 A 
ENDBRANCH   9  14
BRANCH   1  20
HETATM   20  O1  UNL     1      24.559   4.880  51.477  1.00  0.00    -0.358 OA
HETATM   21  H1  UNL     1      25.259   4.962  52.209  1.00  0.00     0.217 HD
ENDBRANCH   1  20
TORSDOF 2
ENDMDL
MODEL 8
REMARK VINA RESULT:      -6.9      1.793      5.157
REMARK  2 active torsions:
REMARK  status: ('A' for Active; 'I' for Inactive)
REMARK    1  A    between atoms: O1_1  and  C1_2 
REMARK    2  A    between atoms: C7_10  and  C8_11 
ROOT
HETATM    1  C1  UNL     1      21.811   1.445  51.442  1.00  0.00     0.095 A 
HETATM    2  C2  UNL     1      21.291   0.230  51.900  1.00  0.00     0.157 A 
HETATM    3  N1  UNL     1      22.014  -0.554  52.729  1.00  0.00    -0.233 NA
HETATM    4  C3  UNL     1      23.241  -0.176  53.123  1.00  0.00     0.182 A 
HETATM    5  O2  UNL     1      24.142  -0.740  53.911  1.00  0.00    -0.290 OA
HETATM    6  C4  UNL     1      25.201  -0.007  54.010  1.00  0.00     0.089 A 
HETATM    7  C5  UNL     1      25.027   1.129  53.249  1.00  0.00     0.035 A 
HETATM    8  C6  UNL     1      23.771   1.021  52.681  1.00  0.00     0.046 A 
HETATM    9  C7  UNL     1      23.076   1.862  51.833  1.00  0.00     0.024 A 
HETATM   10  C14 UNL     1      25.967   2.052  53.175  1.00  0.00     0.150 A 
HETATM   11  O3  UNL     1      27.168   1.927  53.855  1.00  0.00    -0.358 OA
HETATM   12  C15 UNL     1      27.434   0.804  54.654  1.00  0.00     0.204 A 
HETATM   13  C16 UNL     1      26.328  -0.185  54.683  1.00  0.00     0.038 A 
ENDROOT
BRANCH   9  14
HETATM   14  C8  UNL     1      23.607   3.132  51.347  1.00  0.00    -0.022 A 
HETATM   15  C9  UNL     1      24.363   3.149  50.168  1.00  0.00     0.012 A 
HETATM   16  C10 UNL     1      24.842   4.352  49.744  1.00  0.00     0.001 A 
HETATM   17  C11 UNL     1      24.587   5.510  50.456  1.00  0.00     0.000 A 
HETATM   18  C12 UNL     1      23.838   5.438  51.613  1.00  0.00     0.001 A 
HETATM   19  C13 UNL     1      23.315   4.245  52.108  1.00  0.00     0.012 A 
ENDBRANCH   9  14
BRANCH   1  20
HETATM   20  O1  UNL     1      21.007   2.214  50.581  1.00  0.00    -0.358 OA
HETATM   21  H1  UNL     1      21.129   2.008  49.594  1.00  0.00     0.217 HD
ENDBRANCH   1  20
TORSDOF 2
ENDMDL
MODEL 9
REMARK VINA RESULT:      -6.8      2.711      6.098
REMARK  2 active torsions:
REMARK  status: ('A' for Active; 'I' for Inactive)
REMARK    1  A    between atoms: O1_1  and  C1_2 
REMARK    2  A    between atoms: C7_10  and  C8_11 
ROOT
HETATM    1  C1  UNL     1      24.454   0.655  53.369  1.00  0.00     0.095 A 
HETATM    2  C2  UNL     1      24.780  -0.326  54.312  1.00  0.00     0.157 A 
HETATM    3  N1  UNL     1      23.832  -1.170  54.775  1.00  0.00    -0.233 NA
HETATM    4  C3  UNL     1      22.566  -1.077  54.337  1.00  0.00     0.182 A 
HETATM    5  O2  UNL     1      21.469  -1.759  54.618  1.00  0.00    -0.290 OA
HETATM    6  C4  UNL     1      20.457  -1.316  53.948  1.00  0.00     0.089 A 
HETATM    7  C5  UNL     1      20.875  -0.267  53.157  1.00  0.00     0.035 A 
HETATM    8  C6  UNL     1      22.226  -0.115  53.406  1.00  0.00     0.046 A 
HETATM    9  C7  UNL     1      23.154   0.775  52.898  1.00  0.00     0.024 A 
HETATM   10  C14 UNL     1      20.032   0.370  52.367  1.00  0.00     0.150 A 
HETATM   11  O3  UNL     1      18.693   0.018  52.293  1.00  0.00    -0.358 OA
HETATM   12  C15 UNL     1      18.178  -1.037  53.062  1.00  0.00     0.204 A 
HETATM   13  C16 UNL     1      19.190  -1.699  53.923  1.00  0.00     0.038 A 
ENDROOT
BRANCH   9  14
HETATM   14  C8  UNL     1      22.828   1.803  51.914  1.00  0.00    -0.022 A 
HETATM   15  C9  UNL     1      22.863   1.478  50.551  1.00  0.00     0.012 A 
HETATM   16  C10 UNL     1      22.552   2.461  49.661  1.00  0.00     0.001 A 
HETATM   17  C11 UNL     1      22.215   3.731  50.093  1.00  0.00     0.000 A 
HETATM   18  C12 UNL     1      22.196   3.999  51.447  1.00  0.00     0.001 A 
HETATM   19  C13 UNL     1      22.502   3.045  52.416  1.00  0.00     0.012 A 
ENDBRANCH   9  14
BRANCH   1  20
HETATM   20  O1  UNL     1      25.487   1.501  52.928  1.00  0.00    -0.358 OA
HETATM   21  H1  UNL     1      25.201   2.195  52.242  1.00  0.00     0.217 HD
ENDBRANCH   1  20
TORSDOF 2
ENDMDL
