MODEL 1
REMARK VINA RESULT:      -7.9      0.000      0.000
REMARK  6 active torsions:
REMARK  status: ('A' for Active; 'I' for Inactive)
REMARK    1  A    between atoms: O1_2  and  C2_3 
REMARK    2  A    between atoms: C5_6  and  N1_7 
REMARK    3  A    between atoms: N1_7  and  N2_8 
REMARK    4  A    between atoms: N2_8  and  C6_9 
REMARK    5  A    between atoms: C6_9  and  N3_10 
REMARK    6  A    between atoms: C6_9  and  C7_12 
ROOT
HETATM    1  N2  UNL     1      26.732   1.477  54.524  1.00  0.00    -0.209 NA
HETATM    2  H7  UNL     1      26.150   0.620  54.618  1.00  0.00     0.149 HD
ENDROOT
BRANCH   1   3
HETATM    3  N1  UNL     1      26.076   2.543  53.929  1.00  0.00    -0.319 N 
HETATM    4  H6  UNL     1      26.389   3.538  53.908  1.00  0.00     0.181 HD
BRANCH   3   5
HETATM    5  C5  UNL     1      24.836   2.312  53.260  1.00  0.00     0.044 A 
HETATM    6  C4  UNL     1      24.148   3.254  52.519  1.00  0.00     0.033 A 
HETATM    7  C3  UNL     1      22.953   2.961  51.898  1.00  0.00     0.041 A 
HETATM    8  C2  UNL     1      22.388   1.711  51.987  1.00  0.00     0.090 A 
HETATM    9  C14 UNL     1      23.028   0.737  52.708  1.00  0.00     0.069 A 
HETATM   10  C13 UNL     1      24.222   1.060  53.319  1.00  0.00     0.057 A 
HETATM   11 CL1  UNL     1      22.403  -0.877  52.885  1.00  0.00    -0.081 Cl
BRANCH   8  12
HETATM   12  O1  UNL     1      21.192   1.322  51.397  1.00  0.00    -0.354 OA
HETATM   13  C1  UNL     1      21.089   0.968  50.029  1.00  0.00     0.210 C 
ENDBRANCH   8  12
ENDBRANCH   3   5
ENDBRANCH   1   3
BRANCH   1  14
HETATM   14  C6  UNL     1      28.057   1.254  54.024  1.00  0.00     0.254 C 
BRANCH  14  15
HETATM   15  N3  UNL     1      28.293   2.213  52.995  1.00  0.00    -0.174 NA
HETATM   16  N4  UNL     1      29.143   3.113  53.022  1.00  0.00    -0.207 NA
HETATM   17  H9  UNL     1      29.195   3.738  52.191  1.00  0.00     0.211 HD
ENDBRANCH  14  15
BRANCH  14  18
HETATM   18  C7  UNL     1      28.347  -0.133  53.653  1.00  0.00    -0.014 A 
HETATM   19  C8  UNL     1      29.501  -0.845  53.899  1.00  0.00     0.011 A 
HETATM   20  C9  UNL     1      29.690  -2.149  53.513  1.00  0.00     0.004 A 
HETATM   21  C10 UNL     1      28.624  -2.745  52.836  1.00  0.00     0.042 A 
HETATM   22  C11 UNL     1      27.444  -2.082  52.562  1.00  0.00     0.117 A 
HETATM   23  F1  UNL     1      26.487  -2.763  51.902  1.00  0.00    -0.206 F 
HETATM   24  C12 UNL     1      27.301  -0.756  52.975  1.00  0.00     0.053 A 
ENDBRANCH  14  18
ENDBRANCH   1  14
TORSDOF 6
ENDMDL
MODEL 2
REMARK VINA RESULT:      -7.7      1.794      2.279
REMARK  6 active torsions:
REMARK  status: ('A' for Active; 'I' for Inactive)
REMARK    1  A    between atoms: O1_2  and  C2_3 
REMARK    2  A    between atoms: C5_6  and  N1_7 
REMARK    3  A    between atoms: N1_7  and  N2_8 
REMARK    4  A    between atoms: N2_8  and  C6_9 
REMARK    5  A    between atoms: C6_9  and  N3_10 
REMARK    6  A    between atoms: C6_9  and  C7_12 
ROOT
HETATM    1  N2  UNL     1      26.274   2.447  53.510  1.00  0.00    -0.209 NA
HETATM    2  H7  UNL     1      26.119   1.808  54.315  1.00  0.00     0.149 HD
ENDROOT
BRANCH   1   3
HETATM    3  N1  UNL     1      25.139   2.686  52.751  1.00  0.00    -0.319 N 
HETATM    4  H6  UNL     1      25.009   3.432  52.035  1.00  0.00     0.181 HD
BRANCH   3   5
HETATM    5  C5  UNL     1      23.995   1.849  52.927  1.00  0.00     0.044 A 
HETATM    6  C4  UNL     1      24.031   0.544  53.384  1.00  0.00     0.033 A 
HETATM    7  C3  UNL     1      22.885  -0.207  53.531  1.00  0.00     0.041 A 
HETATM    8  C2  UNL     1      21.647   0.309  53.229  1.00  0.00     0.090 A 
HETATM    9  C14 UNL     1      21.552   1.596  52.773  1.00  0.00     0.069 A 
HETATM   10  C13 UNL     1      22.717   2.325  52.635  1.00  0.00     0.057 A 
HETATM   11 CL1  UNL     1      20.038   2.349  52.361  1.00  0.00    -0.081 Cl
BRANCH   8  12
HETATM   12  O1  UNL     1      20.441  -0.370  53.344  1.00  0.00    -0.354 OA
HETATM   13  C1  UNL     1      20.310  -1.591  54.052  1.00  0.00     0.210 C 
ENDBRANCH   8  12
ENDBRANCH   3   5
ENDBRANCH   1   3
BRANCH   1  14
HETATM   14  C6  UNL     1      27.447   2.168  52.734  1.00  0.00     0.254 C 
BRANCH  14  15
HETATM   15  N3  UNL     1      27.130   2.435  51.369  1.00  0.00    -0.174 NA
HETATM   16  N4  UNL     1      27.149   3.546  50.824  1.00  0.00    -0.207 NA
HETATM   17  H9  UNL     1      26.892   3.582  49.815  1.00  0.00     0.211 HD
ENDBRANCH  14  15
BRANCH  14  18
HETATM   18  C7  UNL     1      28.047   0.855  52.982  1.00  0.00    -0.014 A 
HETATM   19  C8  UNL     1      29.269   0.585  53.558  1.00  0.00     0.011 A 
HETATM   20  C9  UNL     1      29.758  -0.683  53.754  1.00  0.00     0.004 A 
HETATM   21  C10 UNL     1      28.934  -1.726  53.328  1.00  0.00     0.042 A 
HETATM   22  C11 UNL     1      27.699  -1.518  52.744  1.00  0.00     0.117 A 
HETATM   23  F1  UNL     1      26.995  -2.605  52.375  1.00  0.00    -0.206 F 
HETATM   24  C12 UNL     1      27.247  -0.209  52.567  1.00  0.00     0.053 A 
ENDBRANCH  14  18
ENDBRANCH   1  14
TORSDOF 6
ENDMDL
MODEL 3
REMARK VINA RESULT:      -7.7      1.810      2.209
REMARK  6 active torsions:
REMARK  status: ('A' for Active; 'I' for Inactive)
REMARK    1  A    between atoms: O1_2  and  C2_3 
REMARK    2  A    between atoms: C5_6  and  N1_7 
REMARK    3  A    between atoms: N1_7  and  N2_8 
REMARK    4  A    between atoms: N2_8  and  C6_9 
REMARK    5  A    between atoms: C6_9  and  N3_10 
REMARK    6  A    between atoms: C6_9  and  C7_12 
ROOT
HETATM    1  N2  UNL     1      26.038   2.526  53.334  1.00  0.00    -0.209 NA
HETATM    2  H7  UNL     1      25.733   1.860  54.072  1.00  0.00     0.149 HD
ENDROOT
BRANCH   1   3
HETATM    3  N1  UNL     1      24.998   3.080  52.606  1.00  0.00    -0.319 N 
HETATM    4  H6  UNL     1      25.040   3.927  51.999  1.00  0.00     0.181 HD
BRANCH   3   5
HETATM    5  C5  UNL     1      23.710   2.465  52.654  1.00  0.00     0.044 A 
HETATM    6  C4  UNL     1      22.535   3.053  52.224  1.00  0.00     0.033 A 
HETATM    7  C3  UNL     1      21.324   2.399  52.301  1.00  0.00     0.041 A 
HETATM    8  C2  UNL     1      21.229   1.126  52.810  1.00  0.00     0.090 A 
HETATM    9  C14 UNL     1      22.362   0.495  53.251  1.00  0.00     0.069 A 
HETATM   10  C13 UNL     1      23.560   1.174  53.162  1.00  0.00     0.057 A 
HETATM   11 CL1  UNL     1      22.356  -1.115  53.912  1.00  0.00    -0.081 Cl
BRANCH   8  12
HETATM   12  O1  UNL     1      20.057   0.389  52.927  1.00  0.00    -0.354 OA
HETATM   13  C1  UNL     1      19.185   0.154  51.835  1.00  0.00     0.210 C 
ENDBRANCH   8  12
ENDBRANCH   3   5
ENDBRANCH   1   3
BRANCH   1  14
HETATM   14  C6  UNL     1      27.138   2.073  52.532  1.00  0.00     0.254 C 
BRANCH  14  15
HETATM   15  N3  UNL     1      26.865   2.450  51.183  1.00  0.00    -0.174 NA
HETATM   16  N4  UNL     1      27.104   3.553  50.675  1.00  0.00    -0.207 NA
HETATM   17  H9  UNL     1      26.847   3.678  49.674  1.00  0.00     0.211 HD
ENDBRANCH  14  15
BRANCH  14  18
HETATM   18  C7  UNL     1      27.494   0.665  52.719  1.00  0.00    -0.014 A 
HETATM   19  C8  UNL     1      26.737  -0.443  52.405  1.00  0.00     0.011 A 
HETATM   20  C9  UNL     1      27.150  -1.735  52.615  1.00  0.00     0.004 A 
HETATM   21  C10 UNL     1      28.417  -1.885  53.184  1.00  0.00     0.042 A 
HETATM   22  C11 UNL     1      29.221  -0.812  53.520  1.00  0.00     0.117 A 
HETATM   23  F1  UNL     1      30.424  -1.084  54.061  1.00  0.00    -0.206 F 
HETATM   24  C12 UNL     1      28.755   0.482  53.285  1.00  0.00     0.053 A 
ENDBRANCH  14  18
ENDBRANCH   1  14
TORSDOF 6
ENDMDL
MODEL 4
REMARK VINA RESULT:      -7.4      1.816      2.319
REMARK  6 active torsions:
REMARK  status: ('A' for Active; 'I' for Inactive)
REMARK    1  A    between atoms: O1_2  and  C2_3 
REMARK    2  A    between atoms: C5_6  and  N1_7 
REMARK    3  A    between atoms: N1_7  and  N2_8 
REMARK    4  A    between atoms: N2_8  and  C6_9 
REMARK    5  A    between atoms: C6_9  and  N3_10 
REMARK    6  A    between atoms: C6_9  and  C7_12 
ROOT
HETATM    1  N2  UNL     1      27.106   2.356  51.947  1.00  0.00    -0.209 NA
HETATM    2  H7  UNL     1      27.920   2.855  51.538  1.00  0.00     0.149 HD
ENDROOT
BRANCH   1   3
HETATM    3  N1  UNL     1      25.941   3.105  51.981  1.00  0.00    -0.319 N 
HETATM    4  H6  UNL     1      25.864   4.140  52.084  1.00  0.00     0.181 HD
BRANCH   3   5
HETATM    5  C5  UNL     1      24.682   2.440  51.868  1.00  0.00     0.044 A 
HETATM    6  C4  UNL     1      24.005   1.841  52.914  1.00  0.00     0.033 A 
HETATM    7  C3  UNL     1      22.791   1.215  52.731  1.00  0.00     0.041 A 
HETATM    8  C2  UNL     1      22.194   1.158  51.495  1.00  0.00     0.090 A 
HETATM    9  C14 UNL     1      22.819   1.735  50.422  1.00  0.00     0.069 A 
HETATM   10  C13 UNL     1      24.034   2.355  50.635  1.00  0.00     0.057 A 
HETATM   11 CL1  UNL     1      22.154   1.722  48.814  1.00  0.00    -0.081 Cl
BRANCH   8  12
HETATM   12  O1  UNL     1      20.976   0.551  51.214  1.00  0.00    -0.354 OA
HETATM   13  C1  UNL     1      20.015   0.259  52.214  1.00  0.00     0.210 C 
ENDBRANCH   8  12
ENDBRANCH   3   5
ENDBRANCH   1   3
BRANCH   1  14
HETATM   14  C6  UNL     1      27.381   1.648  53.164  1.00  0.00     0.254 C 
BRANCH  14  15
HETATM   15  N3  UNL     1      28.468   2.312  53.806  1.00  0.00    -0.174 NA
HETATM   16  N4  UNL     1      29.231   3.133  53.280  1.00  0.00    -0.207 NA
HETATM   17  H9  UNL     1      29.981   3.534  53.880  1.00  0.00     0.211 HD
ENDBRANCH  14  15
BRANCH  14  18
HETATM   18  C7  UNL     1      27.547   0.201  53.007  1.00  0.00    -0.014 A 
HETATM   19  C8  UNL     1      26.651  -0.693  52.464  1.00  0.00     0.011 A 
HETATM   20  C9  UNL     1      26.888  -2.041  52.356  1.00  0.00     0.004 A 
HETATM   21  C10 UNL     1      28.122  -2.484  52.839  1.00  0.00     0.042 A 
HETATM   22  C11 UNL     1      29.060  -1.634  53.393  1.00  0.00     0.117 A 
HETATM   23  F1  UNL     1      30.214  -2.179  53.823  1.00  0.00    -0.206 F 
HETATM   24  C12 UNL     1      28.770  -0.272  53.480  1.00  0.00     0.053 A 
ENDBRANCH  14  18
ENDBRANCH   1  14
TORSDOF 6
ENDMDL
MODEL 5
REMARK VINA RESULT:      -7.3      4.407      7.491
REMARK  6 active torsions:
REMARK  status: ('A' for Active; 'I' for Inactive)
REMARK    1  A    between atoms: O1_2  and  C2_3 
REMARK    2  A    between atoms: C5_6  and  N1_7 
REMARK    3  A    between atoms: N1_7  and  N2_8 
REMARK    4  A    between atoms: N2_8  and  C6_9 
REMARK    5  A    between atoms: C6_9  and  N3_10 
REMARK    6  A    between atoms: C6_9  and  C7_12 
ROOT
HETATM    1  N2  UNL     1      22.743  -0.486  53.219  1.00  0.00    -0.209 NA
HETATM    2  H7  UNL     1      23.183  -1.386  52.942  1.00  0.00     0.149 HD
ENDROOT
BRANCH   1   3
HETATM    3  N1  UNL     1      23.649   0.521  53.511  1.00  0.00    -0.319 N 
HETATM    4  H6  UNL     1      23.430   1.487  53.836  1.00  0.00     0.181 HD
BRANCH   3   5
HETATM    5  C5  UNL     1      25.046   0.262  53.367  1.00  0.00     0.044 A 
HETATM    6  C4  UNL     1      25.596  -0.966  53.051  1.00  0.00     0.033 A 
HETATM    7  C3  UNL     1      26.957  -1.144  52.928  1.00  0.00     0.041 A 
HETATM    8  C2  UNL     1      27.835  -0.103  53.116  1.00  0.00     0.090 A 
HETATM    9  C14 UNL     1      27.346   1.136  53.431  1.00  0.00     0.069 A 
HETATM   10  C13 UNL     1      25.978   1.285  53.547  1.00  0.00     0.057 A 
HETATM   11 CL1  UNL     1      28.366   2.523  53.689  1.00  0.00    -0.081 Cl
BRANCH   8  12
HETATM   12  O1  UNL     1      29.218  -0.186  53.014  1.00  0.00    -0.354 OA
HETATM   13  C1  UNL     1      30.007  -0.975  53.888  1.00  0.00     0.210 C 
ENDBRANCH   8  12
ENDBRANCH   3   5
ENDBRANCH   1   3
BRANCH   1  14
HETATM   14  C6  UNL     1      21.676  -0.604  54.170  1.00  0.00     0.254 C 
BRANCH  14  15
HETATM   15  N3  UNL     1      22.011  -1.667  55.060  1.00  0.00    -0.174 NA
HETATM   16  N4  UNL     1      23.034  -1.736  55.755  1.00  0.00    -0.207 NA
HETATM   17  H9  UNL     1      23.139  -2.579  56.357  1.00  0.00     0.211 HD
ENDBRANCH  14  15
BRANCH  14  18
HETATM   18  C7  UNL     1      20.337  -0.692  53.581  1.00  0.00    -0.014 A 
HETATM   19  C8  UNL     1      19.774   0.148  52.645  1.00  0.00     0.011 A 
HETATM   20  C9  UNL     1      18.505  -0.008  52.144  1.00  0.00     0.004 A 
HETATM   21  C10 UNL     1      17.783  -1.094  52.642  1.00  0.00     0.042 A 
HETATM   22  C11 UNL     1      18.295  -1.970  53.580  1.00  0.00     0.117 A 
HETATM   23  F1  UNL     1      17.502  -2.981  53.983  1.00  0.00    -0.206 F 
HETATM   24  C12 UNL     1      19.590  -1.768  54.058  1.00  0.00     0.053 A 
ENDBRANCH  14  18
ENDBRANCH   1  14
TORSDOF 6
ENDMDL
MODEL 6
REMARK VINA RESULT:      -7.2      2.113      2.368
REMARK  6 active torsions:
REMARK  status: ('A' for Active; 'I' for Inactive)
REMARK    1  A    between atoms: O1_2  and  C2_3 
REMARK    2  A    between atoms: C5_6  and  N1_7 
REMARK    3  A    between atoms: N1_7  and  N2_8 
REMARK    4  A    between atoms: N2_8  and  C6_9 
REMARK    5  A    between atoms: C6_9  and  N3_10 
REMARK    6  A    between atoms: C6_9  and  C7_12 
ROOT
HETATM    1  N2  UNL     1      26.005   1.534  54.020  1.00  0.00    -0.209 NA
HETATM    2  H7  UNL     1      25.545   0.688  53.628  1.00  0.00     0.149 HD
ENDROOT
BRANCH   1   3
HETATM    3  N1  UNL     1      25.764   2.694  53.301  1.00  0.00    -0.319 N 
HETATM    4  H6  UNL     1      26.155   3.641  53.491  1.00  0.00     0.181 HD
BRANCH   3   5
HETATM    5  C5  UNL     1      24.893   2.644  52.170  1.00  0.00     0.044 A 
HETATM    6  C4  UNL     1      23.913   1.691  51.967  1.00  0.00     0.033 A 
HETATM    7  C3  UNL     1      23.107   1.703  50.850  1.00  0.00     0.041 A 
HETATM    8  C2  UNL     1      23.241   2.668  49.880  1.00  0.00     0.090 A 
HETATM    9  C14 UNL     1      24.197   3.638  50.030  1.00  0.00     0.069 A 
HETATM   10  C13 UNL     1      24.989   3.601  51.159  1.00  0.00     0.057 A 
HETATM   11 CL1  UNL     1      24.452   4.907  48.866  1.00  0.00    -0.081 Cl
BRANCH   8  12
HETATM   12  O1  UNL     1      22.478   2.762  48.723  1.00  0.00    -0.354 OA
HETATM   13  C1  UNL     1      21.116   3.155  48.731  1.00  0.00     0.210 C 
ENDBRANCH   8  12
ENDBRANCH   3   5
ENDBRANCH   1   3
BRANCH   1  14
HETATM   14  C6  UNL     1      27.378   1.354  54.395  1.00  0.00     0.254 C 
BRANCH  14  15
HETATM   15  N3  UNL     1      28.078   2.543  54.032  1.00  0.00    -0.174 NA
HETATM   16  N4  UNL     1      28.646   2.749  52.952  1.00  0.00    -0.207 NA
HETATM   17  H9  UNL     1      29.117   3.670  52.834  1.00  0.00     0.211 HD
ENDBRANCH  14  15
BRANCH  14  18
HETATM   18  C7  UNL     1      27.985   0.110  53.918  1.00  0.00    -0.014 A 
HETATM   19  C8  UNL     1      29.280  -0.320  54.110  1.00  0.00     0.011 A 
HETATM   20  C9  UNL     1      29.770  -1.508  53.625  1.00  0.00     0.004 A 
HETATM   21  C10 UNL     1      28.867  -2.289  52.901  1.00  0.00     0.042 A 
HETATM   22  C11 UNL     1      27.557  -1.911  52.677  1.00  0.00     0.117 A 
HETATM   23  F1  UNL     1      26.781  -2.750  51.965  1.00  0.00    -0.206 F 
HETATM   24  C12 UNL     1      27.108  -0.694  53.192  1.00  0.00     0.053 A 
ENDBRANCH  14  18
ENDBRANCH   1  14
TORSDOF 6
ENDMDL
MODEL 7
REMARK VINA RESULT:      -7.2      3.382      6.275
REMARK  6 active torsions:
REMARK  status: ('A' for Active; 'I' for Inactive)
REMARK    1  A    between atoms: O1_2  and  C2_3 
REMARK    2  A    between atoms: C5_6  and  N1_7 
REMARK    3  A    between atoms: N1_7  and  N2_8 
REMARK    4  A    between atoms: N2_8  and  C6_9 
REMARK    5  A    between atoms: C6_9  and  N3_10 
REMARK    6  A    between atoms: C6_9  and  C7_12 
ROOT
HETATM    1  N2  UNL     1      24.856   3.765  51.978  1.00  0.00    -0.209 NA
HETATM    2  H7  UNL     1      25.038   4.696  52.403  1.00  0.00     0.149 HD
ENDROOT
BRANCH   1   3
HETATM    3  N1  UNL     1      25.967   3.184  51.388  1.00  0.00    -0.319 N 
HETATM    4  H6  UNL     1      26.446   3.493  50.515  1.00  0.00     0.181 HD
BRANCH   3   5
HETATM    5  C5  UNL     1      26.560   2.038  52.000  1.00  0.00     0.044 A 
HETATM    6  C4  UNL     1      26.185   0.730  51.760  1.00  0.00     0.033 A 
HETATM    7  C3  UNL     1      26.803  -0.331  52.388  1.00  0.00     0.041 A 
HETATM    8  C2  UNL     1      27.826  -0.135  53.284  1.00  0.00     0.090 A 
HETATM    9  C14 UNL     1      28.239   1.142  53.559  1.00  0.00     0.069 A 
HETATM   10  C13 UNL     1      27.602   2.184  52.916  1.00  0.00     0.057 A 
HETATM   11 CL1  UNL     1      29.524   1.504  54.675  1.00  0.00    -0.081 Cl
BRANCH   8  12
HETATM   12  O1  UNL     1      28.507  -1.137  53.964  1.00  0.00    -0.354 OA
HETATM   13  C1  UNL     1      29.519  -1.924  53.359  1.00  0.00     0.210 C 
ENDBRANCH   8  12
ENDBRANCH   3   5
ENDBRANCH   1   3
BRANCH   1  14
HETATM   14  C6  UNL     1      23.665   3.688  51.182  1.00  0.00     0.254 C 
BRANCH  14  15
HETATM   15  N3  UNL     1      22.924   4.887  51.404  1.00  0.00    -0.174 NA
HETATM   16  N4  UNL     1      22.828   5.492  52.481  1.00  0.00    -0.207 NA
HETATM   17  H9  UNL     1      22.250   6.357  52.486  1.00  0.00     0.211 HD
ENDBRANCH  14  15
BRANCH  14  18
HETATM   18  C7  UNL     1      22.898   2.450  51.345  1.00  0.00    -0.014 A 
HETATM   19  C8  UNL     1      22.254   1.726  50.366  1.00  0.00     0.011 A 
HETATM   20  C9  UNL     1      21.553   0.570  50.608  1.00  0.00     0.004 A 
HETATM   21  C10 UNL     1      21.520   0.145  51.938  1.00  0.00     0.042 A 
HETATM   22  C11 UNL     1      22.147   0.829  52.961  1.00  0.00     0.117 A 
HETATM   23  F1  UNL     1      22.044   0.318  54.203  1.00  0.00    -0.206 F 
HETATM   24  C12 UNL     1      22.847   1.999  52.663  1.00  0.00     0.053 A 
ENDBRANCH  14  18
ENDBRANCH   1  14
TORSDOF 6
ENDMDL
MODEL 8
REMARK VINA RESULT:      -7.1      2.805      3.564
REMARK  6 active torsions:
REMARK  status: ('A' for Active; 'I' for Inactive)
REMARK    1  A    between atoms: O1_2  and  C2_3 
REMARK    2  A    between atoms: C5_6  and  N1_7 
REMARK    3  A    between atoms: N1_7  and  N2_8 
REMARK    4  A    between atoms: N2_8  and  C6_9 
REMARK    5  A    between atoms: C6_9  and  N3_10 
REMARK    6  A    between atoms: C6_9  and  C7_12 
ROOT
HETATM    1  N2  UNL     1      25.063  -0.306  52.864  1.00  0.00    -0.209 NA
HETATM    2  H7  UNL     1      25.511   0.326  52.172  1.00  0.00     0.149 HD
ENDROOT
BRANCH   1   3
HETATM    3  N1  UNL     1      23.890   0.192  53.410  1.00  0.00    -0.319 N 
HETATM    4  H6  UNL     1      23.266  -0.285  54.095  1.00  0.00     0.181 HD
BRANCH   3   5
HETATM    5  C5  UNL     1      23.442   1.493  53.026  1.00  0.00     0.044 A 
HETATM    6  C4  UNL     1      24.235   2.624  52.988  1.00  0.00     0.033 A 
HETATM    7  C3  UNL     1      23.735   3.851  52.607  1.00  0.00     0.041 A 
HETATM    8  C2  UNL     1      22.418   4.006  52.245  1.00  0.00     0.090 A 
HETATM    9  C14 UNL     1      21.586   2.918  52.264  1.00  0.00     0.069 A 
HETATM   10  C13 UNL     1      22.115   1.702  52.650  1.00  0.00     0.057 A 
HETATM   11 CL1  UNL     1      19.905   3.000  51.825  1.00  0.00    -0.081 Cl
BRANCH   8  12
HETATM   12  O1  UNL     1      21.825   5.198  51.848  1.00  0.00    -0.354 OA
HETATM   13  C1  UNL     1      22.434   6.091  50.931  1.00  0.00     0.210 C 
ENDBRANCH   8  12
ENDBRANCH   3   5
ENDBRANCH   1   3
BRANCH   1  14
HETATM   14  C6  UNL     1      25.959  -0.877  53.828  1.00  0.00     0.254 C 
BRANCH  14  15
HETATM   15  N3  UNL     1      25.373  -0.695  55.116  1.00  0.00    -0.174 NA
HETATM   16  N4  UNL     1      24.926  -1.592  55.844  1.00  0.00    -0.207 NA
HETATM   17  H9  UNL     1      24.528  -1.302  56.761  1.00  0.00     0.211 HD
ENDBRANCH  14  15
BRANCH  14  18
HETATM   18  C7  UNL     1      27.349  -0.429  53.714  1.00  0.00    -0.014 A 
HETATM   19  C8  UNL     1      28.470  -1.208  53.531  1.00  0.00     0.011 A 
HETATM   20  C9  UNL     1      29.743  -0.702  53.435  1.00  0.00     0.004 A 
HETATM   21  C10 UNL     1      29.857   0.686  53.533  1.00  0.00     0.042 A 
HETATM   22  C11 UNL     1      28.769   1.518  53.716  1.00  0.00     0.117 A 
HETATM   23  F1  UNL     1      29.005   2.841  53.796  1.00  0.00    -0.206 F 
HETATM   24  C12 UNL     1      27.495   0.955  53.808  1.00  0.00     0.053 A 
ENDBRANCH  14  18
ENDBRANCH   1  14
TORSDOF 6
ENDMDL
MODEL 9
REMARK VINA RESULT:      -7.1      2.660      3.388
REMARK  6 active torsions:
REMARK  status: ('A' for Active; 'I' for Inactive)
REMARK    1  A    between atoms: O1_2  and  C2_3 
REMARK    2  A    between atoms: C5_6  and  N1_7 
REMARK    3  A    between atoms: N1_7  and  N2_8 
REMARK    4  A    between atoms: N2_8  and  C6_9 
REMARK    5  A    between atoms: C6_9  and  N3_10 
REMARK    6  A    between atoms: C6_9  and  C7_12 
ROOT
HETATM    1  N2  UNL     1      25.189  -0.252  52.892  1.00  0.00    -0.209 NA
HETATM    2  H7  UNL     1      25.695   0.283  52.159  1.00  0.00     0.149 HD
ENDROOT
BRANCH   1   3
HETATM    3  N1  UNL     1      24.109   0.420  53.440  1.00  0.00    -0.319 N 
HETATM    4  H6  UNL     1      24.081   0.922  54.353  1.00  0.00     0.181 HD
BRANCH   3   5
HETATM    5  C5  UNL     1      22.877   0.462  52.719  1.00  0.00     0.044 A 
HETATM    6  C4  UNL     1      22.704   1.052  51.480  1.00  0.00     0.033 A 
HETATM    7  C3  UNL     1      21.484   1.055  50.840  1.00  0.00     0.041 A 
HETATM    8  C2  UNL     1      20.377   0.469  51.406  1.00  0.00     0.090 A 
HETATM    9  C14 UNL     1      20.490  -0.131  52.632  1.00  0.00     0.069 A 
HETATM   10  C13 UNL     1      21.725  -0.119  53.249  1.00  0.00     0.057 A 
HETATM   11 CL1  UNL     1      19.156  -0.903  53.439  1.00  0.00    -0.081 Cl
BRANCH   8  12
HETATM   12  O1  UNL     1      19.110   0.422  50.838  1.00  0.00    -0.354 OA
HETATM   13  C1  UNL     1      18.229   1.533  50.832  1.00  0.00     0.210 C 
ENDBRANCH   8  12
ENDBRANCH   3   5
ENDBRANCH   1   3
BRANCH   1  14
HETATM   14  C6  UNL     1      26.031  -0.892  53.861  1.00  0.00     0.254 C 
BRANCH  14  15
HETATM   15  N3  UNL     1      25.453  -0.666  55.145  1.00  0.00    -0.174 NA
HETATM   16  N4  UNL     1      24.790  -1.484  55.797  1.00  0.00    -0.207 NA
HETATM   17  H9  UNL     1      24.433  -1.171  56.724  1.00  0.00     0.211 HD
ENDBRANCH  14  15
BRANCH  14  18
HETATM   18  C7  UNL     1      27.453  -0.554  53.756  1.00  0.00    -0.014 A 
HETATM   19  C8  UNL     1      28.482  -1.372  53.345  1.00  0.00     0.011 A 
HETATM   20  C9  UNL     1      29.794  -0.972  53.277  1.00  0.00     0.004 A 
HETATM   21  C10 UNL     1      30.049   0.348  53.656  1.00  0.00     0.042 A 
HETATM   22  C11 UNL     1      29.058   1.214  54.077  1.00  0.00     0.117 A 
HETATM   23  F1  UNL     1      29.428   2.463  54.416  1.00  0.00    -0.206 F 
HETATM   24  C12 UNL     1      27.740   0.758  54.129  1.00  0.00     0.053 A 
ENDBRANCH  14  18
ENDBRANCH   1  14
TORSDOF 6
ENDMDL
