MODEL 1
REMARK VINA RESULT:      -7.0      0.000      0.000
REMARK  5 active torsions:
REMARK  status: ('A' for Active; 'I' for Inactive)
REMARK    1  A    between atoms: C4_4  and  N1_5 
REMARK    2  A    between atoms: C4_4  and  C5_6 
REMARK    3  A    between atoms: C5_6  and  C6_7 
REMARK    4  A    between atoms: C7_8  and  C8_9 
REMARK    5  A    between atoms: C15_19  and  C16_20 
ROOT
HETATM    1  C1  UNL     1      30.045  -1.424  53.739  1.00  0.00     0.017 C 
HETATM    2  C2  UNL     1      29.541  -0.203  53.799  1.00  0.00    -0.087 C 
HETATM    3  C3  UNL     1      29.047   0.954  53.836  1.00  0.00     0.092 C 
HETATM    4  C4  UNL     1      27.716   0.892  53.919  1.00  0.00     0.033 C 
ENDROOT
BRANCH   4   5
HETATM    5  N1  UNL     1      27.547  -0.568  53.951  1.00  0.00    -0.399 N 
HETATM    6  H3  UNL     1      28.294  -1.076  53.454  1.00  0.00     0.156 HD
HETATM    7  H4  UNL     1      27.070  -1.437  54.226  1.00  0.00     0.156 HD
ENDBRANCH   4   5
BRANCH   4   8
HETATM    8  C5  UNL     1      26.466   1.431  53.731  1.00  0.00     0.025 C 
BRANCH   8   9
HETATM    9  C6  UNL     1      25.324   2.051  53.541  1.00  0.00    -0.023 C 
HETATM   10  C7  UNL     1      24.339   1.660  52.616  1.00  0.00     0.042 C 
BRANCH  10  11
HETATM   11  C8  UNL     1      24.203   2.582  51.319  1.00  0.00     0.003 A 
HETATM   12  C9  UNL     1      23.003   2.818  50.818  1.00  0.00    -0.002 A 
HETATM   13  C10 UNL     1      23.768   3.461  49.755  1.00  0.00    -0.017 A 
HETATM   14  N2  UNL     1      24.961   3.314  50.146  1.00  0.00     0.000 N 
HETATM   15  C14 UNL     1      23.050   3.910  48.497  1.00  0.00    -0.023 C 
HETATM   16  C11 UNL     1      26.348   3.537  49.899  1.00  0.00     0.007 A 
HETATM   17  O1  UNL     1      25.528   4.158  49.307  1.00  0.00     0.000 OA
HETATM   18  C12 UNL     1      25.337   3.081  50.577  1.00  0.00    -0.004 A 
HETATM   19  C13 UNL     1      25.179   5.651  49.437  1.00  0.00     0.041 C 
HETATM   20  P1  UNL     1      23.520   5.765  48.529  1.00  0.00    -0.093 P 
HETATM   21  H13 UNL     1      23.971   5.981  47.104  1.00  0.00     0.062 HD
HETATM   22  C15 UNL     1      22.375   3.454  47.449  1.00  0.00     0.011 C 
BRANCH  22  23
HETATM   23  C16 UNL     1      21.984   4.604  46.632  1.00  0.00     0.014 C 
HETATM   24  C17 UNL     1      21.847   4.418  45.320  1.00  0.00     0.230 C 
HETATM   25  F1  UNL     1      22.181   3.182  45.635  1.00  0.00    -0.242 F 
ENDBRANCH  22  23
ENDBRANCH  10  11
ENDBRANCH   8   9
ENDBRANCH   4   8
TORSDOF 5
ENDMDL
MODEL 2
REMARK VINA RESULT:      -7.0      2.630      3.335
REMARK  5 active torsions:
REMARK  status: ('A' for Active; 'I' for Inactive)
REMARK    1  A    between atoms: C4_4  and  N1_5 
REMARK    2  A    between atoms: C4_4  and  C5_6 
REMARK    3  A    between atoms: C5_6  and  C6_7 
REMARK    4  A    between atoms: C7_8  and  C8_9 
REMARK    5  A    between atoms: C15_19  and  C16_20 
ROOT
HETATM    1  C1  UNL     1      30.050  -0.790  53.754  1.00  0.00     0.017 C 
HETATM    2  C2  UNL     1      28.831  -1.071  53.323  1.00  0.00    -0.087 C 
HETATM    3  C3  UNL     1      27.662  -1.324  52.932  1.00  0.00     0.092 C 
HETATM    4  C4  UNL     1      26.984  -0.194  52.721  1.00  0.00     0.033 C 
ENDROOT
BRANCH   4   5
HETATM    5  N1  UNL     1      28.034   0.779  53.051  1.00  0.00    -0.399 N 
HETATM    6  H3  UNL     1      28.985   0.385  53.002  1.00  0.00     0.156 HD
HETATM    7  H4  UNL     1      28.380   1.713  53.312  1.00  0.00     0.156 HD
ENDBRANCH   4   5
BRANCH   4   8
HETATM    8  C5  UNL     1      25.807   0.510  52.623  1.00  0.00     0.025 C 
BRANCH   8   9
HETATM    9  C6  UNL     1      24.749   1.280  52.521  1.00  0.00    -0.023 C 
HETATM   10  C7  UNL     1      24.067   1.557  51.322  1.00  0.00     0.042 C 
BRANCH  10  11
HETATM   11  C8  UNL     1      24.274   3.028  50.733  1.00  0.00     0.003 A 
HETATM   12  C9  UNL     1      24.929   3.180  49.596  1.00  0.00    -0.002 A 
HETATM   13  C10 UNL     1      24.797   4.597  49.916  1.00  0.00    -0.017 A 
HETATM   14  N2  UNL     1      24.151   4.576  51.001  1.00  0.00     0.000 N 
HETATM   15  C14 UNL     1      25.552   5.615  49.082  1.00  0.00    -0.023 C 
HETATM   16  C11 UNL     1      23.550   5.316  52.062  1.00  0.00     0.007 A 
HETATM   17  O1  UNL     1      23.834   5.855  51.045  1.00  0.00     0.000 OA
HETATM   18  C12 UNL     1      23.889   4.227  51.439  1.00  0.00    -0.004 A 
HETATM   19  C13 UNL     1      22.896   6.405  49.957  1.00  0.00     0.041 C 
HETATM   20  P1  UNL     1      24.073   6.681  48.498  1.00  0.00    -0.093 P 
HETATM   21  H13 UNL     1      24.582   8.074  48.782  1.00  0.00     0.062 HD
HETATM   22  C15 UNL     1      26.776   6.016  48.761  1.00  0.00     0.011 C 
BRANCH  22  23
HETATM   23  C16 UNL     1      26.652   7.138  47.830  1.00  0.00     0.014 C 
HETATM   24  C17 UNL     1      27.769   7.754  47.445  1.00  0.00     0.230 C 
HETATM   25  F1  UNL     1      28.331   6.855  48.230  1.00  0.00    -0.242 F 
ENDBRANCH  22  23
ENDBRANCH  10  11
ENDBRANCH   8   9
ENDBRANCH   4   8
TORSDOF 5
ENDMDL
MODEL 3
REMARK VINA RESULT:      -6.9      1.732      1.938
REMARK  5 active torsions:
REMARK  status: ('A' for Active; 'I' for Inactive)
REMARK    1  A    between atoms: C4_4  and  N1_5 
REMARK    2  A    between atoms: C4_4  and  C5_6 
REMARK    3  A    between atoms: C5_6  and  C6_7 
REMARK    4  A    between atoms: C7_8  and  C8_9 
REMARK    5  A    between atoms: C15_19  and  C16_20 
ROOT
HETATM    1  C1  UNL     1      30.058  -0.884  53.774  1.00  0.00     0.017 C 
HETATM    2  C2  UNL     1      28.859  -1.209  53.318  1.00  0.00    -0.087 C 
HETATM    3  C3  UNL     1      27.709  -1.511  52.906  1.00  0.00     0.092 C 
HETATM    4  C4  UNL     1      26.881  -0.472  53.027  1.00  0.00     0.033 C 
ENDROOT
BRANCH   4   5
HETATM    5  N1  UNL     1      27.818   0.517  53.579  1.00  0.00    -0.399 N 
HETATM    6  H3  UNL     1      28.806   0.238  53.486  1.00  0.00     0.156 HD
HETATM    7  H4  UNL     1      28.060   1.410  54.029  1.00  0.00     0.156 HD
ENDBRANCH   4   5
BRANCH   4   8
HETATM    8  C5  UNL     1      25.620   0.062  53.157  1.00  0.00     0.025 C 
BRANCH   8   9
HETATM    9  C6  UNL     1      24.468   0.667  53.325  1.00  0.00    -0.023 C 
HETATM   10  C7  UNL     1      23.311   0.424  52.563  1.00  0.00     0.042 C 
BRANCH  10  11
HETATM   11  C8  UNL     1      22.915   1.568  51.520  1.00  0.00     0.003 A 
HETATM   12  C9  UNL     1      22.125   1.270  50.505  1.00  0.00    -0.002 A 
HETATM   13  C10 UNL     1      22.436   2.635  50.092  1.00  0.00    -0.017 A 
HETATM   14  N2  UNL     1      23.189   3.039  51.024  1.00  0.00     0.000 N 
HETATM   15  C14 UNL     1      22.004   3.106  48.717  1.00  0.00    -0.023 C 
HETATM   16  C11 UNL     1      23.972   4.100  51.567  1.00  0.00     0.007 A 
HETATM   17  O1  UNL     1      23.168   4.322  50.724  1.00  0.00     0.000 OA
HETATM   18  C12 UNL     1      23.476   2.898  51.552  1.00  0.00    -0.004 A 
HETATM   19  C13 UNL     1      21.830   5.073  50.850  1.00  0.00     0.041 C 
HETATM   20  P1  UNL     1      20.949   4.617  49.235  1.00  0.00    -0.093 P 
HETATM   21  H13 UNL     1      21.471   5.678  48.297  1.00  0.00     0.062 HD
HETATM   22  C15 UNL     1      22.196   2.894  47.421  1.00  0.00     0.011 C 
BRANCH  22  23
HETATM   23  C16 UNL     1      21.342   3.825  46.681  1.00  0.00     0.014 C 
HETATM   24  C17 UNL     1      21.523   3.923  45.365  1.00  0.00     0.230 C 
HETATM   25  F1  UNL     1      22.450   3.015  45.598  1.00  0.00    -0.242 F 
ENDBRANCH  22  23
ENDBRANCH  10  11
ENDBRANCH   8   9
ENDBRANCH   4   8
TORSDOF 5
ENDMDL
MODEL 4
REMARK VINA RESULT:      -6.8      3.044      3.727
REMARK  5 active torsions:
REMARK  status: ('A' for Active; 'I' for Inactive)
REMARK    1  A    between atoms: C4_4  and  N1_5 
REMARK    2  A    between atoms: C4_4  and  C5_6 
REMARK    3  A    between atoms: C5_6  and  C6_7 
REMARK    4  A    between atoms: C7_8  and  C8_9 
REMARK    5  A    between atoms: C15_19  and  C16_20 
ROOT
HETATM    1  C1  UNL     1      29.618  -1.300  53.509  1.00  0.00     0.017 C 
HETATM    2  C2  UNL     1      28.696  -0.529  54.062  1.00  0.00    -0.087 C 
HETATM    3  C3  UNL     1      27.809   0.208  54.564  1.00  0.00     0.092 C 
HETATM    4  C4  UNL     1      26.592  -0.233  54.234  1.00  0.00     0.033 C 
ENDROOT
BRANCH   4   5
HETATM    5  N1  UNL     1      26.972  -1.413  53.446  1.00  0.00    -0.399 N 
HETATM    6  H3  UNL     1      27.578  -1.189  52.643  1.00  0.00     0.156 HD
HETATM    7  H4  UNL     1      26.984  -2.421  53.238  1.00  0.00     0.156 HD
ENDBRANCH   4   5
BRANCH   4   8
HETATM    8  C5  UNL     1      25.248  -0.031  54.024  1.00  0.00     0.025 C 
BRANCH   8   9
HETATM    9  C6  UNL     1      23.977   0.100  53.724  1.00  0.00    -0.023 C 
HETATM   10  C7  UNL     1      23.453   0.104  52.419  1.00  0.00     0.042 C 
BRANCH  10  11
HETATM   11  C8  UNL     1      22.963   1.524  51.874  1.00  0.00     0.003 A 
HETATM   12  C9  UNL     1      23.800   2.271  51.177  1.00  0.00    -0.002 A 
HETATM   13  C10 UNL     1      22.724   3.252  51.272  1.00  0.00    -0.017 A 
HETATM   14  N2  UNL     1      21.836   2.625  51.918  1.00  0.00     0.000 N 
HETATM   15  C14 UNL     1      22.980   4.674  50.813  1.00  0.00    -0.023 C 
HETATM   16  C11 UNL     1      20.533   2.636  52.497  1.00  0.00     0.007 A 
HETATM   17  O1  UNL     1      20.836   3.455  51.695  1.00  0.00     0.000 OA
HETATM   18  C12 UNL     1      21.682   2.101  52.207  1.00  0.00    -0.004 A 
HETATM   19  C13 UNL     1      20.334   3.611  50.249  1.00  0.00     0.041 C 
HETATM   20  P1  UNL     1      21.588   4.824  49.508  1.00  0.00    -0.093 P 
HETATM   21  H13 UNL     1      20.976   6.153  49.878  1.00  0.00     0.062 HD
HETATM   22  C15 UNL     1      23.705   5.754  51.080  1.00  0.00     0.011 C 
BRANCH  22  23
HETATM   23  C16 UNL     1      23.344   6.788  50.108  1.00  0.00     0.014 C 
HETATM   24  C17 UNL     1      23.635   8.053  50.410  1.00  0.00     0.230 C 
HETATM   25  F1  UNL     1      24.120   7.501  51.504  1.00  0.00    -0.242 F 
ENDBRANCH  22  23
ENDBRANCH  10  11
ENDBRANCH   8   9
ENDBRANCH   4   8
TORSDOF 5
ENDMDL
MODEL 5
REMARK VINA RESULT:      -6.8      4.296      6.022
REMARK  5 active torsions:
REMARK  status: ('A' for Active; 'I' for Inactive)
REMARK    1  A    between atoms: C4_4  and  N1_5 
REMARK    2  A    between atoms: C4_4  and  C5_6 
REMARK    3  A    between atoms: C5_6  and  C6_7 
REMARK    4  A    between atoms: C7_8  and  C8_9 
REMARK    5  A    between atoms: C15_19  and  C16_20 
ROOT
HETATM    1  C1  UNL     1      26.339   0.604  54.788  1.00  0.00     0.017 C 
HETATM    2  C2  UNL     1      26.837   0.780  53.575  1.00  0.00    -0.087 C 
HETATM    3  C3  UNL     1      27.286   0.949  52.412  1.00  0.00     0.092 C 
HETATM    4  C4  UNL     1      26.782   2.061  51.872  1.00  0.00     0.033 C 
ENDROOT
BRANCH   4   5
HETATM    5  N1  UNL     1      25.957   2.519  52.999  1.00  0.00    -0.399 N 
HETATM    6  H3  UNL     1      25.202   1.862  53.244  1.00  0.00     0.156 HD
HETATM    7  H4  UNL     1      25.699   3.176  53.748  1.00  0.00     0.156 HD
ENDBRANCH   4   5
BRANCH   4   8
HETATM    8  C5  UNL     1      26.431   2.827  50.786  1.00  0.00     0.025 C 
BRANCH   8   9
HETATM    9  C6  UNL     1      26.128   3.468  49.681  1.00  0.00    -0.023 C 
HETATM   10  C7  UNL     1      27.050   4.146  48.864  1.00  0.00     0.042 C 
BRANCH  10  11
HETATM   11  C8  UNL     1      26.987   5.741  48.925  1.00  0.00     0.003 A 
HETATM   12  C9  UNL     1      27.928   6.447  48.325  1.00  0.00    -0.002 A 
HETATM   13  C10 UNL     1      27.253   7.567  48.973  1.00  0.00    -0.017 A 
HETATM   14  N2  UNL     1      26.297   7.001  49.575  1.00  0.00     0.000 N 
HETATM   15  C14 UNL     1      27.900   8.938  48.941  1.00  0.00    -0.023 C 
HETATM   16  C11 UNL     1      25.152   7.135  50.415  1.00  0.00     0.007 A 
HETATM   17  O1  UNL     1      25.604   8.084  49.866  1.00  0.00     0.000 OA
HETATM   18  C12 UNL     1      26.017   6.467  49.712  1.00  0.00    -0.004 A 
HETATM   19  C13 UNL     1      25.005   8.892  48.702  1.00  0.00     0.041 C 
HETATM   20  P1  UNL     1      26.482   9.920  48.111  1.00  0.00    -0.093 P 
HETATM   21  H13 UNL     1      26.390  11.127  49.014  1.00  0.00     0.062 HD
HETATM   22  C15 UNL     1      28.966   9.611  49.358  1.00  0.00     0.011 C 
BRANCH  22  23
HETATM   23  C16 UNL     1      28.845  10.988  48.875  1.00  0.00     0.014 C 
HETATM   24  C17 UNL     1      29.940  11.746  48.878  1.00  0.00     0.230 C 
HETATM   25  F1  UNL     1      30.491  10.649  49.358  1.00  0.00    -0.242 F 
ENDBRANCH  22  23
ENDBRANCH  10  11
ENDBRANCH   8   9
ENDBRANCH   4   8
TORSDOF 5
ENDMDL
MODEL 6
REMARK VINA RESULT:      -6.6      4.191      6.720
REMARK  5 active torsions:
REMARK  status: ('A' for Active; 'I' for Inactive)
REMARK    1  A    between atoms: C4_4  and  N1_5 
REMARK    2  A    between atoms: C4_4  and  C5_6 
REMARK    3  A    between atoms: C5_6  and  C6_7 
REMARK    4  A    between atoms: C7_8  and  C8_9 
REMARK    5  A    between atoms: C15_19  and  C16_20 
ROOT
HETATM    1  C1  UNL     1      29.792   5.753  48.168  1.00  0.00     0.017 C 
HETATM    2  C2  UNL     1      28.617   6.361  48.142  1.00  0.00    -0.087 C 
HETATM    3  C3  UNL     1      27.490   6.919  48.105  1.00  0.00     0.092 C 
HETATM    4  C4  UNL     1      26.571   6.157  48.705  1.00  0.00     0.033 C 
ENDROOT
BRANCH   4   5
HETATM    5  N1  UNL     1      27.427   5.039  49.125  1.00  0.00    -0.399 N 
HETATM    6  H3  UNL     1      27.163   4.645  50.040  1.00  0.00     0.156 HD
HETATM    7  H4  UNL     1      28.195   4.365  49.000  1.00  0.00     0.156 HD
ENDBRANCH   4   5
BRANCH   4   8
HETATM    8  C5  UNL     1      25.270   5.755  48.895  1.00  0.00     0.025 C 
BRANCH   8   9
HETATM    9  C6  UNL     1      24.035   5.319  48.972  1.00  0.00    -0.023 C 
HETATM   10  C7  UNL     1      23.271   5.266  50.152  1.00  0.00     0.042 C 
BRANCH  10  11
HETATM   11  C8  UNL     1      23.035   3.806  50.758  1.00  0.00     0.003 A 
HETATM   12  C9  UNL     1      23.317   3.583  52.029  1.00  0.00    -0.002 A 
HETATM   13  C10 UNL     1      23.019   2.201  51.669  1.00  0.00    -0.017 A 
HETATM   14  N2  UNL     1      22.708   2.296  50.447  1.00  0.00     0.000 N 
HETATM   15  C14 UNL     1      23.318   1.098  52.665  1.00  0.00    -0.023 C 
HETATM   16  C11 UNL     1      22.294   1.635  49.253  1.00  0.00     0.007 A 
HETATM   17  O1  UNL     1      22.186   1.094  50.303  1.00  0.00     0.000 OA
HETATM   18  C12 UNL     1      22.644   2.669  49.959  1.00  0.00    -0.004 A 
HETATM   19  C13 UNL     1      20.902   0.765  51.085  1.00  0.00     0.041 C 
HETATM   20  P1  UNL     1      21.566   0.338  52.807  1.00  0.00    -0.093 P 
HETATM   21  H13 UNL     1      21.869  -1.133  52.658  1.00  0.00     0.062 HD
HETATM   22  C15 UNL     1      24.313   0.496  53.305  1.00  0.00     0.011 C 
BRANCH  22  23
HETATM   23  C16 UNL     1      23.736  -0.548  54.153  1.00  0.00     0.014 C 
HETATM   24  C17 UNL     1      24.538  -1.153  55.028  1.00  0.00     0.230 C 
HETATM   25  F1  UNL     1      25.432  -0.329  54.518  1.00  0.00    -0.242 F 
ENDBRANCH  22  23
ENDBRANCH  10  11
ENDBRANCH   8   9
ENDBRANCH   4   8
TORSDOF 5
ENDMDL
MODEL 7
REMARK VINA RESULT:      -6.4      5.410      7.429
REMARK  5 active torsions:
REMARK  status: ('A' for Active; 'I' for Inactive)
REMARK    1  A    between atoms: C4_4  and  N1_5 
REMARK    2  A    between atoms: C4_4  and  C5_6 
REMARK    3  A    between atoms: C5_6  and  C6_7 
REMARK    4  A    between atoms: C7_8  and  C8_9 
REMARK    5  A    between atoms: C15_19  and  C16_20 
ROOT
HETATM    1  C1  UNL     1      15.122  -3.097  52.545  1.00  0.00     0.017 C 
HETATM    2  C2  UNL     1      16.303  -3.356  53.080  1.00  0.00    -0.087 C 
HETATM    3  C3  UNL     1      17.438  -3.592  53.570  1.00  0.00     0.092 C 
HETATM    4  C4  UNL     1      18.126  -2.458  53.725  1.00  0.00     0.033 C 
ENDROOT
BRANCH   4   5
HETATM    5  N1  UNL     1      17.120  -1.502  53.239  1.00  0.00    -0.399 N 
HETATM    6  H3  UNL     1      16.774  -1.721  52.293  1.00  0.00     0.156 HD
HETATM    7  H4  UNL     1      16.510  -0.678  53.327  1.00  0.00     0.156 HD
ENDBRANCH   4   5
BRANCH   4   8
HETATM    8  C5  UNL     1      19.308  -1.766  53.839  1.00  0.00     0.025 C 
BRANCH   8   9
HETATM    9  C6  UNL     1      20.477  -1.195  54.012  1.00  0.00    -0.023 C 
HETATM   10  C7  UNL     1      20.675   0.173  54.274  1.00  0.00     0.042 C 
BRANCH  10  11
HETATM   11  C8  UNL     1      21.268   1.031  53.064  1.00  0.00     0.003 A 
HETATM   12  C9  UNL     1      22.436   0.694  52.547  1.00  0.00    -0.002 A 
HETATM   13  C10 UNL     1      22.256   1.929  51.789  1.00  0.00    -0.017 A 
HETATM   14  N2  UNL     1      21.132   2.339  52.195  1.00  0.00     0.000 N 
HETATM   15  C14 UNL     1      23.409   2.459  50.959  1.00  0.00    -0.023 C 
HETATM   16  C11 UNL     1      20.114   3.335  52.123  1.00  0.00     0.007 A 
HETATM   17  O1  UNL     1      20.933   3.256  51.269  1.00  0.00     0.000 OA
HETATM   18  C12 UNL     1      20.654   2.243  52.574  1.00  0.00    -0.004 A 
HETATM   19  C13 UNL     1      20.758   2.788  49.814  1.00  0.00     0.041 C 
HETATM   20  P1  UNL     1      22.547   2.517  49.251  1.00  0.00    -0.093 P 
HETATM   21  H13 UNL     1      22.926   3.898  48.775  1.00  0.00     0.062 HD
HETATM   22  C15 UNL     1      24.641   2.943  51.054  1.00  0.00     0.011 C 
BRANCH  22  23
HETATM   23  C16 UNL     1      25.112   3.242  49.700  1.00  0.00     0.014 C 
HETATM   24  C17 UNL     1      26.383   3.612  49.551  1.00  0.00     0.230 C 
HETATM   25  F1  UNL     1      26.406   3.446  50.858  1.00  0.00    -0.242 F 
ENDBRANCH  22  23
ENDBRANCH  10  11
ENDBRANCH   8   9
ENDBRANCH   4   8
TORSDOF 5
ENDMDL
MODEL 8
REMARK VINA RESULT:      -6.4      4.075      5.072
REMARK  5 active torsions:
REMARK  status: ('A' for Active; 'I' for Inactive)
REMARK    1  A    between atoms: C4_4  and  N1_5 
REMARK    2  A    between atoms: C4_4  and  C5_6 
REMARK    3  A    between atoms: C5_6  and  C6_7 
REMARK    4  A    between atoms: C7_8  and  C8_9 
REMARK    5  A    between atoms: C15_19  and  C16_20 
ROOT
HETATM    1  C1  UNL     1      21.695  -1.987  54.677  1.00  0.00     0.017 C 
HETATM    2  C2  UNL     1      22.343  -1.116  53.922  1.00  0.00    -0.087 C 
HETATM    3  C3  UNL     1      22.942  -0.289  53.187  1.00  0.00     0.092 C 
HETATM    4  C4  UNL     1      22.146   0.743  52.899  1.00  0.00     0.033 C 
ENDROOT
BRANCH   4   5
HETATM    5  N1  UNL     1      20.953   0.343  53.659  1.00  0.00    -0.399 N 
HETATM    6  H3  UNL     1      20.230   1.076  53.697  1.00  0.00     0.156 HD
HETATM    7  H4  UNL     1      20.385  -0.317  54.206  1.00  0.00     0.156 HD
ENDBRANCH   4   5
BRANCH   4   8
HETATM    8  C5  UNL     1      21.771   1.794  52.096  1.00  0.00     0.025 C 
BRANCH   8   9
HETATM    9  C6  UNL     1      21.527   2.823  51.318  1.00  0.00    -0.023 C 
HETATM   10  C7  UNL     1      22.048   2.995  50.022  1.00  0.00     0.042 C 
BRANCH  10  11
HETATM   11  C8  UNL     1      23.191   4.102  49.877  1.00  0.00     0.003 A 
HETATM   12  C9  UNL     1      23.952   4.105  48.797  1.00  0.00    -0.002 A 
HETATM   13  C10 UNL     1      24.672   5.144  49.525  1.00  0.00    -0.017 A 
HETATM   14  N2  UNL     1      24.005   5.246  50.593  1.00  0.00     0.000 N 
HETATM   15  C14 UNL     1      25.998   5.641  48.982  1.00  0.00    -0.023 C 
HETATM   16  C11 UNL     1      23.843   5.884  51.858  1.00  0.00     0.007 A 
HETATM   17  O1  UNL     1      24.536   6.372  51.028  1.00  0.00     0.000 OA
HETATM   18  C12 UNL     1      23.527   5.037  50.925  1.00  0.00    -0.004 A 
HETATM   19  C13 UNL     1      24.292   7.650  50.206  1.00  0.00     0.041 C 
HETATM   20  P1  UNL     1      25.581   7.502  48.825  1.00  0.00    -0.093 P 
HETATM   21  H13 UNL     1      26.790   8.133  49.472  1.00  0.00     0.062 HD
HETATM   22  C15 UNL     1      27.241   5.255  48.720  1.00  0.00     0.011 C 
BRANCH  22  23
HETATM   23  C16 UNL     1      27.961   6.404  48.166  1.00  0.00     0.014 C 
HETATM   24  C17 UNL     1      29.243   6.239  47.845  1.00  0.00     0.230 C 
HETATM   25  F1  UNL     1      29.014   5.012  48.271  1.00  0.00    -0.242 F 
ENDBRANCH  22  23
ENDBRANCH  10  11
ENDBRANCH   8   9
ENDBRANCH   4   8
TORSDOF 5
ENDMDL
MODEL 9
REMARK VINA RESULT:      -6.4      5.076      6.924
REMARK  5 active torsions:
REMARK  status: ('A' for Active; 'I' for Inactive)
REMARK    1  A    between atoms: C4_4  and  N1_5 
REMARK    2  A    between atoms: C4_4  and  C5_6 
REMARK    3  A    between atoms: C5_6  and  C6_7 
REMARK    4  A    between atoms: C7_8  and  C8_9 
REMARK    5  A    between atoms: C15_19  and  C16_20 
ROOT
HETATM    1  C1  UNL     1      15.266  -2.737  52.257  1.00  0.00     0.017 C 
HETATM    2  C2  UNL     1      16.286  -3.117  53.008  1.00  0.00    -0.087 C 
HETATM    3  C3  UNL     1      17.272  -3.474  53.703  1.00  0.00     0.092 C 
HETATM    4  C4  UNL     1      18.188  -2.503  53.750  1.00  0.00     0.033 C 
ENDROOT
BRANCH   4   5
HETATM    5  N1  UNL     1      17.497  -1.486  52.945  1.00  0.00    -0.399 N 
HETATM    6  H3  UNL     1      18.041  -0.618  52.831  1.00  0.00     0.156 HD
HETATM    7  H4  UNL     1      16.718  -1.132  52.373  1.00  0.00     0.156 HD
ENDBRANCH   4   5
BRANCH   4   8
HETATM    8  C5  UNL     1      19.481  -2.067  53.916  1.00  0.00     0.025 C 
BRANCH   8   9
HETATM    9  C6  UNL     1      20.693  -1.644  54.189  1.00  0.00    -0.023 C 
HETATM   10  C7  UNL     1      21.029  -0.317  54.512  1.00  0.00     0.042 C 
BRANCH  10  11
HETATM   11  C8  UNL     1      21.804   0.496  53.376  1.00  0.00     0.003 A 
HETATM   12  C9  UNL     1      21.110   1.198  52.498  1.00  0.00    -0.002 A 
HETATM   13  C10 UNL     1      22.418   1.385  51.879  1.00  0.00    -0.017 A 
HETATM   14  N2  UNL     1      23.186   0.759  52.664  1.00  0.00     0.000 N 
HETATM   15  C14 UNL     1      22.500   2.026  50.507  1.00  0.00    -0.023 C 
HETATM   16  C11 UNL     1      24.515   0.346  52.977  1.00  0.00     0.007 A 
HETATM   17  O1  UNL     1      24.329   1.225  52.202  1.00  0.00     0.000 OA
HETATM   18  C12 UNL     1      23.231   0.412  53.173  1.00  0.00    -0.004 A 
HETATM   19  C13 UNL     1      24.619   2.727  52.369  1.00  0.00     0.041 C 
HETATM   20  P1  UNL     1      23.653   3.494  50.931  1.00  0.00    -0.093 P 
HETATM   21  H13 UNL     1      24.662   3.411  49.812  1.00  0.00     0.062 HD
HETATM   22  C15 UNL     1      22.157   1.847  49.238  1.00  0.00     0.011 C 
BRANCH  22  23
HETATM   23  C16 UNL     1      22.633   3.004  48.476  1.00  0.00     0.014 C 
HETATM   24  C17 UNL     1      22.392   3.029  47.167  1.00  0.00     0.230 C 
HETATM   25  F1  UNL     1      21.809   1.875  47.426  1.00  0.00    -0.242 F 
ENDBRANCH  22  23
ENDBRANCH  10  11
ENDBRANCH   8   9
ENDBRANCH   4   8
TORSDOF 5
ENDMDL
