MODEL 1
REMARK VINA RESULT:      -8.0      0.000      0.000
REMARK  5 active torsions:
REMARK  status: ('A' for Active; 'I' for Inactive)
REMARK    1  A    between atoms: C2_2  and  C3_4 
REMARK    2  A    between atoms: C3_4  and  C4_5 
REMARK    3  A    between atoms: C4_5  and  C5_6 
REMARK    4  A    between atoms: C5_6  and  N1_7 
REMARK    5  A    between atoms: N1_7  and  C6_8 
ROOT
HETATM    1  C6  UNL     1      25.866   2.490  51.534  1.00  0.00     0.213 C 
HETATM    2  C7  UNL     1      25.008   1.907  52.307  1.00  0.00     0.038 C 
HETATM    3  C8  UNL     1      25.155   2.360  53.668  1.00  0.00     0.062 C 
HETATM    4  O1  UNL     1      25.033   0.906  54.151  1.00  0.00     0.000 OA
HETATM    5  C9  UNL     1      26.002  -0.146  53.864  1.00  0.00     0.023 A 
HETATM    6  C10 UNL     1      25.927  -0.944  52.511  1.00  0.00     0.061 A 
HETATM    7  C11 UNL     1      27.060  -1.673  52.300  1.00  0.00    -0.007 A 
HETATM    8  C12 UNL     1      27.127  -0.961  53.456  1.00  0.00     0.081 A 
HETATM    9  C13 UNL     1      25.955  -0.190  53.750  1.00  0.00     0.023 A 
HETATM   10  C14 UNL     1      26.513   0.271  55.019  1.00  0.00     0.020 A 
HETATM   11  C15 UNL     1      24.394  -0.173  53.116  1.00  0.00     0.129 C 
HETATM   12  N2  UNL     1      24.042   0.840  52.156  1.00  0.00    -0.392 N 
HETATM   13  O2  UNL     1      28.490  -1.251  53.975  1.00  0.00    -0.330 OA
HETATM   14  C16 UNL     1      29.434  -0.047  53.693  1.00  0.00     0.425 C 
HETATM   15  N3  UNL     1      29.171   1.154  53.273  1.00  0.00    -0.362 NA
HETATM   16  C17 UNL     1      28.022   1.953  52.884  1.00  0.00     0.195 C 
HETATM   17  N4  UNL     1      26.986   2.731  52.572  1.00  0.00    -0.243 NA
HETATM   18  H17 UNL     1      23.261   0.357  51.782  1.00  0.00     0.159 HD
ENDROOT
BRANCH   1  19
HETATM   19  N1  UNL     1      26.826   3.198  50.929  1.00  0.00    -0.384 N 
HETATM   20  H9  UNL     1      27.426   3.357  51.770  1.00  0.00     0.156 HD
BRANCH  19  21
HETATM   21  C5  UNL     1      26.555   3.334  49.468  1.00  0.00     0.144 C 
BRANCH  21  22
HETATM   22  C4  UNL     1      26.392   4.739  49.111  1.00  0.00    -0.009 C 
BRANCH  22  23
HETATM   23  C3  UNL     1      27.508   5.364  48.654  1.00  0.00     0.007 C 
BRANCH  23  24
HETATM   24  C2  UNL     1      28.590   6.206  48.272  1.00  0.00     0.188 C 
HETATM   25  C1  UNL     1      29.876   5.441  47.996  1.00  0.00     0.049 C 
HETATM   26  F1  UNL     1      28.330   6.894  47.076  1.00  0.00    -0.246 F 
ENDBRANCH  23  24
ENDBRANCH  22  23
ENDBRANCH  21  22
ENDBRANCH  19  21
ENDBRANCH   1  19
TORSDOF 5
ENDMDL
MODEL 2
REMARK VINA RESULT:      -7.6      1.466      2.105
REMARK  5 active torsions:
REMARK  status: ('A' for Active; 'I' for Inactive)
REMARK    1  A    between atoms: C2_2  and  C3_4 
REMARK    2  A    between atoms: C3_4  and  C4_5 
REMARK    3  A    between atoms: C4_5  and  C5_6 
REMARK    4  A    between atoms: C5_6  and  N1_7 
REMARK    5  A    between atoms: N1_7  and  C6_8 
ROOT
HETATM    1  C6  UNL     1      25.904   2.451  51.546  1.00  0.00     0.213 C 
HETATM    2  C7  UNL     1      25.047   1.879  52.329  1.00  0.00     0.038 C 
HETATM    3  C8  UNL     1      25.208   2.336  53.687  1.00  0.00     0.062 C 
HETATM    4  O1  UNL     1      25.077   0.886  54.177  1.00  0.00     0.000 OA
HETATM    5  C9  UNL     1      26.034  -0.176  53.888  1.00  0.00     0.023 A 
HETATM    6  C10 UNL     1      25.942  -0.980  52.538  1.00  0.00     0.061 A 
HETATM    7  C11 UNL     1      27.067  -1.719  52.321  1.00  0.00    -0.007 A 
HETATM    8  C12 UNL     1      27.150  -1.003  53.474  1.00  0.00     0.081 A 
HETATM    9  C13 UNL     1      25.986  -0.220  53.773  1.00  0.00     0.023 A 
HETATM   10  C14 UNL     1      26.559   0.241  55.036  1.00  0.00     0.020 A 
HETATM   11  C15 UNL     1      24.420  -0.193  53.152  1.00  0.00     0.129 C 
HETATM   12  N2  UNL     1      24.070   0.819  52.191  1.00  0.00    -0.392 N 
HETATM   13  O2  UNL     1      28.514  -1.303  53.983  1.00  0.00    -0.330 OA
HETATM   14  C16 UNL     1      29.466  -0.108  53.689  1.00  0.00     0.425 C 
HETATM   15  N3  UNL     1      29.210   1.093  53.266  1.00  0.00    -0.362 NA
HETATM   16  C17 UNL     1      28.066   1.901  52.882  1.00  0.00     0.195 C 
HETATM   17  N4  UNL     1      27.034   2.687  52.575  1.00  0.00    -0.243 NA
HETATM   18  H17 UNL     1      23.282   0.342  51.825  1.00  0.00     0.159 HD
ENDROOT
BRANCH   1  19
HETATM   19  N1  UNL     1      26.864   3.148  50.931  1.00  0.00    -0.384 N 
HETATM   20  H9  UNL     1      27.519   3.220  51.742  1.00  0.00     0.156 HD
BRANCH  19  21
HETATM   21  C5  UNL     1      26.520   3.392  49.500  1.00  0.00     0.144 C 
BRANCH  21  22
HETATM   22  C4  UNL     1      26.472   4.824  49.227  1.00  0.00    -0.009 C 
BRANCH  22  23
HETATM   23  C3  UNL     1      25.519   5.521  49.899  1.00  0.00     0.007 C 
BRANCH  23  24
HETATM   24  C2  UNL     1      24.393   6.220  50.416  1.00  0.00     0.188 C 
HETATM   25  C1  UNL     1      23.749   5.522  51.606  1.00  0.00     0.049 C 
HETATM   26  F1  UNL     1      24.736   7.492  50.903  1.00  0.00    -0.246 F 
ENDBRANCH  23  24
ENDBRANCH  22  23
ENDBRANCH  21  22
ENDBRANCH  19  21
ENDBRANCH   1  19
TORSDOF 5
ENDMDL
MODEL 3
REMARK VINA RESULT:      -7.2      3.338      6.419
REMARK  5 active torsions:
REMARK  status: ('A' for Active; 'I' for Inactive)
REMARK    1  A    between atoms: C2_2  and  C3_4 
REMARK    2  A    between atoms: C3_4  and  C4_5 
REMARK    3  A    between atoms: C4_5  and  C5_6 
REMARK    4  A    between atoms: C5_6  and  N1_7 
REMARK    5  A    between atoms: N1_7  and  C6_8 
ROOT
HETATM    1  C6  UNL     1      24.805   2.904  52.763  1.00  0.00     0.213 C 
HETATM    2  C7  UNL     1      23.663   3.245  52.261  1.00  0.00     0.038 C 
HETATM    3  C8  UNL     1      23.357   2.450  51.098  1.00  0.00     0.062 C 
HETATM    4  O1  UNL     1      22.899   3.720  50.366  1.00  0.00     0.000 OA
HETATM    5  C9  UNL     1      23.775   4.828  50.000  1.00  0.00     0.023 A 
HETATM    6  C10 UNL     1      24.104   5.955  51.046  1.00  0.00     0.061 A 
HETATM    7  C11 UNL     1      25.143   6.734  50.628  1.00  0.00    -0.007 A 
HETATM    8  C12 UNL     1      24.868   5.742  49.740  1.00  0.00     0.081 A 
HETATM    9  C13 UNL     1      23.768   4.900  50.110  1.00  0.00     0.023 A 
HETATM   10  C14 UNL     1      23.877   4.128  48.874  1.00  0.00     0.020 A 
HETATM   11  C15 UNL     1      22.557   5.025  51.275  1.00  0.00     0.129 C 
HETATM   12  N2  UNL     1      22.700   4.297  52.509  1.00  0.00    -0.392 N 
HETATM   13  O2  UNL     1      25.905   5.907  48.688  1.00  0.00    -0.330 OA
HETATM   14  C16 UNL     1      27.021   4.838  48.867  1.00  0.00     0.425 C 
HETATM   15  N3  UNL     1      27.071   3.787  49.630  1.00  0.00    -0.362 NA
HETATM   16  C17 UNL     1      26.244   3.100  50.607  1.00  0.00     0.195 C 
HETATM   17  N4  UNL     1      25.491   2.415  51.467  1.00  0.00    -0.243 NA
HETATM   18  H17 UNL     1      22.057   4.848  53.025  1.00  0.00     0.159 HD
ENDROOT
BRANCH   1  19
HETATM   19  N1  UNL     1      25.995   2.399  53.106  1.00  0.00    -0.384 N 
HETATM   20  H9  UNL     1      26.562   3.259  52.932  1.00  0.00     0.156 HD
BRANCH  19  21
HETATM   21  C5  UNL     1      25.868   0.983  53.562  1.00  0.00     0.144 C 
BRANCH  21  22
HETATM   22  C4  UNL     1      26.818   0.709  54.634  1.00  0.00    -0.009 C 
BRANCH  22  23
HETATM   23  C3  UNL     1      27.978   0.112  54.256  1.00  0.00     0.007 C 
BRANCH  23  24
HETATM   24  C2  UNL     1      29.263  -0.470  54.071  1.00  0.00     0.188 C 
HETATM   25  C1  UNL     1      29.221  -1.789  53.311  1.00  0.00     0.049 C 
HETATM   26  F1  UNL     1      30.110   0.346  53.305  1.00  0.00    -0.246 F 
ENDBRANCH  23  24
ENDBRANCH  22  23
ENDBRANCH  21  22
ENDBRANCH  19  21
ENDBRANCH   1  19
TORSDOF 5
ENDMDL
MODEL 4
REMARK VINA RESULT:      -7.2      3.894      6.061
REMARK  5 active torsions:
REMARK  status: ('A' for Active; 'I' for Inactive)
REMARK    1  A    between atoms: C2_2  and  C3_4 
REMARK    2  A    between atoms: C3_4  and  C4_5 
REMARK    3  A    between atoms: C4_5  and  C5_6 
REMARK    4  A    between atoms: C5_6  and  N1_7 
REMARK    5  A    between atoms: N1_7  and  C6_8 
ROOT
HETATM    1  C6  UNL     1      25.160   1.342  52.117  1.00  0.00     0.213 C 
HETATM    2  C7  UNL     1      24.747   2.471  51.638  1.00  0.00     0.038 C 
HETATM    3  C8  UNL     1      24.136   3.272  52.670  1.00  0.00     0.062 C 
HETATM    4  O1  UNL     1      22.992   3.619  51.705  1.00  0.00     0.000 OA
HETATM    5  C9  UNL     1      22.030   2.656  51.181  1.00  0.00     0.023 A 
HETATM    6  C10 UNL     1      22.384   1.791  49.916  1.00  0.00     0.061 A 
HETATM    7  C11 UNL     1      21.499   0.767  49.750  1.00  0.00    -0.007 A 
HETATM    8  C12 UNL     1      21.213   1.504  50.855  1.00  0.00     0.081 A 
HETATM    9  C13 UNL     1      22.095   2.614  51.075  1.00  0.00     0.023 A 
HETATM   10  C14 UNL     1      21.342   3.044  52.250  1.00  0.00     0.020 A 
HETATM   11  C15 UNL     1      23.253   3.376  50.118  1.00  0.00     0.129 C 
HETATM   12  N2  UNL     1      24.642   3.055  50.318  1.00  0.00    -0.392 N 
HETATM   13  O2  UNL     1      20.049   0.804  51.460  1.00  0.00    -0.330 OA
HETATM   14  C16 UNL     1      20.513  -0.040  52.681  1.00  0.00     0.425 C 
HETATM   15  N3  UNL     1      21.649  -0.066  53.310  1.00  0.00    -0.362 NA
HETATM   16  C17 UNL     1      22.950   0.579  53.253  1.00  0.00     0.195 C 
HETATM   17  N4  UNL     1      24.135   1.189  53.264  1.00  0.00    -0.243 NA
HETATM   18  H17 UNL     1      24.949   3.378  49.432  1.00  0.00     0.159 HD
ENDROOT
BRANCH   1  19
HETATM   19  N1  UNL     1      25.500   0.253  52.814  1.00  0.00    -0.384 N 
HETATM   20  H9  UNL     1      24.914   0.444  53.657  1.00  0.00     0.156 HD
BRANCH  19  21
HETATM   21  C5  UNL     1      26.440  -0.610  52.040  1.00  0.00     0.144 C 
BRANCH  21  22
HETATM   22  C4  UNL     1      27.518  -1.083  52.901  1.00  0.00    -0.009 C 
BRANCH  22  23
HETATM   23  C3  UNL     1      28.366  -0.128  53.364  1.00  0.00     0.007 C 
BRANCH  23  24
HETATM   24  C2  UNL     1      29.076   0.946  53.969  1.00  0.00     0.188 C 
HETATM   25  C1  UNL     1      28.535   2.316  53.580  1.00  0.00     0.049 C 
HETATM   26  F1  UNL     1      28.983   0.921  55.370  1.00  0.00    -0.246 F 
ENDBRANCH  23  24
ENDBRANCH  22  23
ENDBRANCH  21  22
ENDBRANCH  19  21
ENDBRANCH   1  19
TORSDOF 5
ENDMDL
MODEL 5
REMARK VINA RESULT:      -7.1      3.580      6.611
REMARK  5 active torsions:
REMARK  status: ('A' for Active; 'I' for Inactive)
REMARK    1  A    between atoms: C2_2  and  C3_4 
REMARK    2  A    between atoms: C3_4  and  C4_5 
REMARK    3  A    between atoms: C4_5  and  C5_6 
REMARK    4  A    between atoms: C5_6  and  N1_7 
REMARK    5  A    between atoms: N1_7  and  C6_8 
ROOT
HETATM    1  C6  UNL     1      24.731   1.335  52.410  1.00  0.00     0.213 C 
HETATM    2  C7  UNL     1      25.002   2.586  52.224  1.00  0.00     0.038 C 
HETATM    3  C8  UNL     1      24.194   3.418  53.083  1.00  0.00     0.062 C 
HETATM    4  O1  UNL     1      23.927   4.359  51.898  1.00  0.00     0.000 OA
HETATM    5  C9  UNL     1      23.176   3.993  50.702  1.00  0.00     0.023 A 
HETATM    6  C10 UNL     1      23.891   3.249  49.515  1.00  0.00     0.061 A 
HETATM    7  C11 UNL     1      22.987   2.745  48.627  1.00  0.00    -0.007 A 
HETATM    8  C12 UNL     1      22.375   3.368  49.669  1.00  0.00     0.081 A 
HETATM    9  C13 UNL     1      23.273   3.943  50.629  1.00  0.00     0.023 A 
HETATM   10  C14 UNL     1      22.167   4.485  51.414  1.00  0.00     0.020 A 
HETATM   11  C15 UNL     1      24.928   4.255  50.620  1.00  0.00     0.129 C 
HETATM   12  N2  UNL     1      25.814   3.340  51.292  1.00  0.00    -0.392 N 
HETATM   13  O2  UNL     1      20.927   3.163  49.406  1.00  0.00    -0.330 OA
HETATM   14  C16 UNL     1      20.374   2.038  50.326  1.00  0.00     0.425 C 
HETATM   15  N3  UNL     1      20.913   1.433  51.342  1.00  0.00    -0.362 NA
HETATM   16  C17 UNL     1      22.153   1.452  52.098  1.00  0.00     0.195 C 
HETATM   17  N4  UNL     1      23.255   1.480  52.846  1.00  0.00    -0.243 NA
HETATM   18  H17 UNL     1      26.633   3.620  50.810  1.00  0.00     0.159 HD
ENDROOT
BRANCH   1  19
HETATM   19  N1  UNL     1      24.296   0.119  52.756  1.00  0.00    -0.384 N 
HETATM   20  H9  UNL     1      23.383   0.154  52.249  1.00  0.00     0.156 HD
BRANCH  19  21
HETATM   21  C5  UNL     1      25.305  -0.596  53.592  1.00  0.00     0.144 C 
BRANCH  21  22
HETATM   22  C4  UNL     1      26.322  -1.209  52.744  1.00  0.00    -0.009 C 
BRANCH  22  23
HETATM   23  C3  UNL     1      27.605  -0.852  53.011  1.00  0.00     0.007 C 
BRANCH  23  24
HETATM   24  C2  UNL     1      28.859  -0.335  53.442  1.00  0.00     0.188 C 
HETATM   25  C1  UNL     1      28.812   0.259  54.843  1.00  0.00     0.049 C 
HETATM   26  F1  UNL     1      29.845  -1.331  53.520  1.00  0.00    -0.246 F 
ENDBRANCH  23  24
ENDBRANCH  22  23
ENDBRANCH  21  22
ENDBRANCH  19  21
ENDBRANCH   1  19
TORSDOF 5
ENDMDL
MODEL 6
REMARK VINA RESULT:      -7.0      3.878      6.085
REMARK  5 active torsions:
REMARK  status: ('A' for Active; 'I' for Inactive)
REMARK    1  A    between atoms: C2_2  and  C3_4 
REMARK    2  A    between atoms: C3_4  and  C4_5 
REMARK    3  A    between atoms: C4_5  and  C5_6 
REMARK    4  A    between atoms: C5_6  and  N1_7 
REMARK    5  A    between atoms: N1_7  and  C6_8 
ROOT
HETATM    1  C6  UNL     1      24.572   3.530  51.675  1.00  0.00     0.213 C 
HETATM    2  C7  UNL     1      23.531   4.201  51.300  1.00  0.00     0.038 C 
HETATM    3  C8  UNL     1      22.721   4.566  52.437  1.00  0.00     0.062 C 
HETATM    4  O1  UNL     1      21.464   4.155  51.655  1.00  0.00     0.000 OA
HETATM    5  C9  UNL     1      21.157   2.792  51.236  1.00  0.00     0.023 A 
HETATM    6  C10 UNL     1      21.763   2.218  49.903  1.00  0.00     0.061 A 
HETATM    7  C11 UNL     1      21.602   0.866  49.825  1.00  0.00    -0.007 A 
HETATM    8  C12 UNL     1      21.102   1.366  50.986  1.00  0.00     0.081 A 
HETATM    9  C13 UNL     1      21.219   2.789  51.120  1.00  0.00     0.023 A 
HETATM   10  C14 UNL     1      20.524   2.775  52.405  1.00  0.00     0.020 A 
HETATM   11  C15 UNL     1      21.597   4.025  50.039  1.00  0.00     0.129 C 
HETATM   12  N2  UNL     1      22.935   4.557  50.030  1.00  0.00    -0.392 N 
HETATM   13  O2  UNL     1      20.636   0.161  51.722  1.00  0.00    -0.330 OA
HETATM   14  C16 UNL     1      21.658  -0.211  52.834  1.00  0.00     0.425 C 
HETATM   15  N3  UNL     1      22.682   0.443  53.296  1.00  0.00    -0.362 NA
HETATM   16  C17 UNL     1      23.364   1.707  53.081  1.00  0.00     0.195 C 
HETATM   17  N4  UNL     1      23.982   2.880  52.948  1.00  0.00    -0.243 NA
HETATM   18  H17 UNL     1      22.880   4.952  49.123  1.00  0.00     0.159 HD
ENDROOT
BRANCH   1  19
HETATM   19  N1  UNL     1      25.561   2.861  52.276  1.00  0.00    -0.384 N 
HETATM   20  H9  UNL     1      25.253   3.022  53.262  1.00  0.00     0.156 HD
BRANCH  19  21
HETATM   21  C5  UNL     1      26.484   2.250  51.275  1.00  0.00     0.144 C 
BRANCH  21  22
HETATM   22  C4  UNL     1      26.688   0.836  51.570  1.00  0.00    -0.009 C 
BRANCH  22  23
HETATM   23  C3  UNL     1      26.955   0.537  52.868  1.00  0.00     0.007 C 
BRANCH  23  24
HETATM   24  C2  UNL     1      27.073   0.063  54.205  1.00  0.00     0.188 C 
HETATM   25  C1  UNL     1      28.484   0.192  54.763  1.00  0.00     0.049 C 
HETATM   26  F1  UNL     1      26.277   0.796  55.100  1.00  0.00    -0.246 F 
ENDBRANCH  23  24
ENDBRANCH  22  23
ENDBRANCH  21  22
ENDBRANCH  19  21
ENDBRANCH   1  19
TORSDOF 5
ENDMDL
MODEL 7
REMARK VINA RESULT:      -6.8      3.854      7.235
REMARK  5 active torsions:
REMARK  status: ('A' for Active; 'I' for Inactive)
REMARK    1  A    between atoms: C2_2  and  C3_4 
REMARK    2  A    between atoms: C3_4  and  C4_5 
REMARK    3  A    between atoms: C4_5  and  C5_6 
REMARK    4  A    between atoms: C5_6  and  N1_7 
REMARK    5  A    between atoms: N1_7  and  C6_8 
ROOT
HETATM    1  C6  UNL     1      24.608   3.451  52.313  1.00  0.00     0.213 C 
HETATM    2  C7  UNL     1      23.532   4.022  51.876  1.00  0.00     0.038 C 
HETATM    3  C8  UNL     1      23.090   3.409  50.647  1.00  0.00     0.062 C 
HETATM    4  O1  UNL     1      22.839   4.805  50.058  1.00  0.00     0.000 OA
HETATM    5  C9  UNL     1      23.880   5.789  49.782  1.00  0.00     0.023 A 
HETATM    6  C10 UNL     1      24.399   6.735  50.926  1.00  0.00     0.061 A 
HETATM    7  C11 UNL     1      25.546   7.375  50.562  1.00  0.00    -0.007 A 
HETATM    8  C12 UNL     1      25.106   6.536  49.586  1.00  0.00     0.081 A 
HETATM    9  C13 UNL     1      23.886   5.849  49.899  1.00  0.00     0.023 A 
HETATM   10  C14 UNL     1      23.857   5.201  48.590  1.00  0.00     0.020 A 
HETATM   11  C15 UNL     1      22.723   6.048  51.101  1.00  0.00     0.129 C 
HETATM   12  N2  UNL     1      22.756   5.184  52.252  1.00  0.00    -0.392 N 
HETATM   13  O2  UNL     1      26.147   6.639  48.530  1.00  0.00    -0.330 OA
HETATM   14  C16 UNL     1      27.074   5.392  48.574  1.00  0.00     0.425 C 
HETATM   15  N3  UNL     1      26.959   4.274  49.227  1.00  0.00    -0.362 NA
HETATM   16  C17 UNL     1      26.041   3.633  50.151  1.00  0.00     0.195 C 
HETATM   17  N4  UNL     1      25.194   2.993  50.957  1.00  0.00    -0.243 NA
HETATM   18  H17 UNL     1      22.216   5.776  52.837  1.00  0.00     0.159 HD
ENDROOT
BRANCH   1  19
HETATM   19  N1  UNL     1      25.702   2.728  52.574  1.00  0.00    -0.384 N 
HETATM   20  H9  UNL     1      26.310   3.130  51.825  1.00  0.00     0.156 HD
BRANCH  19  21
HETATM   21  C5  UNL     1      25.487   1.828  53.744  1.00  0.00     0.144 C 
BRANCH  21  22
HETATM   22  C4  UNL     1      25.296   0.453  53.298  1.00  0.00    -0.009 C 
BRANCH  22  23
HETATM   23  C3  UNL     1      24.044  -0.050  53.454  1.00  0.00     0.007 C 
BRANCH  23  24
HETATM   24  C2  UNL     1      22.797  -0.735  53.467  1.00  0.00     0.188 C 
HETATM   25  C1  UNL     1      22.348  -1.137  54.866  1.00  0.00     0.049 C 
HETATM   26  F1  UNL     1      21.748   0.064  52.982  1.00  0.00    -0.246 F 
ENDBRANCH  23  24
ENDBRANCH  22  23
ENDBRANCH  21  22
ENDBRANCH  19  21
ENDBRANCH   1  19
TORSDOF 5
ENDMDL
MODEL 8
REMARK VINA RESULT:      -6.7      5.685      8.928
REMARK  5 active torsions:
REMARK  status: ('A' for Active; 'I' for Inactive)
REMARK    1  A    between atoms: C2_2  and  C3_4 
REMARK    2  A    between atoms: C3_4  and  C4_5 
REMARK    3  A    between atoms: C4_5  and  C5_6 
REMARK    4  A    between atoms: C5_6  and  N1_7 
REMARK    5  A    between atoms: N1_7  and  C6_8 
ROOT
HETATM    1  C6  UNL     1      27.511   8.739  49.679  1.00  0.00     0.213 C 
HETATM    2  C7  UNL     1      28.148   9.684  49.066  1.00  0.00     0.038 C 
HETATM    3  C8  UNL     1      27.954   9.590  47.639  1.00  0.00     0.062 C 
HETATM    4  O1  UNL     1      29.455   9.847  47.432  1.00  0.00     0.000 OA
HETATM    5  C9  UNL     1      30.516   8.940  47.855  1.00  0.00     0.023 A 
HETATM    6  C10 UNL     1      31.056   8.987  49.331  1.00  0.00     0.061 A 
HETATM    7  C11 UNL     1      31.827   7.898  49.614  1.00  0.00    -0.007 A 
HETATM    8  C12 UNL     1      31.337   7.853  48.347  1.00  0.00     0.081 A 
HETATM    9  C13 UNL     1      30.535   8.983  47.978  1.00  0.00     0.023 A 
HETATM   10  C14 UNL     1      30.352   8.473  46.621  1.00  0.00     0.020 A 
HETATM   11  C15 UNL     1      30.281  10.496  48.673  1.00  0.00     0.129 C 
HETATM   12  N2  UNL     1      29.090  10.713  49.452  1.00  0.00    -0.392 N 
HETATM   13  O2  UNL     1      31.824   6.549  47.823  1.00  0.00    -0.330 OA
HETATM   14  C16 UNL     1      30.670   5.506  47.838  1.00  0.00     0.425 C 
HETATM   15  N3  UNL     1      29.397   5.655  48.048  1.00  0.00    -0.362 NA
HETATM   16  C17 UNL     1      28.451   6.716  48.343  1.00  0.00     0.195 C 
HETATM   17  N4  UNL     1      27.548   7.672  48.560  1.00  0.00    -0.243 NA
HETATM   18  H17 UNL     1      29.434  11.502  49.944  1.00  0.00     0.159 HD
ENDROOT
BRANCH   1  19
HETATM   19  N1  UNL     1      26.789   7.695  50.099  1.00  0.00    -0.384 N 
HETATM   20  H9  UNL     1      27.587   7.049  50.292  1.00  0.00     0.156 HD
BRANCH  19  21
HETATM   21  C5  UNL     1      25.331   8.015  50.102  1.00  0.00     0.144 C 
BRANCH  21  22
HETATM   22  C4  UNL     1      24.561   6.862  50.556  1.00  0.00    -0.009 C 
BRANCH  22  23
HETATM   23  C3  UNL     1      25.088   5.646  50.258  1.00  0.00     0.007 C 
BRANCH  23  24
HETATM   24  C2  UNL     1      25.424   4.307  49.915  1.00  0.00     0.188 C 
HETATM   25  C1  UNL     1      24.245   3.516  49.364  1.00  0.00     0.049 C 
HETATM   26  F1  UNL     1      26.390   4.246  48.898  1.00  0.00    -0.246 F 
ENDBRANCH  23  24
ENDBRANCH  22  23
ENDBRANCH  21  22
ENDBRANCH  19  21
ENDBRANCH   1  19
TORSDOF 5
ENDMDL
MODEL 9
REMARK VINA RESULT:      -6.7      3.472      5.201
REMARK  5 active torsions:
REMARK  status: ('A' for Active; 'I' for Inactive)
REMARK    1  A    between atoms: C2_2  and  C3_4 
REMARK    2  A    between atoms: C3_4  and  C4_5 
REMARK    3  A    between atoms: C4_5  and  C5_6 
REMARK    4  A    between atoms: C5_6  and  N1_7 
REMARK    5  A    between atoms: N1_7  and  C6_8 
ROOT
HETATM    1  C6  UNL     1      24.817   2.960  52.492  1.00  0.00     0.213 C 
HETATM    2  C7  UNL     1      25.934   2.434  52.107  1.00  0.00     0.038 C 
HETATM    3  C8  UNL     1      25.702   1.404  51.124  1.00  0.00     0.062 C 
HETATM    4  O1  UNL     1      26.714   0.503  51.848  1.00  0.00     0.000 OA
HETATM    5  C9  UNL     1      26.532  -0.035  53.192  1.00  0.00     0.023 A 
HETATM    6  C10 UNL     1      26.911   0.830  54.449  1.00  0.00     0.061 A 
HETATM    7  C11 UNL     1      26.415   0.285  55.596  1.00  0.00    -0.007 A 
HETATM    8  C12 UNL     1      26.070  -0.444  54.502  1.00  0.00     0.081 A 
HETATM    9  C13 UNL     1      26.582   0.063  53.263  1.00  0.00     0.023 A 
HETATM   10  C14 UNL     1      26.007  -1.049  52.511  1.00  0.00     0.020 A 
HETATM   11  C15 UNL     1      27.747   1.219  52.881  1.00  0.00     0.129 C 
HETATM   12  N2  UNL     1      27.320   2.543  52.510  1.00  0.00    -0.392 N 
HETATM   13  O2  UNL     1      25.213  -1.527  55.051  1.00  0.00    -0.330 OA
HETATM   14  C16 UNL     1      23.715  -1.214  54.771  1.00  0.00     0.425 C 
HETATM   15  N3  UNL     1      23.167  -0.308  54.018  1.00  0.00    -0.362 NA
HETATM   16  C17 UNL     1      23.566   0.773  53.134  1.00  0.00     0.195 C 
HETATM   17  N4  UNL     1      23.897   1.736  52.275  1.00  0.00    -0.243 NA
HETATM   18  H17 UNL     1      28.187   2.985  52.699  1.00  0.00     0.159 HD
ENDROOT
BRANCH   1  19
HETATM   19  N1  UNL     1      23.564   3.352  52.745  1.00  0.00    -0.384 N 
HETATM   20  H9  UNL     1      23.234   2.467  53.192  1.00  0.00     0.156 HD
BRANCH  19  21
HETATM   21  C5  UNL     1      23.344   4.764  52.316  1.00  0.00     0.144 C 
BRANCH  21  22
HETATM   22  C4  UNL     1      21.993   4.930  51.792  1.00  0.00    -0.009 C 
BRANCH  22  23
HETATM   23  C3  UNL     1      21.120   3.932  52.085  1.00  0.00     0.007 C 
BRANCH  23  24
HETATM   24  C2  UNL     1      20.216   2.836  52.170  1.00  0.00     0.188 C 
HETATM   25  C1  UNL     1      20.345   1.861  51.008  1.00  0.00     0.049 C 
HETATM   26  F1  UNL     1      20.443   2.049  53.311  1.00  0.00    -0.246 F 
ENDBRANCH  23  24
ENDBRANCH  22  23
ENDBRANCH  21  22
ENDBRANCH  19  21
ENDBRANCH   1  19
TORSDOF 5
ENDMDL
