MODEL 1
REMARK VINA RESULT:      -7.8      0.000      0.000
REMARK  2 active torsions:
REMARK  status: ('A' for Active; 'I' for Inactive)
REMARK    1  A    between atoms: O1_2  and  C2_3 
REMARK    2  A    between atoms: C7_8  and  O2_9 
ROOT
HETATM    1  C2  UNL     1      22.120   1.894  52.047  1.00  0.00     0.102 A 
HETATM    2  C3  UNL     1      23.083   0.916  52.189  1.00  0.00     0.049 A 
HETATM    3  C4  UNL     1      24.371   1.195  52.615  1.00  0.00    -0.024 A 
HETATM    4  C5  UNL     1      24.654   2.516  52.894  1.00  0.00     0.043 A 
HETATM    5  C6  UNL     1      23.710   3.513  52.760  1.00  0.00     0.069 A 
HETATM    6  C7  UNL     1      22.428   3.228  52.336  1.00  0.00     0.103 A 
HETATM    7  N1  UNL     1      25.967   2.843  53.333  1.00  0.00    -0.340 N 
HETATM    8  C9  UNL     1      27.014   1.895  53.504  1.00  0.00     0.141 A 
HETATM    9  N2  UNL     1      28.245   2.182  53.914  1.00  0.00    -0.225 NA
HETATM   10  C10 UNL     1      29.156   1.190  54.038  1.00  0.00     0.214 A 
HETATM   11  N3  UNL     1      28.871  -0.102  53.762  1.00  0.00    -0.312 N 
HETATM   12  C11 UNL     1      29.888  -1.131  53.913  1.00  0.00     0.160 C 
HETATM   13  C12 UNL     1      27.632  -0.383  53.353  1.00  0.00     0.258 A 
HETATM   14  O3  UNL     1      27.411  -1.599  53.107  1.00  0.00    -0.267 OA
HETATM   15  C13 UNL     1      26.647   0.599  53.204  1.00  0.00     0.060 A 
HETATM   16  C14 UNL     1      25.332   0.084  52.737  1.00  0.00     0.089 A 
HETATM   17  H9  UNL     1      26.177   3.855  53.545  1.00  0.00     0.167 HD
ENDROOT
BRANCH   1  18
HETATM   18  O1  UNL     1      20.823   1.638  51.623  1.00  0.00    -0.353 OA
HETATM   19  C1  UNL     1      20.348   0.325  51.671  1.00  0.00     0.210 C 
ENDBRANCH   1  18
BRANCH   6  20
HETATM   20  O2  UNL     1      21.455   4.209  52.191  1.00  0.00    -0.353 OA
HETATM   21  C8  UNL     1      21.855   5.420  51.578  1.00  0.00     0.210 C 
ENDBRANCH   6  20
TORSDOF 2
ENDMDL
MODEL 2
REMARK VINA RESULT:      -7.6      3.068      6.295
REMARK  2 active torsions:
REMARK  status: ('A' for Active; 'I' for Inactive)
REMARK    1  A    between atoms: O1_2  and  C2_3 
REMARK    2  A    between atoms: C7_8  and  O2_9 
ROOT
HETATM    1  C2  UNL     1      26.393   2.342  51.519  1.00  0.00     0.102 A 
HETATM    2  C3  UNL     1      25.036   2.160  51.344  1.00  0.00     0.049 A 
HETATM    3  C4  UNL     1      24.292   1.299  52.133  1.00  0.00    -0.024 A 
HETATM    4  C5  UNL     1      24.977   0.619  53.118  1.00  0.00     0.043 A 
HETATM    5  C6  UNL     1      26.333   0.781  53.313  1.00  0.00     0.069 A 
HETATM    6  C7  UNL     1      27.069   1.641  52.525  1.00  0.00     0.103 A 
HETATM    7  N1  UNL     1      24.247  -0.276  53.948  1.00  0.00    -0.340 N 
HETATM    8  C9  UNL     1      22.849  -0.517  53.832  1.00  0.00     0.141 A 
HETATM    9  N2  UNL     1      22.151  -1.348  54.598  1.00  0.00    -0.225 NA
HETATM   10  C10 UNL     1      20.824  -1.493  54.389  1.00  0.00     0.214 A 
HETATM   11  N3  UNL     1      20.159  -0.823  53.422  1.00  0.00    -0.312 N 
HETATM   12  C11 UNL     1      18.729  -1.015  53.240  1.00  0.00     0.160 C 
HETATM   13  C12 UNL     1      20.866   0.010  52.656  1.00  0.00     0.258 A 
HETATM   14  O3  UNL     1      20.207   0.614  51.769  1.00  0.00    -0.267 OA
HETATM   15  C13 UNL     1      22.242   0.203  52.824  1.00  0.00     0.060 A 
HETATM   16  C14 UNL     1      22.847   1.172  51.871  1.00  0.00     0.089 A 
HETATM   17  H9  UNL     1      24.777  -0.793  54.699  1.00  0.00     0.167 HD
ENDROOT
BRANCH   1  18
HETATM   18  O1  UNL     1      27.160   3.199  50.741  1.00  0.00    -0.353 OA
HETATM   19  C1  UNL     1      26.581   3.774  49.608  1.00  0.00     0.210 C 
ENDBRANCH   1  18
BRANCH   6  20
HETATM   20  O2  UNL     1      28.436   1.827  52.697  1.00  0.00    -0.353 OA
HETATM   21  C8  UNL     1      29.034   1.178  53.803  1.00  0.00     0.210 C 
ENDBRANCH   6  20
TORSDOF 2
ENDMDL
MODEL 3
REMARK VINA RESULT:      -7.4      2.960      6.541
REMARK  2 active torsions:
REMARK  status: ('A' for Active; 'I' for Inactive)
REMARK    1  A    between atoms: O1_2  and  C2_3 
REMARK    2  A    between atoms: C7_8  and  O2_9 
ROOT
HETATM    1  C2  UNL     1      26.985  -0.078  53.760  1.00  0.00     0.102 A 
HETATM    2  C3  UNL     1      25.759  -0.656  54.021  1.00  0.00     0.049 A 
HETATM    3  C4  UNL     1      24.574  -0.153  53.510  1.00  0.00    -0.024 A 
HETATM    4  C5  UNL     1      24.674   0.971  52.716  1.00  0.00     0.043 A 
HETATM    5  C6  UNL     1      25.886   1.568  52.441  1.00  0.00     0.069 A 
HETATM    6  C7  UNL     1      27.064   1.062  52.951  1.00  0.00     0.103 A 
HETATM    7  N1  UNL     1      23.478   1.518  52.174  1.00  0.00    -0.340 N 
HETATM    8  C9  UNL     1      22.179   0.981  52.395  1.00  0.00     0.141 A 
HETATM    9  N2  UNL     1      21.052   1.478  51.897  1.00  0.00    -0.225 NA
HETATM   10  C10 UNL     1      19.875   0.877  52.180  1.00  0.00     0.214 A 
HETATM   11  N3  UNL     1      19.785  -0.223  52.959  1.00  0.00    -0.312 N 
HETATM   12  C11 UNL     1      18.492  -0.832  53.232  1.00  0.00     0.160 C 
HETATM   13  C12 UNL     1      20.921  -0.718  53.455  1.00  0.00     0.258 A 
HETATM   14  O3  UNL     1      20.790  -1.744  54.175  1.00  0.00    -0.267 OA
HETATM   15  C13 UNL     1      22.169  -0.141  53.198  1.00  0.00     0.060 A 
HETATM   16  C14 UNL     1      23.313  -0.839  53.843  1.00  0.00     0.089 A 
HETATM   17  H9  UNL     1      23.562   2.377  51.568  1.00  0.00     0.167 HD
ENDROOT
BRANCH   1  18
HETATM   18  O1  UNL     1      28.185  -0.564  54.260  1.00  0.00    -0.353 OA
HETATM   19  C1  UNL     1      28.950  -1.414  53.459  1.00  0.00     0.210 C 
ENDBRANCH   1  18
BRANCH   6  20
HETATM   20  O2  UNL     1      28.300   1.641  52.692  1.00  0.00    -0.353 OA
HETATM   21  C8  UNL     1      28.796   2.548  53.658  1.00  0.00     0.210 C 
ENDBRANCH   6  20
TORSDOF 2
ENDMDL
MODEL 4
REMARK VINA RESULT:      -7.3      2.035      6.450
REMARK  2 active torsions:
REMARK  status: ('A' for Active; 'I' for Inactive)
REMARK    1  A    between atoms: O1_2  and  C2_3 
REMARK    2  A    between atoms: C7_8  and  O2_9 
ROOT
HETATM    1  C2  UNL     1      25.969  -0.276  53.568  1.00  0.00     0.102 A 
HETATM    2  C3  UNL     1      24.810  -0.028  52.863  1.00  0.00     0.049 A 
HETATM    3  C4  UNL     1      24.307   1.250  52.682  1.00  0.00    -0.024 A 
HETATM    4  C5  UNL     1      25.027   2.281  53.248  1.00  0.00     0.043 A 
HETATM    5  C6  UNL     1      26.189   2.060  53.958  1.00  0.00     0.069 A 
HETATM    6  C7  UNL     1      26.686   0.785  54.134  1.00  0.00     0.103 A 
HETATM    7  N1  UNL     1      24.542   3.608  53.084  1.00  0.00    -0.340 N 
HETATM    8  C9  UNL     1      23.357   3.946  52.373  1.00  0.00     0.141 A 
HETATM    9  N2  UNL     1      22.889   5.179  52.209  1.00  0.00    -0.225 NA
HETATM   10  C10 UNL     1      21.749   5.373  51.510  1.00  0.00     0.214 A 
HETATM   11  N3  UNL     1      21.047   4.357  50.959  1.00  0.00    -0.312 N 
HETATM   12  C11 UNL     1      19.825   4.621  50.216  1.00  0.00     0.160 C 
HETATM   13  C12 UNL     1      21.524   3.122  51.126  1.00  0.00     0.258 A 
HETATM   14  O3  UNL     1      20.839   2.207  50.596  1.00  0.00    -0.267 OA
HETATM   15  C13 UNL     1      22.698   2.857  51.839  1.00  0.00     0.060 A 
HETATM   16  C14 UNL     1      23.061   1.416  51.913  1.00  0.00     0.089 A 
HETATM   17  H9  UNL     1      25.098   4.391  53.519  1.00  0.00     0.167 HD
ENDROOT
BRANCH   1  18
HETATM   18  O1  UNL     1      26.493  -1.547  53.763  1.00  0.00    -0.353 OA
HETATM   19  C1  UNL     1      27.163  -2.165  52.705  1.00  0.00     0.210 C 
ENDBRANCH   1  18
BRANCH   6  20
HETATM   20  O2  UNL     1      27.853   0.530  54.843  1.00  0.00    -0.353 OA
HETATM   21  C8  UNL     1      29.073   0.859  54.206  1.00  0.00     0.210 C 
ENDBRANCH   6  20
TORSDOF 2
ENDMDL
MODEL 5
REMARK VINA RESULT:      -7.3      2.625      6.159
REMARK  2 active torsions:
REMARK  status: ('A' for Active; 'I' for Inactive)
REMARK    1  A    between atoms: O1_2  and  C2_3 
REMARK    2  A    between atoms: C7_8  and  O2_9 
ROOT
HETATM    1  C2  UNL     1      25.876  -0.138  53.977  1.00  0.00     0.102 A 
HETATM    2  C3  UNL     1      24.907   0.440  53.183  1.00  0.00     0.049 A 
HETATM    3  C4  UNL     1      25.181   1.480  52.311  1.00  0.00    -0.024 A 
HETATM    4  C5  UNL     1      26.487   1.921  52.270  1.00  0.00     0.043 A 
HETATM    5  C6  UNL     1      27.475   1.361  53.054  1.00  0.00     0.069 A 
HETATM    6  C7  UNL     1      27.196   0.325  53.920  1.00  0.00     0.103 A 
HETATM    7  N1  UNL     1      26.808   2.989  51.387  1.00  0.00    -0.340 N 
HETATM    8  C9  UNL     1      25.867   3.636  50.537  1.00  0.00     0.141 A 
HETATM    9  N2  UNL     1      26.149   4.634  49.706  1.00  0.00    -0.225 NA
HETATM   10  C10 UNL     1      25.167   5.169  48.948  1.00  0.00     0.214 A 
HETATM   11  N3  UNL     1      23.888   4.732  48.993  1.00  0.00    -0.312 N 
HETATM   12  C11 UNL     1      22.868   5.342  48.155  1.00  0.00     0.160 C 
HETATM   13  C12 UNL     1      23.613   3.729  49.830  1.00  0.00     0.258 A 
HETATM   14  O3  UNL     1      22.410   3.354  49.839  1.00  0.00    -0.267 OA
HETATM   15  C13 UNL     1      24.586   3.135  50.640  1.00  0.00     0.060 A 
HETATM   16  C14 UNL     1      24.079   2.034  51.503  1.00  0.00     0.089 A 
HETATM   17  H9  UNL     1      27.809   3.321  51.360  1.00  0.00     0.167 HD
ENDROOT
BRANCH   1  18
HETATM   18  O1  UNL     1      25.625  -1.181  54.859  1.00  0.00    -0.353 OA
HETATM   19  C1  UNL     1      24.381  -1.239  55.491  1.00  0.00     0.210 C 
ENDBRANCH   1  18
BRANCH   6  20
HETATM   20  O2  UNL     1      28.168  -0.261  54.722  1.00  0.00    -0.353 OA
HETATM   21  C8  UNL     1      29.355  -0.685  54.079  1.00  0.00     0.210 C 
ENDBRANCH   6  20
TORSDOF 2
ENDMDL
MODEL 6
REMARK VINA RESULT:      -7.2      1.952      2.418
REMARK  2 active torsions:
REMARK  status: ('A' for Active; 'I' for Inactive)
REMARK    1  A    between atoms: O1_2  and  C2_3 
REMARK    2  A    between atoms: C7_8  and  O2_9 
ROOT
HETATM    1  C2  UNL     1      20.707   0.357  51.667  1.00  0.00     0.102 A 
HETATM    2  C3  UNL     1      21.697  -0.054  52.537  1.00  0.00     0.049 A 
HETATM    3  C4  UNL     1      22.994   0.427  52.471  1.00  0.00    -0.024 A 
HETATM    4  C5  UNL     1      23.258   1.351  51.481  1.00  0.00     0.043 A 
HETATM    5  C6  UNL     1      22.288   1.779  50.600  1.00  0.00     0.069 A 
HETATM    6  C7  UNL     1      20.997   1.296  50.671  1.00  0.00     0.103 A 
HETATM    7  N1  UNL     1      24.580   1.868  51.381  1.00  0.00    -0.340 N 
HETATM    8  C9  UNL     1      25.653   1.495  52.237  1.00  0.00     0.141 A 
HETATM    9  N2  UNL     1      26.893   1.968  52.159  1.00  0.00    -0.225 NA
HETATM   10  C10 UNL     1      27.829   1.535  53.032  1.00  0.00     0.214 A 
HETATM   11  N3  UNL     1      27.563   0.628  53.999  1.00  0.00    -0.312 N 
HETATM   12  C11 UNL     1      28.607   0.196  54.915  1.00  0.00     0.160 C 
HETATM   13  C12 UNL     1      26.315   0.159  54.073  1.00  0.00     0.258 A 
HETATM   14  O3  UNL     1      26.112  -0.683  54.988  1.00  0.00    -0.267 OA
HETATM   15  C13 UNL     1      25.303   0.568  53.198  1.00  0.00     0.060 A 
HETATM   16  C14 UNL     1      23.983  -0.072  53.443  1.00  0.00     0.089 A 
HETATM   17  H9  UNL     1      24.775   2.574  50.623  1.00  0.00     0.167 HD
ENDROOT
BRANCH   1  18
HETATM   18  O1  UNL     1      19.401  -0.111  51.714  1.00  0.00    -0.353 OA
HETATM   19  C1  UNL     1      18.914  -0.618  52.920  1.00  0.00     0.210 C 
ENDBRANCH   1  18
BRANCH   6  20
HETATM   20  O2  UNL     1      19.997   1.707  49.798  1.00  0.00    -0.353 OA
HETATM   21  C8  UNL     1      20.409   2.158  48.521  1.00  0.00     0.210 C 
ENDBRANCH   6  20
TORSDOF 2
ENDMDL
MODEL 7
REMARK VINA RESULT:      -7.1      3.335      5.789
REMARK  2 active torsions:
REMARK  status: ('A' for Active; 'I' for Inactive)
REMARK    1  A    between atoms: O1_2  and  C2_3 
REMARK    2  A    between atoms: C7_8  and  O2_9 
ROOT
HETATM    1  C2  UNL     1      25.889  -0.358  52.973  1.00  0.00     0.102 A 
HETATM    2  C3  UNL     1      26.502   0.515  52.098  1.00  0.00     0.049 A 
HETATM    3  C4  UNL     1      25.893   1.677  51.656  1.00  0.00    -0.024 A 
HETATM    4  C5  UNL     1      24.624   1.928  52.135  1.00  0.00     0.043 A 
HETATM    5  C6  UNL     1      23.989   1.072  53.010  1.00  0.00     0.069 A 
HETATM    6  C7  UNL     1      24.601  -0.085  53.448  1.00  0.00     0.103 A 
HETATM    7  N1  UNL     1      23.965   3.112  51.703  1.00  0.00    -0.340 N 
HETATM    8  C9  UNL     1      24.529   4.060  50.805  1.00  0.00     0.141 A 
HETATM    9  N2  UNL     1      23.928   5.171  50.391  1.00  0.00    -0.225 NA
HETATM   10  C10 UNL     1      24.568   5.997  49.533  1.00  0.00     0.214 A 
HETATM   11  N3  UNL     1      25.812   5.744  49.067  1.00  0.00    -0.312 N 
HETATM   12  C11 UNL     1      26.457   6.666  48.145  1.00  0.00     0.160 C 
HETATM   13  C12 UNL     1      26.409   4.627  49.487  1.00  0.00     0.258 A 
HETATM   14  O3  UNL     1      27.566   4.432  49.028  1.00  0.00    -0.267 OA
HETATM   15  C13 UNL     1      25.798   3.734  50.374  1.00  0.00     0.060 A 
HETATM   16  C14 UNL     1      26.627   2.548  50.721  1.00  0.00     0.089 A 
HETATM   17  H9  UNL     1      22.995   3.298  52.074  1.00  0.00     0.167 HD
ENDROOT
BRANCH   1  18
HETATM   18  O1  UNL     1      26.480  -1.529  53.430  1.00  0.00    -0.353 OA
HETATM   19  C1  UNL     1      27.160  -2.337  52.517  1.00  0.00     0.210 C 
ENDBRANCH   1  18
BRANCH   6  20
HETATM   20  O2  UNL     1      23.988  -0.967  54.329  1.00  0.00    -0.353 OA
HETATM   21  C8  UNL     1      22.613  -0.756  54.591  1.00  0.00     0.210 C 
ENDBRANCH   6  20
TORSDOF 2
ENDMDL
MODEL 8
REMARK VINA RESULT:      -7.0      2.415      6.979
REMARK  2 active torsions:
REMARK  status: ('A' for Active; 'I' for Inactive)
REMARK    1  A    between atoms: O1_2  and  C2_3 
REMARK    2  A    between atoms: C7_8  and  O2_9 
ROOT
HETATM    1  C2  UNL     1      27.582   0.934  53.143  1.00  0.00     0.102 A 
HETATM    2  C3  UNL     1      26.482   1.697  52.808  1.00  0.00     0.049 A 
HETATM    3  C4  UNL     1      25.190   1.200  52.849  1.00  0.00    -0.024 A 
HETATM    4  C5  UNL     1      25.049  -0.113  53.246  1.00  0.00     0.043 A 
HETATM    5  C6  UNL     1      26.131  -0.898  53.585  1.00  0.00     0.069 A 
HETATM    6  C7  UNL     1      27.416  -0.397  53.543  1.00  0.00     0.103 A 
HETATM    7  N1  UNL     1      23.737  -0.661  53.299  1.00  0.00    -0.340 N 
HETATM    8  C9  UNL     1      22.554   0.059  52.971  1.00  0.00     0.141 A 
HETATM    9  N2  UNL     1      21.321  -0.435  53.016  1.00  0.00    -0.225 NA
HETATM   10  C10 UNL     1      20.274   0.350  52.678  1.00  0.00     0.214 A 
HETATM   11  N3  UNL     1      20.421   1.637  52.290  1.00  0.00    -0.312 N 
HETATM   12  C11 UNL     1      19.260   2.439  51.938  1.00  0.00     0.160 C 
HETATM   13  C12 UNL     1      21.662   2.127  52.248  1.00  0.00     0.258 A 
HETATM   14  O3  UNL     1      21.751   3.329  51.882  1.00  0.00    -0.267 OA
HETATM   15  C13 UNL     1      22.785   1.364  52.585  1.00  0.00     0.060 A 
HETATM   16  C14 UNL     1      24.078   2.091  52.474  1.00  0.00     0.089 A 
HETATM   17  H9  UNL     1      23.635  -1.665  53.604  1.00  0.00     0.167 HD
ENDROOT
BRANCH   1  18
HETATM   18  O1  UNL     1      28.886   1.411  53.110  1.00  0.00    -0.353 OA
HETATM   19  C1  UNL     1      29.352   2.166  54.188  1.00  0.00     0.210 C 
ENDBRANCH   1  18
BRANCH   6  20
HETATM   20  O2  UNL     1      28.527  -1.160  53.879  1.00  0.00    -0.353 OA
HETATM   21  C8  UNL     1      28.782  -2.302  53.082  1.00  0.00     0.210 C 
ENDBRANCH   6  20
TORSDOF 2
ENDMDL
MODEL 9
REMARK VINA RESULT:      -6.6      3.457      5.002
REMARK  2 active torsions:
REMARK  status: ('A' for Active; 'I' for Inactive)
REMARK    1  A    between atoms: O1_2  and  C2_3 
REMARK    2  A    between atoms: C7_8  and  O2_9 
ROOT
HETATM    1  C2  UNL     1      24.694   4.985  49.152  1.00  0.00     0.102 A 
HETATM    2  C3  UNL     1      23.840   4.223  49.922  1.00  0.00     0.049 A 
HETATM    3  C4  UNL     1      24.289   3.202  50.744  1.00  0.00    -0.024 A 
HETATM    4  C5  UNL     1      25.649   2.976  50.759  1.00  0.00     0.043 A 
HETATM    5  C6  UNL     1      26.524   3.723  49.998  1.00  0.00     0.069 A 
HETATM    6  C7  UNL     1      26.072   4.740  49.181  1.00  0.00     0.103 A 
HETATM    7  N1  UNL     1      26.149   1.936  51.590  1.00  0.00    -0.340 N 
HETATM    8  C9  UNL     1      25.335   1.107  52.412  1.00  0.00     0.141 A 
HETATM    9  N2  UNL     1      25.784   0.132  53.195  1.00  0.00    -0.225 NA
HETATM   10  C10 UNL     1      24.909  -0.589  53.932  1.00  0.00     0.214 A 
HETATM   11  N3  UNL     1      23.577  -0.362  53.913  1.00  0.00    -0.312 N 
HETATM   12  C11 UNL     1      22.678  -1.166  54.726  1.00  0.00     0.160 C 
HETATM   13  C12 UNL     1      23.133   0.620  53.125  1.00  0.00     0.258 A 
HETATM   14  O3  UNL     1      21.886   0.796  53.138  1.00  0.00    -0.267 OA
HETATM   15  C13 UNL     1      23.989   1.400  52.339  1.00  0.00     0.060 A 
HETATM   16  C14 UNL     1      23.301   2.442  51.531  1.00  0.00     0.089 A 
HETATM   17  H9  UNL     1      27.190   1.769  51.597  1.00  0.00     0.167 HD
ENDROOT
BRANCH   1  18
HETATM   18  O1  UNL     1      24.267   6.012  48.321  1.00  0.00    -0.353 OA
HETATM   19  C1  UNL     1      23.825   7.203  48.901  1.00  0.00     0.210 C 
ENDBRANCH   1  18
BRANCH   6  20
HETATM   20  O2  UNL     1      26.927   5.510  48.403  1.00  0.00    -0.353 OA
HETATM   21  C8  UNL     1      28.303   5.181  48.450  1.00  0.00     0.210 C 
ENDBRANCH   6  20
TORSDOF 2
ENDMDL
