MODEL 1
REMARK VINA RESULT:      -8.9      0.000      0.000
REMARK  2 active torsions:
REMARK  status: ('A' for Active; 'I' for Inactive)
REMARK    1  A    between atoms: C4_5  and  N1_6 
REMARK    2  A    between atoms: N1_6  and  C5_7 
ROOT
HETATM    1  C5  UNL     1      24.916   2.991  52.174  1.00  0.00     0.160 A 
HETATM    2  N2  UNL     1      23.702   2.838  52.783  1.00  0.00    -0.222 NA
HETATM    3  C6  UNL     1      22.603   3.400  52.193  1.00  0.00     0.238 A 
HETATM    4  N3  UNL     1      22.729   4.085  51.042  1.00  0.00    -0.215 NA
HETATM    5  C7  UNL     1      23.939   4.233  50.441  1.00  0.00     0.202 A 
HETATM    6  C8  UNL     1      25.065   3.681  51.006  1.00  0.00     0.129 A 
HETATM    7  N4  UNL     1      26.436   3.636  50.680  1.00  0.00    -0.379 N 
HETATM    8  C9  UNL     1      27.033   4.140  49.468  1.00  0.00     0.161 C 
HETATM    9  C10 UNL     1      26.370   5.319  48.896  1.00  0.00    -0.007 A 
HETATM   10  C11 UNL     1      27.293   6.209  48.363  1.00  0.00     0.011 A 
HETATM   11  C12 UNL     1      26.985   7.415  47.753  1.00  0.00     0.001 A 
HETATM   12  C13 UNL     1      25.641   7.767  47.667  1.00  0.00     0.003 A 
HETATM   13  C14 UNL     1      24.651   6.940  48.174  1.00  0.00     0.038 A 
HETATM   14  C15 UNL     1      25.064   5.750  48.765  1.00  0.00     0.086 A 
HETATM   15  O1  UNL     1      24.002   4.955  49.253  1.00  0.00    -0.289 OA
HETATM   16  H5  UNL     1      27.072   3.195  51.396  1.00  0.00     0.160 HD
ENDROOT
BRANCH   1  17
HETATM   17  N1  UNL     1      25.858   2.338  53.008  1.00  0.00    -0.339 N 
HETATM   18  H3  UNL     1      26.277   2.934  53.780  1.00  0.00     0.167 HD
BRANCH  17  19
HETATM   19  C4  UNL     1      26.310   0.980  52.927  1.00  0.00     0.035 A 
HETATM   20  C3  UNL     1      25.719  -0.240  52.721  1.00  0.00     0.032 A 
HETATM   21  C2  UNL     1      26.491  -1.384  52.763  1.00  0.00     0.046 A 
HETATM   22  C1  UNL     1      27.842  -1.342  53.008  1.00  0.00     0.138 A 
HETATM   23  F1  UNL     1      28.523  -2.512  53.030  1.00  0.00    -0.204 F 
HETATM   24  C17 UNL     1      28.486  -0.122  53.225  1.00  0.00     0.074 A 
HETATM   25  C16 UNL     1      27.695   1.016  53.178  1.00  0.00     0.056 A 
HETATM   26 CL1  UNL     1      30.209  -0.162  53.536  1.00  0.00    -0.081 Cl
ENDBRANCH  17  19
ENDBRANCH   1  17
TORSDOF 2
ENDMDL
MODEL 2
REMARK VINA RESULT:      -8.7      3.608      6.396
REMARK  2 active torsions:
REMARK  status: ('A' for Active; 'I' for Inactive)
REMARK    1  A    between atoms: C4_5  and  N1_6 
REMARK    2  A    between atoms: N1_6  and  C5_7 
ROOT
HETATM    1  C5  UNL     1      24.148   0.510  53.023  1.00  0.00     0.160 A 
HETATM    2  N2  UNL     1      24.918   1.194  52.125  1.00  0.00    -0.222 NA
HETATM    3  C6  UNL     1      24.290   1.960  51.181  1.00  0.00     0.238 A 
HETATM    4  N3  UNL     1      22.947   2.028  51.149  1.00  0.00    -0.215 NA
HETATM    5  C7  UNL     1      22.187   1.347  52.046  1.00  0.00     0.202 A 
HETATM    6  C8  UNL     1      22.785   0.566  53.009  1.00  0.00     0.129 A 
HETATM    7  N4  UNL     1      22.333  -0.255  54.062  1.00  0.00    -0.379 N 
HETATM    8  C9  UNL     1      20.964  -0.405  54.488  1.00  0.00     0.161 C 
HETATM    9  C10 UNL     1      19.966  -0.285  53.416  1.00  0.00    -0.007 A 
HETATM   10  C11 UNL     1      18.919  -1.179  53.599  1.00  0.00     0.011 A 
HETATM   11  C12 UNL     1      17.823  -1.314  52.761  1.00  0.00     0.001 A 
HETATM   12  C13 UNL     1      17.765  -0.487  51.642  1.00  0.00     0.003 A 
HETATM   13  C14 UNL     1      18.767   0.434  51.381  1.00  0.00     0.038 A 
HETATM   14  C15 UNL     1      19.823   0.492  52.284  1.00  0.00     0.086 A 
HETATM   15  O1  UNL     1      20.803   1.457  51.958  1.00  0.00    -0.289 OA
HETATM   16  H5  UNL     1      23.072  -0.807  54.574  1.00  0.00     0.160 HD
ENDROOT
BRANCH   1  17
HETATM   17  N1  UNL     1      25.052  -0.205  53.849  1.00  0.00    -0.339 N 
HETATM   18  H3  UNL     1      24.648  -0.574  54.758  1.00  0.00     0.167 HD
BRANCH  17  19
HETATM   19  C4  UNL     1      26.438  -0.480  53.602  1.00  0.00     0.035 A 
HETATM   20  C3  UNL     1      27.148  -1.507  53.035  1.00  0.00     0.032 A 
HETATM   21  C2  UNL     1      28.527  -1.450  53.018  1.00  0.00     0.046 A 
HETATM   22  C1  UNL     1      29.219  -0.391  53.555  1.00  0.00     0.138 A 
HETATM   23  F1  UNL     1      30.571  -0.415  53.494  1.00  0.00    -0.204 F 
HETATM   24  C17 UNL     1      28.537   0.677  54.143  1.00  0.00     0.074 A 
HETATM   25  C16 UNL     1      27.152   0.602  54.150  1.00  0.00     0.056 A 
HETATM   26 CL1  UNL     1      29.498   1.981  54.808  1.00  0.00    -0.081 Cl
ENDBRANCH  17  19
ENDBRANCH   1  17
TORSDOF 2
ENDMDL
MODEL 3
REMARK VINA RESULT:      -8.7      1.596      1.999
REMARK  2 active torsions:
REMARK  status: ('A' for Active; 'I' for Inactive)
REMARK    1  A    between atoms: C4_5  and  N1_6 
REMARK    2  A    between atoms: N1_6  and  C5_7 
ROOT
HETATM    1  C5  UNL     1      23.850   4.573  51.951  1.00  0.00     0.160 A 
HETATM    2  N2  UNL     1      22.584   4.950  52.302  1.00  0.00    -0.222 NA
HETATM    3  C6  UNL     1      21.872   5.728  51.431  1.00  0.00     0.238 A 
HETATM    4  N3  UNL     1      22.418   6.107  50.261  1.00  0.00    -0.215 NA
HETATM    5  C7  UNL     1      23.677   5.727  49.917  1.00  0.00     0.202 A 
HETATM    6  C8  UNL     1      24.422   4.945  50.769  1.00  0.00     0.129 A 
HETATM    7  N4  UNL     1      25.715   4.384  50.749  1.00  0.00    -0.379 N 
HETATM    8  C9  UNL     1      26.637   4.426  49.640  1.00  0.00     0.161 C 
HETATM    9  C10 UNL     1      26.546   5.633  48.807  1.00  0.00    -0.007 A 
HETATM   10  C11 UNL     1      27.801   6.048  48.382  1.00  0.00     0.011 A 
HETATM   11  C12 UNL     1      28.053   7.153  47.583  1.00  0.00     0.001 A 
HETATM   12  C13 UNL     1      26.960   7.912  47.174  1.00  0.00     0.003 A 
HETATM   13  C14 UNL     1      25.671   7.572  47.552  1.00  0.00     0.038 A 
HETATM   14  C15 UNL     1      25.525   6.444  48.353  1.00  0.00     0.086 A 
HETATM   15  O1  UNL     1      24.184   6.154  48.694  1.00  0.00    -0.289 OA
HETATM   16  H5  UNL     1      26.027   3.896  51.630  1.00  0.00     0.160 HD
ENDROOT
BRANCH   1  17
HETATM   17  N1  UNL     1      24.347   3.808  53.037  1.00  0.00    -0.339 N 
HETATM   18  H3  UNL     1      24.667   4.366  53.881  1.00  0.00     0.167 HD
BRANCH  17  19
HETATM   19  C4  UNL     1      24.470   2.382  53.123  1.00  0.00     0.035 A 
HETATM   20  C3  UNL     1      23.655   1.309  52.864  1.00  0.00     0.032 A 
HETATM   21  C2  UNL     1      24.111   0.033  53.125  1.00  0.00     0.046 A 
HETATM   22  C1  UNL     1      25.362  -0.203  53.642  1.00  0.00     0.138 A 
HETATM   23  F1  UNL     1      25.729  -1.486  53.865  1.00  0.00    -0.204 F 
HETATM   24  C17 UNL     1      26.226   0.859  53.921  1.00  0.00     0.074 A 
HETATM   25  C16 UNL     1      25.751   2.134  53.652  1.00  0.00     0.056 A 
HETATM   26 CL1  UNL     1      27.799   0.468  54.583  1.00  0.00    -0.081 Cl
ENDBRANCH  17  19
ENDBRANCH   1  17
TORSDOF 2
ENDMDL
MODEL 4
REMARK VINA RESULT:      -8.6      3.561      6.964
REMARK  2 active torsions:
REMARK  status: ('A' for Active; 'I' for Inactive)
REMARK    1  A    between atoms: C4_5  and  N1_6 
REMARK    2  A    between atoms: N1_6  and  C5_7 
ROOT
HETATM    1  C5  UNL     1      24.252   2.501  52.911  1.00  0.00     0.160 A 
HETATM    2  N2  UNL     1      23.030   2.006  52.553  1.00  0.00    -0.222 NA
HETATM    3  C6  UNL     1      22.830   0.654  52.626  1.00  0.00     0.238 A 
HETATM    4  N3  UNL     1      23.821  -0.155  53.041  1.00  0.00    -0.215 NA
HETATM    5  C7  UNL     1      25.034   0.345  53.397  1.00  0.00     0.202 A 
HETATM    6  C8  UNL     1      25.271   1.699  53.336  1.00  0.00     0.129 A 
HETATM    7  N4  UNL     1      26.366   2.543  53.611  1.00  0.00    -0.379 N 
HETATM    8  C9  UNL     1      27.621   2.134  54.192  1.00  0.00     0.161 C 
HETATM    9  C10 UNL     1      28.049   0.772  53.845  1.00  0.00    -0.007 A 
HETATM   10  C11 UNL     1      29.424   0.706  53.660  1.00  0.00     0.011 A 
HETATM   11  C12 UNL     1      30.135  -0.436  53.325  1.00  0.00     0.001 A 
HETATM   12  C13 UNL     1      29.414  -1.615  53.157  1.00  0.00     0.003 A 
HETATM   13  C14 UNL     1      28.038  -1.641  53.321  1.00  0.00     0.038 A 
HETATM   14  C15 UNL     1      27.418  -0.442  53.659  1.00  0.00     0.086 A 
HETATM   15  O1  UNL     1      26.018  -0.546  53.815  1.00  0.00    -0.289 OA
HETATM   16  H5  UNL     1      26.245   3.560  53.362  1.00  0.00     0.160 HD
ENDROOT
BRANCH   1  17
HETATM   17  N1  UNL     1      24.179   3.904  52.713  1.00  0.00    -0.339 N 
HETATM   18  H3  UNL     1      24.282   4.496  53.588  1.00  0.00     0.167 HD
BRANCH  17  19
HETATM   19  C4  UNL     1      23.980   4.608  51.479  1.00  0.00     0.035 A 
HETATM   20  C3  UNL     1      22.915   5.198  50.848  1.00  0.00     0.032 A 
HETATM   21  C2  UNL     1      23.092   5.755  49.598  1.00  0.00     0.046 A 
HETATM   22  C1  UNL     1      24.307   5.737  48.957  1.00  0.00     0.138 A 
HETATM   23  F1  UNL     1      24.392   6.308  47.733  1.00  0.00    -0.204 F 
HETATM   24  C17 UNL     1      25.419   5.146  49.561  1.00  0.00     0.074 A 
HETATM   25  C16 UNL     1      25.223   4.593  50.818  1.00  0.00     0.056 A 
HETATM   26 CL1  UNL     1      26.927   5.163  48.671  1.00  0.00    -0.081 Cl
ENDBRANCH  17  19
ENDBRANCH   1  17
TORSDOF 2
ENDMDL
MODEL 5
REMARK VINA RESULT:      -8.5      3.666      7.016
REMARK  2 active torsions:
REMARK  status: ('A' for Active; 'I' for Inactive)
REMARK    1  A    between atoms: C4_5  and  N1_6 
REMARK    2  A    between atoms: N1_6  and  C5_7 
ROOT
HETATM    1  C5  UNL     1      24.248   3.296  51.500  1.00  0.00     0.160 A 
HETATM    2  N2  UNL     1      23.025   3.127  50.914  1.00  0.00    -0.222 NA
HETATM    3  C6  UNL     1      22.431   1.897  50.991  1.00  0.00     0.238 A 
HETATM    4  N3  UNL     1      23.050   0.887  51.630  1.00  0.00    -0.215 NA
HETATM    5  C7  UNL     1      24.266   1.062  52.210  1.00  0.00     0.202 A 
HETATM    6  C8  UNL     1      24.891   2.286  52.153  1.00  0.00     0.129 A 
HETATM    7  N4  UNL     1      26.112   2.816  52.619  1.00  0.00    -0.379 N 
HETATM    8  C9  UNL     1      27.063   2.132  53.460  1.00  0.00     0.161 C 
HETATM    9  C10 UNL     1      27.135   0.678  53.256  1.00  0.00    -0.007 A 
HETATM   10  C11 UNL     1      28.441   0.218  53.361  1.00  0.00     0.011 A 
HETATM   11  C12 UNL     1      28.841  -1.102  53.220  1.00  0.00     0.001 A 
HETATM   12  C13 UNL     1      27.855  -2.045  52.948  1.00  0.00     0.003 A 
HETATM   13  C14 UNL     1      26.525  -1.675  52.825  1.00  0.00     0.038 A 
HETATM   14  C15 UNL     1      26.227  -0.326  52.986  1.00  0.00     0.086 A 
HETATM   15  O1  UNL     1      24.853  -0.023  52.853  1.00  0.00    -0.289 OA
HETATM   16  H5  UNL     1      26.340   3.800  52.316  1.00  0.00     0.160 HD
ENDROOT
BRANCH   1  17
HETATM   17  N1  UNL     1      24.622   4.640  51.243  1.00  0.00    -0.339 N 
HETATM   18  H3  UNL     1      24.175   5.368  51.872  1.00  0.00     0.167 HD
BRANCH  17  19
HETATM   19  C4  UNL     1      25.523   5.124  50.237  1.00  0.00     0.035 A 
HETATM   20  C3  UNL     1      26.441   4.559  49.388  1.00  0.00     0.032 A 
HETATM   21  C2  UNL     1      27.191   5.372  48.563  1.00  0.00     0.046 A 
HETATM   22  C1  UNL     1      27.051   6.739  48.563  1.00  0.00     0.138 A 
HETATM   23  F1  UNL     1      27.826   7.460  47.720  1.00  0.00    -0.204 F 
HETATM   24  C17 UNL     1      26.130   7.357  49.411  1.00  0.00     0.074 A 
HETATM   25  C16 UNL     1      25.383   6.524  50.232  1.00  0.00     0.056 A 
HETATM   26 CL1  UNL     1      26.021   9.104  49.350  1.00  0.00    -0.081 Cl
ENDBRANCH  17  19
ENDBRANCH   1  17
TORSDOF 2
ENDMDL
MODEL 6
REMARK VINA RESULT:      -8.5      4.115      7.545
REMARK  2 active torsions:
REMARK  status: ('A' for Active; 'I' for Inactive)
REMARK    1  A    between atoms: C4_5  and  N1_6 
REMARK    2  A    between atoms: N1_6  and  C5_7 
ROOT
HETATM    1  C5  UNL     1      25.470   2.695  50.929  1.00  0.00     0.160 A 
HETATM    2  N2  UNL     1      26.773   2.857  51.309  1.00  0.00    -0.222 NA
HETATM    3  C6  UNL     1      27.291   1.996  52.238  1.00  0.00     0.238 A 
HETATM    4  N3  UNL     1      26.524   1.020  52.756  1.00  0.00    -0.215 NA
HETATM    5  C7  UNL     1      25.229   0.864  52.374  1.00  0.00     0.202 A 
HETATM    6  C8  UNL     1      24.676   1.712  51.442  1.00  0.00     0.129 A 
HETATM    7  N4  UNL     1      23.413   1.850  50.831  1.00  0.00    -0.379 N 
HETATM    8  C9  UNL     1      22.295   0.953  50.991  1.00  0.00     0.161 C 
HETATM    9  C10 UNL     1      22.202   0.310  52.309  1.00  0.00    -0.007 A 
HETATM   10  C11 UNL     1      20.882   0.195  52.723  1.00  0.00     0.011 A 
HETATM   11  C12 UNL     1      20.461  -0.366  53.920  1.00  0.00     0.001 A 
HETATM   12  C13 UNL     1      21.442  -0.852  54.780  1.00  0.00     0.003 A 
HETATM   13  C14 UNL     1      22.785  -0.778  54.448  1.00  0.00     0.038 A 
HETATM   14  C15 UNL     1      23.103  -0.200  53.223  1.00  0.00     0.086 A 
HETATM   15  O1  UNL     1      24.489  -0.164  52.950  1.00  0.00    -0.289 OA
HETATM   16  H5  UNL     1      23.285   2.689  50.206  1.00  0.00     0.160 HD
ENDROOT
BRANCH   1  17
HETATM   17  N1  UNL     1      25.205   3.727  49.992  1.00  0.00    -0.339 N 
HETATM   18  H3  UNL     1      24.198   3.800  49.665  1.00  0.00     0.167 HD
BRANCH  17  19
HETATM   19  C4  UNL     1      26.133   4.669  49.438  1.00  0.00     0.035 A 
HETATM   20  C3  UNL     1      27.320   4.592  48.756  1.00  0.00     0.032 A 
HETATM   21  C2  UNL     1      27.983   5.753  48.415  1.00  0.00     0.046 A 
HETATM   22  C1  UNL     1      27.491   6.995  48.738  1.00  0.00     0.138 A 
HETATM   23  F1  UNL     1      28.205   8.082  48.362  1.00  0.00    -0.204 F 
HETATM   24  C17 UNL     1      26.286   7.122  49.432  1.00  0.00     0.074 A 
HETATM   25  C16 UNL     1      25.633   5.944  49.766  1.00  0.00     0.056 A 
HETATM   26 CL1  UNL     1      25.737   8.742  49.807  1.00  0.00    -0.081 Cl
ENDBRANCH  17  19
ENDBRANCH   1  17
TORSDOF 2
ENDMDL
MODEL 7
REMARK VINA RESULT:      -8.4      1.785      2.214
REMARK  2 active torsions:
REMARK  status: ('A' for Active; 'I' for Inactive)
REMARK    1  A    between atoms: C4_5  and  N1_6 
REMARK    2  A    between atoms: N1_6  and  C5_7 
ROOT
HETATM    1  C5  UNL     1      25.342   3.571  50.915  1.00  0.00     0.160 A 
HETATM    2  N2  UNL     1      24.294   3.473  51.786  1.00  0.00    -0.222 NA
HETATM    3  C6  UNL     1      23.518   4.581  51.996  1.00  0.00     0.238 A 
HETATM    4  N3  UNL     1      23.793   5.730  51.354  1.00  0.00    -0.215 NA
HETATM    5  C7  UNL     1      24.837   5.820  50.488  1.00  0.00     0.202 A 
HETATM    6  C8  UNL     1      25.638   4.726  50.253  1.00  0.00     0.129 A 
HETATM    7  N4  UNL     1      26.769   4.460  49.454  1.00  0.00    -0.379 N 
HETATM    8  C9  UNL     1      27.361   5.365  48.500  1.00  0.00     0.161 C 
HETATM    9  C10 UNL     1      27.257   6.788  48.852  1.00  0.00    -0.007 A 
HETATM   10  C11 UNL     1      28.408   7.480  48.498  1.00  0.00     0.011 A 
HETATM   11  C12 UNL     1      28.622   8.836  48.696  1.00  0.00     0.001 A 
HETATM   12  C13 UNL     1      27.602   9.565  49.302  1.00  0.00     0.003 A 
HETATM   13  C14 UNL     1      26.419   8.955  49.688  1.00  0.00     0.038 A 
HETATM   14  C15 UNL     1      26.302   7.591  49.443  1.00  0.00     0.086 A 
HETATM   15  O1  UNL     1      25.069   7.039  49.858  1.00  0.00    -0.289 OA
HETATM   16  H5  UNL     1      27.215   3.512  49.577  1.00  0.00     0.160 HD
ENDROOT
BRANCH   1  17
HETATM   17  N1  UNL     1      25.972   2.300  50.916  1.00  0.00    -0.339 N 
HETATM   18  H3  UNL     1      25.785   1.695  50.065  1.00  0.00     0.167 HD
BRANCH  17  19
HETATM   19  C4  UNL     1      26.820   1.741  51.929  1.00  0.00     0.035 A 
HETATM   20  C3  UNL     1      27.725   2.235  52.834  1.00  0.00     0.032 A 
HETATM   21  C2  UNL     1      28.419   1.361  53.645  1.00  0.00     0.046 A 
HETATM   22  C1  UNL     1      28.234   0.001  53.578  1.00  0.00     0.138 A 
HETATM   23  F1  UNL     1      28.954  -0.783  54.413  1.00  0.00    -0.204 F 
HETATM   24  C17 UNL     1      27.323  -0.547  52.672  1.00  0.00     0.074 A 
HETATM   25  C16 UNL     1      26.634   0.347  51.865  1.00  0.00     0.056 A 
HETATM   26 CL1  UNL     1      27.155  -2.290  52.650  1.00  0.00    -0.081 Cl
ENDBRANCH  17  19
ENDBRANCH   1  17
TORSDOF 2
ENDMDL
MODEL 8
REMARK VINA RESULT:      -8.3      3.680      7.056
REMARK  2 active torsions:
REMARK  status: ('A' for Active; 'I' for Inactive)
REMARK    1  A    between atoms: C4_5  and  N1_6 
REMARK    2  A    between atoms: N1_6  and  C5_7 
ROOT
HETATM    1  C5  UNL     1      24.411   4.974  50.491  1.00  0.00     0.160 A 
HETATM    2  N2  UNL     1      23.194   5.590  50.573  1.00  0.00    -0.222 NA
HETATM    3  C6  UNL     1      22.310   5.162  51.525  1.00  0.00     0.238 A 
HETATM    4  N3  UNL     1      22.644   4.157  52.354  1.00  0.00    -0.215 NA
HETATM    5  C7  UNL     1      23.856   3.548  52.269  1.00  0.00     0.202 A 
HETATM    6  C8  UNL     1      24.770   3.953  51.323  1.00  0.00     0.129 A 
HETATM    7  N4  UNL     1      26.073   3.566  50.951  1.00  0.00    -0.379 N 
HETATM    8  C9  UNL     1      26.893   2.595  51.635  1.00  0.00     0.161 C 
HETATM    9  C10 UNL     1      26.151   1.496  52.268  1.00  0.00    -0.007 A 
HETATM   10  C11 UNL     1      26.832   0.292  52.149  1.00  0.00     0.011 A 
HETATM   11  C12 UNL     1      26.397  -0.928  52.641  1.00  0.00     0.001 A 
HETATM   12  C13 UNL     1      25.175  -0.953  53.308  1.00  0.00     0.003 A 
HETATM   13  C14 UNL     1      24.427   0.202  53.473  1.00  0.00     0.038 A 
HETATM   14  C15 UNL     1      24.953   1.376  52.944  1.00  0.00     0.086 A 
HETATM   15  O1  UNL     1      24.139   2.513  53.154  1.00  0.00    -0.289 OA
HETATM   16  H5  UNL     1      26.473   4.032  50.094  1.00  0.00     0.160 HD
ENDROOT
BRANCH   1  17
HETATM   17  N1  UNL     1      25.095   5.597  49.417  1.00  0.00    -0.339 N 
HETATM   18  H3  UNL     1      24.912   5.183  48.456  1.00  0.00     0.167 HD
BRANCH  17  19
HETATM   19  C4  UNL     1      26.000   6.707  49.477  1.00  0.00     0.035 A 
HETATM   20  C3  UNL     1      26.046   7.900  50.152  1.00  0.00     0.032 A 
HETATM   21  C2  UNL     1      27.084   8.776  49.911  1.00  0.00     0.046 A 
HETATM   22  C1  UNL     1      28.082   8.494  49.010  1.00  0.00     0.138 A 
HETATM   23  F1  UNL     1      29.064   9.409  48.837  1.00  0.00    -0.204 F 
HETATM   24  C17 UNL     1      28.076   7.292  48.300  1.00  0.00     0.074 A 
HETATM   25  C16 UNL     1      27.025   6.423  48.556  1.00  0.00     0.056 A 
HETATM   26 CL1  UNL     1      29.383   7.016  47.167  1.00  0.00    -0.081 Cl
ENDBRANCH  17  19
ENDBRANCH   1  17
TORSDOF 2
ENDMDL
MODEL 9
REMARK VINA RESULT:      -8.2      4.053      7.471
REMARK  2 active torsions:
REMARK  status: ('A' for Active; 'I' for Inactive)
REMARK    1  A    between atoms: C4_5  and  N1_6 
REMARK    2  A    between atoms: N1_6  and  C5_7 
ROOT
HETATM    1  C5  UNL     1      25.557   2.700  50.768  1.00  0.00     0.160 A 
HETATM    2  N2  UNL     1      26.849   2.833  51.193  1.00  0.00    -0.222 NA
HETATM    3  C6  UNL     1      27.290   2.020  52.201  1.00  0.00     0.238 A 
HETATM    4  N3  UNL     1      26.459   1.117  52.753  1.00  0.00    -0.215 NA
HETATM    5  C7  UNL     1      25.176   0.989  52.326  1.00  0.00     0.202 A 
HETATM    6  C8  UNL     1      24.699   1.790  51.313  1.00  0.00     0.129 A 
HETATM    7  N4  UNL     1      23.469   1.937  50.640  1.00  0.00    -0.379 N 
HETATM    8  C9  UNL     1      22.306   1.102  50.814  1.00  0.00     0.161 C 
HETATM    9  C10 UNL     1      22.132   0.559  52.168  1.00  0.00    -0.007 A 
HETATM   10  C11 UNL     1      20.792   0.530  52.531  1.00  0.00     0.011 A 
HETATM   11  C12 UNL     1      20.298   0.075  53.744  1.00  0.00     0.001 A 
HETATM   12  C13 UNL     1      21.220  -0.389  54.678  1.00  0.00     0.003 A 
HETATM   13  C14 UNL     1      22.578  -0.396  54.401  1.00  0.00     0.038 A 
HETATM   14  C15 UNL     1      22.971   0.079  53.154  1.00  0.00     0.086 A 
HETATM   15  O1  UNL     1      24.367   0.037  52.939  1.00  0.00    -0.289 OA
HETATM   16  H5  UNL     1      23.405   2.734  49.953  1.00  0.00     0.160 HD
ENDROOT
BRANCH   1  17
HETATM   17  N1  UNL     1      25.377   3.672  49.751  1.00  0.00    -0.339 N 
HETATM   18  H3  UNL     1      24.983   3.309  48.835  1.00  0.00     0.167 HD
BRANCH  17  19
HETATM   19  C4  UNL     1      25.669   5.075  49.815  1.00  0.00     0.035 A 
HETATM   20  C3  UNL     1      25.170   6.150  50.505  1.00  0.00     0.032 A 
HETATM   21  C2  UNL     1      25.682   7.408  50.262  1.00  0.00     0.046 A 
HETATM   22  C1  UNL     1      26.682   7.623  49.345  1.00  0.00     0.138 A 
HETATM   23  F1  UNL     1      27.128   8.890  49.172  1.00  0.00    -0.204 F 
HETATM   24  C17 UNL     1      27.220   6.558  48.620  1.00  0.00     0.074 A 
HETATM   25  C16 UNL     1      26.694   5.301  48.877  1.00  0.00     0.056 A 
HETATM   26 CL1  UNL     1      28.488   6.924  47.468  1.00  0.00    -0.081 Cl
ENDBRANCH  17  19
ENDBRANCH   1  17
TORSDOF 2
ENDMDL
