MODEL 1
REMARK VINA RESULT:      -7.5      0.000      0.000
REMARK  4 active torsions:
REMARK  status: ('A' for Active; 'I' for Inactive)
REMARK    1  A    between atoms: C2_2  and  O1_3 
REMARK    2  A    between atoms: O1_3  and  C3_4 
REMARK    3  A    between atoms: N3_11  and  C8_12 
REMARK    4  A    between atoms: C14_19  and  O2_20 
ROOT
HETATM    1  C3  UNL     1      24.829   2.833  51.553  1.00  0.00     0.115 A 
HETATM    2  C4  UNL     1      25.343   1.859  52.246  1.00  0.00     0.047 A 
HETATM    3  C5  UNL     1      24.585   1.060  52.911  1.00  0.00     0.103 A 
HETATM    4  C6  UNL     1      23.130   1.150  52.961  1.00  0.00     0.090 A 
HETATM    5  N1  UNL     1      22.403   0.320  53.647  1.00  0.00    -0.238 NA
HETATM    6  C7  UNL     1      23.023  -0.740  54.398  1.00  0.00     0.256 A 
HETATM    7  N2  UNL     1      24.307  -0.828  54.361  1.00  0.00    -0.159 NA
HETATM    8  N3  UNL     1      25.165   0.000  53.665  1.00  0.00    -0.214 N 
HETATM    9  C13 UNL     1      22.543   2.252  52.175  1.00  0.00     0.073 A 
HETATM   10  C14 UNL     1      23.390   3.050  51.504  1.00  0.00     0.104 A 
ENDROOT
BRANCH   8  11
HETATM   11  C8  UNL     1      26.567  -0.237  53.731  1.00  0.00     0.125 A 
HETATM   12  C9  UNL     1      27.219  -1.116  52.985  1.00  0.00     0.050 A 
HETATM   13  C10 UNL     1      28.671  -1.284  53.133  1.00  0.00     0.001 A 
HETATM   14  C11 UNL     1      29.331  -0.542  54.027  1.00  0.00    -0.007 A 
HETATM   15  C12 UNL     1      28.691   0.466  54.908  1.00  0.00     0.148 A 
HETATM   16  N4  UNL     1      27.267   0.554  54.685  1.00  0.00    -0.371 N 
HETATM   17  H12 UNL     1      26.878   1.276  55.329  1.00  0.00     0.161 HD
ENDBRANCH   8  11
BRANCH   1  18
HETATM   18  O1  UNL     1      25.605   3.715  50.824  1.00  0.00    -0.348 OA
BRANCH  18  19
HETATM   19  C2  UNL     1      26.478   3.298  49.790  1.00  0.00     0.171 C 
HETATM   20  C1  UNL     1      27.082   4.463  49.027  1.00  0.00     0.034 C 
ENDBRANCH  18  19
ENDBRANCH   1  18
BRANCH  10  21
HETATM   21  O2  UNL     1      22.717   4.043  50.808  1.00  0.00    -0.353 OA
HETATM   22  C15 UNL     1      22.480   5.275  51.458  1.00  0.00     0.210 C 
ENDBRANCH  10  21
TORSDOF 4
ENDMDL
MODEL 2
REMARK VINA RESULT:      -7.4      1.345      1.700
REMARK  4 active torsions:
REMARK  status: ('A' for Active; 'I' for Inactive)
REMARK    1  A    between atoms: C2_2  and  O1_3 
REMARK    2  A    between atoms: O1_3  and  C3_4 
REMARK    3  A    between atoms: N3_11  and  C8_12 
REMARK    4  A    between atoms: C14_19  and  O2_20 
ROOT
HETATM    1  C3  UNL     1      24.523   1.732  51.500  1.00  0.00     0.115 A 
HETATM    2  C4  UNL     1      25.286   1.059  52.311  1.00  0.00     0.047 A 
HETATM    3  C5  UNL     1      24.771   0.318  53.228  1.00  0.00     0.103 A 
HETATM    4  C6  UNL     1      23.339   0.156  53.454  1.00  0.00     0.090 A 
HETATM    5  N1  UNL     1      22.862  -0.604  54.394  1.00  0.00    -0.238 NA
HETATM    6  C7  UNL     1      23.751  -1.326  55.265  1.00  0.00     0.256 A 
HETATM    7  N2  UNL     1      25.018  -1.190  55.075  1.00  0.00    -0.159 NA
HETATM    8  N3  UNL     1      25.621  -0.411  54.107  1.00  0.00    -0.214 N 
HETATM    9  C13 UNL     1      22.470   0.917  52.535  1.00  0.00     0.073 A 
HETATM   10  C14 UNL     1      23.071   1.670  51.600  1.00  0.00     0.104 A 
ENDROOT
BRANCH   8  11
HETATM   11  C8  UNL     1      27.042  -0.371  54.034  1.00  0.00     0.125 A 
HETATM   12  C9  UNL     1      27.795   0.606  54.517  1.00  0.00     0.050 A 
HETATM   13  C10 UNL     1      29.258   0.551  54.388  1.00  0.00     0.001 A 
HETATM   14  C11 UNL     1      29.824  -0.495  53.780  1.00  0.00    -0.007 A 
HETATM   15  C12 UNL     1      29.068  -1.637  53.206  1.00  0.00     0.148 A 
HETATM   16  N4  UNL     1      27.643  -1.486  53.384  1.00  0.00    -0.371 N 
HETATM   17  H12 UNL     1      27.170  -2.314  52.964  1.00  0.00     0.161 HD
ENDBRANCH   8  11
BRANCH   1  18
HETATM   18  O1  UNL     1      25.033   2.539  50.500  1.00  0.00    -0.348 OA
BRANCH  18  19
HETATM   19  C2  UNL     1      26.392   2.930  50.446  1.00  0.00     0.171 C 
HETATM   20  C1  UNL     1      26.666   3.958  49.363  1.00  0.00     0.034 C 
ENDBRANCH  18  19
ENDBRANCH   1  18
BRANCH  10  21
HETATM   21  O2  UNL     1      22.149   2.332  50.803  1.00  0.00    -0.353 OA
HETATM   22  C15 UNL     1      21.736   1.716  49.601  1.00  0.00     0.210 C 
ENDBRANCH  10  21
TORSDOF 4
ENDMDL
MODEL 3
REMARK VINA RESULT:      -7.2      2.708      5.385
REMARK  4 active torsions:
REMARK  status: ('A' for Active; 'I' for Inactive)
REMARK    1  A    between atoms: C2_2  and  O1_3 
REMARK    2  A    between atoms: O1_3  and  C3_4 
REMARK    3  A    between atoms: N3_11  and  C8_12 
REMARK    4  A    between atoms: C14_19  and  O2_20 
ROOT
HETATM    1  C3  UNL     1      26.502   1.375  53.515  1.00  0.00     0.115 A 
HETATM    2  C4  UNL     1      26.118   2.065  52.480  1.00  0.00     0.047 A 
HETATM    3  C5  UNL     1      24.965   1.858  51.949  1.00  0.00     0.103 A 
HETATM    4  C6  UNL     1      24.000   0.871  52.423  1.00  0.00     0.090 A 
HETATM    5  N1  UNL     1      22.845   0.695  51.855  1.00  0.00    -0.238 NA
HETATM    6  C7  UNL     1      22.470   1.486  50.711  1.00  0.00     0.256 A 
HETATM    7  N2  UNL     1      23.314   2.360  50.285  1.00  0.00    -0.159 NA
HETATM    8  N3  UNL     1      24.561   2.622  50.817  1.00  0.00    -0.214 N 
HETATM    9  C13 UNL     1      24.432   0.087  53.596  1.00  0.00     0.073 A 
HETATM   10  C14 UNL     1      25.647   0.353  54.103  1.00  0.00     0.104 A 
ENDROOT
BRANCH   8  11
HETATM   11  C8  UNL     1      25.374   3.626  50.221  1.00  0.00     0.125 A 
HETATM   12  C9  UNL     1      26.431   3.387  49.459  1.00  0.00     0.050 A 
HETATM   13  C10 UNL     1      27.205   4.499  48.890  1.00  0.00     0.001 A 
HETATM   14  C11 UNL     1      26.834   5.757  49.147  1.00  0.00    -0.007 A 
HETATM   15  C12 UNL     1      25.667   6.126  49.988  1.00  0.00     0.148 A 
HETATM   16  N4  UNL     1      24.977   4.965  50.497  1.00  0.00    -0.371 N 
HETATM   17  H12 UNL     1      24.173   5.289  51.076  1.00  0.00     0.161 HD
ENDBRANCH   8  11
BRANCH   1  18
HETATM   18  O1  UNL     1      27.732   1.564  54.117  1.00  0.00    -0.348 OA
BRANCH  18  19
HETATM   19  C2  UNL     1      28.958   1.290  53.465  1.00  0.00     0.171 C 
HETATM   20  C1  UNL     1      29.496  -0.093  53.783  1.00  0.00     0.034 C 
ENDBRANCH  18  19
ENDBRANCH   1  18
BRANCH  10  21
HETATM   21  O2  UNL     1      25.933  -0.448  55.199  1.00  0.00    -0.353 OA
HETATM   22  C15 UNL     1      24.876  -1.176  55.791  1.00  0.00     0.210 C 
ENDBRANCH  10  21
TORSDOF 4
ENDMDL
MODEL 4
REMARK VINA RESULT:      -7.1      2.443      4.211
REMARK  4 active torsions:
REMARK  status: ('A' for Active; 'I' for Inactive)
REMARK    1  A    between atoms: C2_2  and  O1_3 
REMARK    2  A    between atoms: O1_3  and  C3_4 
REMARK    3  A    between atoms: N3_11  and  C8_12 
REMARK    4  A    between atoms: C14_19  and  O2_20 
ROOT
HETATM    1  C3  UNL     1      23.158   1.087  52.746  1.00  0.00     0.115 A 
HETATM    2  C4  UNL     1      24.442   1.255  52.620  1.00  0.00     0.047 A 
HETATM    3  C5  UNL     1      24.916   1.984  51.672  1.00  0.00     0.103 A 
HETATM    4  C6  UNL     1      24.104   2.676  50.676  1.00  0.00     0.090 A 
HETATM    5  N1  UNL     1      24.626   3.403  49.734  1.00  0.00    -0.238 NA
HETATM    6  C7  UNL     1      26.054   3.554  49.639  1.00  0.00     0.256 A 
HETATM    7  N2  UNL     1      26.780   2.948  50.513  1.00  0.00    -0.159 NA
HETATM    8  N3  UNL     1      26.324   2.155  51.548  1.00  0.00    -0.214 N 
HETATM    9  C13 UNL     1      22.647   2.489  50.816  1.00  0.00     0.073 A 
HETATM   10  C14 UNL     1      22.219   1.716  51.827  1.00  0.00     0.104 A 
ENDROOT
BRANCH   8  11
HETATM   11  C8  UNL     1      27.266   1.554  52.430  1.00  0.00     0.125 A 
HETATM   12  C9  UNL     1      27.454   0.249  52.557  1.00  0.00     0.050 A 
HETATM   13  C10 UNL     1      28.455  -0.269  53.500  1.00  0.00     0.001 A 
HETATM   14  C11 UNL     1      29.176   0.587  54.229  1.00  0.00    -0.007 A 
HETATM   15  C12 UNL     1      29.039   2.063  54.159  1.00  0.00     0.148 A 
HETATM   16  N4  UNL     1      28.033   2.469  53.206  1.00  0.00    -0.371 N 
HETATM   17  H12 UNL     1      27.984   3.510  53.203  1.00  0.00     0.161 HD
ENDBRANCH   8  11
BRANCH   1  18
HETATM   18  O1  UNL     1      22.606   0.312  53.749  1.00  0.00    -0.348 OA
BRANCH  18  19
HETATM   19  C2  UNL     1      22.390  -1.080  53.614  1.00  0.00     0.171 C 
HETATM   20  C1  UNL     1      21.141  -1.554  54.334  1.00  0.00     0.034 C 
ENDBRANCH  18  19
ENDBRANCH   1  18
BRANCH  10  21
HETATM   21  O2  UNL     1      20.835   1.621  51.850  1.00  0.00    -0.353 OA
HETATM   22  C15 UNL     1      20.088   2.784  52.141  1.00  0.00     0.210 C 
ENDBRANCH  10  21
TORSDOF 4
ENDMDL
MODEL 5
REMARK VINA RESULT:      -7.0      2.861      6.448
REMARK  4 active torsions:
REMARK  status: ('A' for Active; 'I' for Inactive)
REMARK    1  A    between atoms: C2_2  and  O1_3 
REMARK    2  A    between atoms: O1_3  and  C3_4 
REMARK    3  A    between atoms: N3_11  and  C8_12 
REMARK    4  A    between atoms: C14_19  and  O2_20 
ROOT
HETATM    1  C3  UNL     1      25.662  -0.327  53.665  1.00  0.00     0.115 A 
HETATM    2  C4  UNL     1      24.803   0.342  52.953  1.00  0.00     0.047 A 
HETATM    3  C5  UNL     1      25.198   1.274  52.160  1.00  0.00     0.103 A 
HETATM    4  C6  UNL     1      26.590   1.668  51.974  1.00  0.00     0.090 A 
HETATM    5  N1  UNL     1      26.945   2.617  51.160  1.00  0.00    -0.238 NA
HETATM    6  C7  UNL     1      25.953   3.327  50.397  1.00  0.00     0.256 A 
HETATM    7  N2  UNL     1      24.720   2.987  50.552  1.00  0.00    -0.159 NA
HETATM    8  N3  UNL     1      24.243   1.997  51.389  1.00  0.00    -0.214 N 
HETATM    9  C13 UNL     1      27.567   0.911  52.780  1.00  0.00     0.073 A 
HETATM   10  C14 UNL     1      27.089  -0.049  53.588  1.00  0.00     0.104 A 
ENDROOT
BRANCH   8  11
HETATM   11  C8  UNL     1      22.843   1.747  51.442  1.00  0.00     0.125 A 
HETATM   12  C9  UNL     1      22.211   0.838  50.715  1.00  0.00     0.050 A 
HETATM   13  C10 UNL     1      20.758   0.660  50.847  1.00  0.00     0.001 A 
HETATM   14  C11 UNL     1      20.078   1.423  51.708  1.00  0.00    -0.007 A 
HETATM   15  C12 UNL     1      20.695   2.467  52.564  1.00  0.00     0.148 A 
HETATM   16  N4  UNL     1      22.121   2.562  52.360  1.00  0.00    -0.371 N 
HETATM   17  H12 UNL     1      22.494   3.307  52.986  1.00  0.00     0.161 HD
ENDBRANCH   8  11
BRANCH   1  18
HETATM   18  O1  UNL     1      25.281  -1.336  54.531  1.00  0.00    -0.348 OA
BRANCH  18  19
HETATM   19  C2  UNL     1      24.479  -1.106  55.675  1.00  0.00     0.171 C 
HETATM   20  C1  UNL     1      23.014  -1.426  55.438  1.00  0.00     0.034 C 
ENDBRANCH  18  19
ENDBRANCH   1  18
BRANCH  10  21
HETATM   21  O2  UNL     1      28.104  -0.684  54.288  1.00  0.00    -0.353 OA
HETATM   22  C15 UNL     1      29.442  -0.427  53.911  1.00  0.00     0.210 C 
ENDBRANCH  10  21
TORSDOF 4
ENDMDL
MODEL 6
REMARK VINA RESULT:      -7.0      1.866      5.130
REMARK  4 active torsions:
REMARK  status: ('A' for Active; 'I' for Inactive)
REMARK    1  A    between atoms: C2_2  and  O1_3 
REMARK    2  A    between atoms: O1_3  and  C3_4 
REMARK    3  A    between atoms: N3_11  and  C8_12 
REMARK    4  A    between atoms: C14_19  and  O2_20 
ROOT
HETATM    1  C3  UNL     1      26.547   1.339  52.374  1.00  0.00     0.115 A 
HETATM    2  C4  UNL     1      25.275   1.088  52.483  1.00  0.00     0.047 A 
HETATM    3  C5  UNL     1      24.839   0.311  53.410  1.00  0.00     0.103 A 
HETATM    4  C6  UNL     1      25.683  -0.348  54.402  1.00  0.00     0.090 A 
HETATM    5  N1  UNL     1      25.200  -1.126  55.323  1.00  0.00    -0.238 NA
HETATM    6  C7  UNL     1      23.783  -1.371  55.397  1.00  0.00     0.256 A 
HETATM    7  N2  UNL     1      23.029  -0.794  54.527  1.00  0.00    -0.159 NA
HETATM    8  N3  UNL     1      23.444   0.048  53.514  1.00  0.00    -0.214 N 
HETATM    9  C13 UNL     1      27.126  -0.065  54.282  1.00  0.00     0.073 A 
HETATM   10  C14 UNL     1      27.515   0.754  53.292  1.00  0.00     0.104 A 
ENDROOT
BRANCH   8  11
HETATM   11  C8  UNL     1      22.475   0.604  52.632  1.00  0.00     0.125 A 
HETATM   12  C9  UNL     1      21.790  -0.086  51.732  1.00  0.00     0.050 A 
HETATM   13  C10 UNL     1      20.810   0.587  50.868  1.00  0.00     0.001 A 
HETATM   14  C11 UNL     1      20.613   1.902  50.998  1.00  0.00    -0.007 A 
HETATM   15  C12 UNL     1      21.331   2.760  51.974  1.00  0.00     0.148 A 
HETATM   16  N4  UNL     1      22.268   2.006  52.772  1.00  0.00    -0.371 N 
HETATM   17  H12 UNL     1      22.737   2.660  53.434  1.00  0.00     0.161 HD
ENDBRANCH   8  11
BRANCH   1  18
HETATM   18  O1  UNL     1      27.059   2.167  51.392  1.00  0.00    -0.348 OA
BRANCH  18  19
HETATM   19  C2  UNL     1      26.317   3.227  50.817  1.00  0.00     0.171 C 
HETATM   20  C1  UNL     1      26.665   3.464  49.359  1.00  0.00     0.034 C 
ENDBRANCH  18  19
ENDBRANCH   1  18
BRANCH  10  21
HETATM   21  O2  UNL     1      28.890   0.939  53.287  1.00  0.00    -0.353 OA
HETATM   22  C15 UNL     1      29.712  -0.134  53.699  1.00  0.00     0.210 C 
ENDBRANCH  10  21
TORSDOF 4
ENDMDL
MODEL 7
REMARK VINA RESULT:      -6.9      2.540      5.331
REMARK  4 active torsions:
REMARK  status: ('A' for Active; 'I' for Inactive)
REMARK    1  A    between atoms: C2_2  and  O1_3 
REMARK    2  A    between atoms: O1_3  and  C3_4 
REMARK    3  A    between atoms: N3_11  and  C8_12 
REMARK    4  A    between atoms: C14_19  and  O2_20 
ROOT
HETATM    1  C3  UNL     1      23.062   0.935  52.107  1.00  0.00     0.115 A 
HETATM    2  C4  UNL     1      24.035   1.712  51.731  1.00  0.00     0.047 A 
HETATM    3  C5  UNL     1      25.226   1.535  52.185  1.00  0.00     0.103 A 
HETATM    4  C6  UNL     1      25.603   0.489  53.130  1.00  0.00     0.090 A 
HETATM    5  N1  UNL     1      26.820   0.346  53.563  1.00  0.00    -0.238 NA
HETATM    6  C7  UNL     1      27.860   1.235  53.115  1.00  0.00     0.256 A 
HETATM    7  N2  UNL     1      27.537   2.161  52.280  1.00  0.00    -0.159 NA
HETATM    8  N3  UNL     1      26.278   2.395  51.762  1.00  0.00    -0.214 N 
HETATM    9  C13 UNL     1      24.502  -0.394  53.559  1.00  0.00     0.073 A 
HETATM   10  C14 UNL     1      23.284  -0.155  53.047  1.00  0.00     0.104 A 
ENDROOT
BRANCH   8  11
HETATM   11  C8  UNL     1      26.092   3.468  50.845  1.00  0.00     0.125 A 
HETATM   12  C9  UNL     1      26.742   3.600  49.698  1.00  0.00     0.050 A 
HETATM   13  C10 UNL     1      26.475   4.749  48.821  1.00  0.00     0.001 A 
HETATM   14  C11 UNL     1      25.570   5.660  49.190  1.00  0.00    -0.007 A 
HETATM   15  C12 UNL     1      24.793   5.600  50.453  1.00  0.00     0.148 A 
HETATM   16  N4  UNL     1      25.128   4.437  51.240  1.00  0.00    -0.371 N 
HETATM   17  H12 UNL     1      24.552   4.452  52.109  1.00  0.00     0.161 HD
ENDBRANCH   8  11
BRANCH   1  18
HETATM   18  O1  UNL     1      21.768   1.090  51.645  1.00  0.00    -0.348 OA
BRANCH  18  19
HETATM   19  C2  UNL     1      21.244   0.346  50.560  1.00  0.00     0.171 C 
HETATM   20  C1  UNL     1      21.377   1.070  49.233  1.00  0.00     0.034 C 
ENDBRANCH  18  19
ENDBRANCH   1  18
BRANCH  10  21
HETATM   21  O2  UNL     1      22.340  -1.051  53.526  1.00  0.00    -0.353 OA
HETATM   22  C15 UNL     1      21.972  -0.974  54.889  1.00  0.00     0.210 C 
ENDBRANCH  10  21
TORSDOF 4
ENDMDL
MODEL 8
REMARK VINA RESULT:      -6.5      2.965      6.728
REMARK  4 active torsions:
REMARK  status: ('A' for Active; 'I' for Inactive)
REMARK    1  A    between atoms: C2_2  and  O1_3 
REMARK    2  A    between atoms: O1_3  and  C3_4 
REMARK    3  A    between atoms: N3_11  and  C8_12 
REMARK    4  A    between atoms: C14_19  and  O2_20 
ROOT
HETATM    1  C3  UNL     1      24.866   0.547  53.084  1.00  0.00     0.115 A 
HETATM    2  C4  UNL     1      24.227   1.412  52.351  1.00  0.00     0.047 A 
HETATM    3  C5  UNL     1      24.870   2.213  51.577  1.00  0.00     0.103 A 
HETATM    4  C6  UNL     1      26.322   2.242  51.438  1.00  0.00     0.090 A 
HETATM    5  N1  UNL     1      26.931   3.070  50.642  1.00  0.00    -0.238 NA
HETATM    6  C7  UNL     1      26.175   4.008  49.854  1.00  0.00     0.256 A 
HETATM    7  N2  UNL     1      24.892   3.991  49.969  1.00  0.00    -0.159 NA
HETATM    8  N3  UNL     1      24.154   3.154  50.783  1.00  0.00    -0.214 N 
HETATM    9  C13 UNL     1      27.050   1.262  52.267  1.00  0.00     0.073 A 
HETATM   10  C14 UNL     1      26.319   0.455  53.053  1.00  0.00     0.104 A 
ENDROOT
BRANCH   8  11
HETATM   11  C8  UNL     1      22.736   3.267  50.792  1.00  0.00     0.125 A 
HETATM   12  C9  UNL     1      22.045   4.028  51.628  1.00  0.00     0.050 A 
HETATM   13  C10 UNL     1      20.578   4.073  51.553  1.00  0.00     0.001 A 
HETATM   14  C11 UNL     1      19.945   3.341  50.633  1.00  0.00    -0.007 A 
HETATM   15  C12 UNL     1      20.628   2.458  49.654  1.00  0.00     0.148 A 
HETATM   16  N4  UNL     1      22.063   2.485  49.810  1.00  0.00    -0.371 N 
HETATM   17  H12 UNL     1      22.483   1.850  49.098  1.00  0.00     0.161 HD
ENDBRANCH   8  11
BRANCH   1  18
HETATM   18  O1  UNL     1      24.216  -0.332  53.930  1.00  0.00    -0.348 OA
BRANCH  18  19
HETATM   19  C2  UNL     1      22.911  -0.821  53.677  1.00  0.00     0.171 C 
HETATM   20  C1  UNL     1      22.168  -1.195  54.946  1.00  0.00     0.034 C 
ENDBRANCH  18  19
ENDBRANCH   1  18
BRANCH  10  21
HETATM   21  O2  UNL     1      27.118  -0.416  53.778  1.00  0.00    -0.353 OA
HETATM   22  C15 UNL     1      28.083   0.129  54.655  1.00  0.00     0.210 C 
ENDBRANCH  10  21
TORSDOF 4
ENDMDL
MODEL 9
REMARK VINA RESULT:      -6.3      2.840      5.808
REMARK  4 active torsions:
REMARK  status: ('A' for Active; 'I' for Inactive)
REMARK    1  A    between atoms: C2_2  and  O1_3 
REMARK    2  A    between atoms: O1_3  and  C3_4 
REMARK    3  A    between atoms: N3_11  and  C8_12 
REMARK    4  A    between atoms: C14_19  and  O2_20 
ROOT
HETATM    1  C3  UNL     1      21.955   1.504  52.840  1.00  0.00     0.115 A 
HETATM    2  C4  UNL     1      22.836   2.105  52.095  1.00  0.00     0.047 A 
HETATM    3  C5  UNL     1      24.050   1.682  52.049  1.00  0.00     0.103 A 
HETATM    4  C6  UNL     1      24.554   0.532  52.792  1.00  0.00     0.090 A 
HETATM    5  N1  UNL     1      25.790   0.139  52.715  1.00  0.00    -0.238 NA
HETATM    6  C7  UNL     1      26.725   0.842  51.877  1.00  0.00     0.256 A 
HETATM    7  N2  UNL     1      26.291   1.859  51.216  1.00  0.00    -0.159 NA
HETATM    8  N3  UNL     1      25.001   2.353  51.229  1.00  0.00    -0.214 N 
HETATM    9  C13 UNL     1      23.557  -0.153  53.637  1.00  0.00     0.073 A 
HETATM   10  C14 UNL     1      22.308   0.339  53.640  1.00  0.00     0.104 A 
ENDROOT
BRANCH   8  11
HETATM   11  C8  UNL     1      24.686   3.493  50.437  1.00  0.00     0.125 A 
HETATM   12  C9  UNL     1      23.991   3.459  49.310  1.00  0.00     0.050 A 
HETATM   13  C10 UNL     1      23.720   4.696  48.566  1.00  0.00     0.001 A 
HETATM   14  C11 UNL     1      24.180   5.859  49.035  1.00  0.00    -0.007 A 
HETATM   15  C12 UNL     1      24.968   6.000  50.286  1.00  0.00     0.148 A 
HETATM   16  N4  UNL     1      25.178   4.731  50.939  1.00  0.00    -0.371 N 
HETATM   17  H12 UNL     1      25.733   4.895  51.806  1.00  0.00     0.161 HD
ENDBRANCH   8  11
BRANCH   1  18
HETATM   18  O1  UNL     1      20.640   1.925  52.919  1.00  0.00    -0.348 OA
BRANCH  18  19
HETATM   19  C2  UNL     1      20.162   3.083  52.261  1.00  0.00     0.171 C 
HETATM   20  C1  UNL     1      18.860   2.843  51.520  1.00  0.00     0.034 C 
ENDBRANCH  18  19
ENDBRANCH   1  18
BRANCH  10  21
HETATM   21  O2  UNL     1      21.470  -0.391  54.470  1.00  0.00    -0.353 OA
HETATM   22  C15 UNL     1      21.395  -1.790  54.285  1.00  0.00     0.210 C 
ENDBRANCH  10  21
TORSDOF 4
ENDMDL
