MODEL 1
REMARK VINA RESULT:      -7.1      0.000      0.000
REMARK  9 active torsions:
REMARK  status: ('A' for Active; 'I' for Inactive)
REMARK    1  A    between atoms: N1_1  and  C1_2 
REMARK    2  A    between atoms: C1_2  and  C2_3 
REMARK    3  A    between atoms: C2_3  and  O1_4 
REMARK    4  A    between atoms: C3_5  and  C4_6 
REMARK    5  A    between atoms: C7_11  and  N4_12 
REMARK    6  A    between atoms: N4_12  and  C8_13 
REMARK    7  A    between atoms: C8_13  and  C9_14 
REMARK    8  A    between atoms: C8_13  and  C10_16 
REMARK    9  A    between atoms: C9_14  and  O2_15 
ROOT
HETATM    1  C4  UNL     1      25.251   0.852  52.830  1.00  0.00     0.029 A 
HETATM    2  C5  UNL     1      24.666  -0.368  53.154  1.00  0.00     0.133 A 
HETATM    3  N2  UNL     1      23.355  -0.572  53.391  1.00  0.00    -0.253 NA
HETATM    4  C6  UNL     1      22.554   0.531  53.299  1.00  0.00     0.234 A 
HETATM    5  N3  UNL     1      23.083   1.754  52.983  1.00  0.00    -0.224 NA
HETATM    6  C7  UNL     1      24.397   1.929  52.751  1.00  0.00     0.137 A 
ENDROOT
BRANCH   6   7
HETATM    7  N4  UNL     1      24.916   3.210  52.424  1.00  0.00    -0.363 N 
HETATM    8  H9  UNL     1      25.722   3.619  52.946  1.00  0.00     0.162 HD
BRANCH   7   9
HETATM    9  C8  UNL     1      24.336   3.997  51.343  1.00  0.00     0.140 C 
BRANCH   9  10
HETATM   10  C9  UNL     1      23.470   5.120  51.802  1.00  0.00     0.194 C 
BRANCH  10  11
HETATM   11  O2  UNL     1      23.804   5.472  53.128  1.00  0.00    -0.399 OA
HETATM   12  H13 UNL     1      24.708   5.870  53.160  1.00  0.00     0.209 HD
ENDBRANCH  10  11
ENDBRANCH   9  10
BRANCH   9  13
HETATM   13  C10 UNL     1      25.341   4.499  50.392  1.00  0.00    -0.034 A 
HETATM   14  C11 UNL     1      25.288   5.836  49.970  1.00  0.00     0.009 A 
HETATM   15  C12 UNL     1      26.204   6.365  49.074  1.00  0.00     0.001 A 
HETATM   16  C13 UNL     1      27.211   5.601  48.556  1.00  0.00     0.000 A 
HETATM   17  C14 UNL     1      27.282   4.277  48.960  1.00  0.00     0.001 A 
HETATM   18  C15 UNL     1      26.368   3.753  49.852  1.00  0.00     0.009 A 
ENDBRANCH   9  13
ENDBRANCH   7   9
ENDBRANCH   6   7
BRANCH   1  19
HETATM   19  C3  UNL     1      26.688   0.939  52.609  1.00  0.00     0.050 C 
HETATM   20  C2  UNL     1      27.442   1.031  53.690  1.00  0.00     0.072 C 
BRANCH  20  21
HETATM   21  C1  UNL     1      28.935   1.129  53.618  1.00  0.00     0.330 C 
BRANCH  21  22
HETATM   22  N1  UNL     1      29.476   2.174  54.436  1.00  0.00     0.084 N 
HETATM   23  H1  UNL     1      30.483   2.291  54.287  1.00  0.00     0.313 HD
HETATM   24  H2  UNL     1      29.263   2.059  55.429  1.00  0.00     0.313 HD
ENDBRANCH  21  22
ENDBRANCH  20  21
BRANCH  20  25
HETATM   25  O1  UNL     1      27.141   1.065  55.041  1.00  0.00    -0.363 OA
HETATM   26  H5  UNL     1      26.456   1.678  55.461  1.00  0.00     0.217 HD
ENDBRANCH  20  25
ENDBRANCH   1  19
TORSDOF 9
ENDMDL
MODEL 2
REMARK VINA RESULT:      -7.1      2.765      5.371
REMARK  9 active torsions:
REMARK  status: ('A' for Active; 'I' for Inactive)
REMARK    1  A    between atoms: N1_1  and  C1_2 
REMARK    2  A    between atoms: C1_2  and  C2_3 
REMARK    3  A    between atoms: C2_3  and  O1_4 
REMARK    4  A    between atoms: C3_5  and  C4_6 
REMARK    5  A    between atoms: C7_11  and  N4_12 
REMARK    6  A    between atoms: N4_12  and  C8_13 
REMARK    7  A    between atoms: C8_13  and  C9_14 
REMARK    8  A    between atoms: C8_13  and  C10_16 
REMARK    9  A    between atoms: C9_14  and  O2_15 
ROOT
HETATM    1  C4  UNL     1      23.043   1.333  52.217  1.00  0.00     0.029 A 
HETATM    2  C5  UNL     1      22.031   2.249  51.951  1.00  0.00     0.133 A 
HETATM    3  N2  UNL     1      20.799   2.239  52.497  1.00  0.00    -0.253 NA
HETATM    4  C6  UNL     1      20.550   1.231  53.387  1.00  0.00     0.234 A 
HETATM    5  N3  UNL     1      21.514   0.305  53.681  1.00  0.00    -0.224 NA
HETATM    6  C7  UNL     1      22.737   0.340  53.120  1.00  0.00     0.137 A 
ENDROOT
BRANCH   6   7
HETATM    7  N4  UNL     1      23.718  -0.634  53.447  1.00  0.00    -0.363 N 
HETATM    8  H9  UNL     1      23.846  -1.492  52.867  1.00  0.00     0.162 HD
BRANCH   7   9
HETATM    9  C8  UNL     1      24.580  -0.465  54.611  1.00  0.00     0.140 C 
BRANCH   9  10
HETATM   10  C9  UNL     1      24.335  -1.452  55.701  1.00  0.00     0.194 C 
BRANCH  10  11
HETATM   11  O2  UNL     1      22.955  -1.741  55.785  1.00  0.00    -0.399 OA
HETATM   12  H13 UNL     1      22.457  -0.948  56.098  1.00  0.00     0.209 HD
ENDBRANCH  10  11
ENDBRANCH   9  10
BRANCH   9  13
HETATM   13  C10 UNL     1      26.011  -0.443  54.270  1.00  0.00    -0.034 A 
HETATM   14  C11 UNL     1      26.466  -1.148  53.146  1.00  0.00     0.009 A 
HETATM   15  C12 UNL     1      27.802  -1.168  52.776  1.00  0.00     0.001 A 
HETATM   16  C13 UNL     1      28.747  -0.494  53.496  1.00  0.00     0.000 A 
HETATM   17  C14 UNL     1      28.318   0.210  54.611  1.00  0.00     0.001 A 
HETATM   18  C15 UNL     1      26.988   0.228  54.976  1.00  0.00     0.009 A 
ENDBRANCH   9  13
ENDBRANCH   7   9
ENDBRANCH   6   7
BRANCH   1  19
HETATM   19  C3  UNL     1      24.332   1.450  51.548  1.00  0.00     0.050 C 
HETATM   20  C2  UNL     1      25.216   2.248  52.116  1.00  0.00     0.072 C 
BRANCH  20  21
HETATM   21  C1  UNL     1      26.583   2.468  51.540  1.00  0.00     0.330 C 
BRANCH  21  22
HETATM   22  N1  UNL     1      26.671   3.638  50.718  1.00  0.00     0.084 N 
HETATM   23  H1  UNL     1      27.644   3.925  50.569  1.00  0.00     0.313 HD
HETATM   24  H2  UNL     1      26.107   4.416  51.063  1.00  0.00     0.313 HD
ENDBRANCH  21  22
ENDBRANCH  20  21
BRANCH  20  25
HETATM   25  O1  UNL     1      25.174   3.030  53.258  1.00  0.00    -0.363 OA
HETATM   26  H5  UNL     1      24.849   3.987  53.287  1.00  0.00     0.217 HD
ENDBRANCH  20  25
ENDBRANCH   1  19
TORSDOF 9
ENDMDL
MODEL 3
REMARK VINA RESULT:      -7.0      2.473      5.405
REMARK  9 active torsions:
REMARK  status: ('A' for Active; 'I' for Inactive)
REMARK    1  A    between atoms: N1_1  and  C1_2 
REMARK    2  A    between atoms: C1_2  and  C2_3 
REMARK    3  A    between atoms: C2_3  and  O1_4 
REMARK    4  A    between atoms: C3_5  and  C4_6 
REMARK    5  A    between atoms: C7_11  and  N4_12 
REMARK    6  A    between atoms: N4_12  and  C8_13 
REMARK    7  A    between atoms: C8_13  and  C9_14 
REMARK    8  A    between atoms: C8_13  and  C10_16 
REMARK    9  A    between atoms: C9_14  and  O2_15 
ROOT
HETATM    1  C4  UNL     1      23.234   1.584  52.912  1.00  0.00     0.029 A 
HETATM    2  C5  UNL     1      21.981   1.061  52.605  1.00  0.00     0.133 A 
HETATM    3  N2  UNL     1      21.624  -0.233  52.707  1.00  0.00    -0.253 NA
HETATM    4  C6  UNL     1      22.594  -1.086  53.154  1.00  0.00     0.234 A 
HETATM    5  N3  UNL     1      23.843  -0.620  53.468  1.00  0.00    -0.224 NA
HETATM    6  C7  UNL     1      24.172   0.680  53.356  1.00  0.00     0.137 A 
ENDROOT
BRANCH   6   7
HETATM    7  N4  UNL     1      25.476   1.134  53.692  1.00  0.00    -0.363 N 
HETATM    8  H9  UNL     1      25.689   1.519  54.638  1.00  0.00     0.162 HD
BRANCH   7   9
HETATM    9  C8  UNL     1      26.561   1.075  52.721  1.00  0.00     0.140 C 
BRANCH   9  10
HETATM   10  C9  UNL     1      27.410   2.299  52.678  1.00  0.00     0.194 C 
BRANCH  10  11
HETATM   11  O2  UNL     1      27.246   2.952  51.436  1.00  0.00    -0.399 OA
HETATM   12  H13 UNL     1      27.549   3.891  51.500  1.00  0.00     0.209 HD
ENDBRANCH  10  11
ENDBRANCH   9  10
BRANCH   9  13
HETATM   13  C10 UNL     1      27.411  -0.117  52.878  1.00  0.00    -0.034 A 
HETATM   14  C11 UNL     1      28.707   0.021  53.394  1.00  0.00     0.009 A 
HETATM   15  C12 UNL     1      29.556  -1.063  53.563  1.00  0.00     0.001 A 
HETATM   16  C13 UNL     1      29.163  -2.328  53.230  1.00  0.00     0.000 A 
HETATM   17  C14 UNL     1      27.884  -2.486  52.719  1.00  0.00     0.001 A 
HETATM   18  C15 UNL     1      27.043  -1.406  52.553  1.00  0.00     0.009 A 
ENDBRANCH   9  13
ENDBRANCH   7   9
ENDBRANCH   6   7
BRANCH   1  19
HETATM   19  C3  UNL     1      23.495   3.007  52.745  1.00  0.00     0.050 C 
HETATM   20  C2  UNL     1      23.906   3.390  51.550  1.00  0.00     0.072 C 
BRANCH  20  21
HETATM   21  C1  UNL     1      24.215   4.821  51.230  1.00  0.00     0.330 C 
BRANCH  21  22
HETATM   22  N1  UNL     1      23.987   5.710  52.331  1.00  0.00     0.084 N 
HETATM   23  H1  UNL     1      23.455   5.258  53.081  1.00  0.00     0.313 HD
HETATM   24  H2  UNL     1      23.553   6.592  52.053  1.00  0.00     0.313 HD
ENDBRANCH  21  22
ENDBRANCH  20  21
BRANCH  20  25
HETATM   25  O1  UNL     1      24.152   2.696  50.377  1.00  0.00    -0.363 OA
HETATM   26  H5  UNL     1      24.011   3.069  49.449  1.00  0.00     0.217 HD
ENDBRANCH  20  25
ENDBRANCH   1  19
TORSDOF 9
ENDMDL
MODEL 4
REMARK VINA RESULT:      -7.0      2.047      5.610
REMARK  9 active torsions:
REMARK  status: ('A' for Active; 'I' for Inactive)
REMARK    1  A    between atoms: N1_1  and  C1_2 
REMARK    2  A    between atoms: C1_2  and  C2_3 
REMARK    3  A    between atoms: C2_3  and  O1_4 
REMARK    4  A    between atoms: C3_5  and  C4_6 
REMARK    5  A    between atoms: C7_11  and  N4_12 
REMARK    6  A    between atoms: N4_12  and  C8_13 
REMARK    7  A    between atoms: C8_13  and  C9_14 
REMARK    8  A    between atoms: C8_13  and  C10_16 
REMARK    9  A    between atoms: C9_14  and  O2_15 
ROOT
HETATM    1  C4  UNL     1      26.316   2.312  51.719  1.00  0.00     0.029 A 
HETATM    2  C5  UNL     1      26.500   3.118  50.600  1.00  0.00     0.133 A 
HETATM    3  N2  UNL     1      25.586   3.960  50.080  1.00  0.00    -0.253 NA
HETATM    4  C6  UNL     1      24.382   4.008  50.727  1.00  0.00     0.234 A 
HETATM    5  N3  UNL     1      24.153   3.233  51.832  1.00  0.00    -0.224 NA
HETATM    6  C7  UNL     1      25.086   2.400  52.331  1.00  0.00     0.137 A 
ENDROOT
BRANCH   6   7
HETATM    7  N4  UNL     1      24.819   1.610  53.481  1.00  0.00    -0.363 N 
HETATM    8  H9  UNL     1      24.838   2.023  54.439  1.00  0.00     0.162 HD
BRANCH   7   9
HETATM    9  C8  UNL     1      24.509   0.191  53.357  1.00  0.00     0.140 C 
BRANCH   9  10
HETATM   10  C9  UNL     1      25.213  -0.676  54.345  1.00  0.00     0.194 C 
BRANCH  10  11
HETATM   11  O2  UNL     1      26.285  -1.346  53.715  1.00  0.00    -0.399 OA
HETATM   12  H13 UNL     1      26.988  -1.564  54.375  1.00  0.00     0.209 HD
ENDBRANCH  10  11
ENDBRANCH   9  10
BRANCH   9  13
HETATM   13  C10 UNL     1      23.064  -0.088  53.388  1.00  0.00    -0.034 A 
HETATM   14  C11 UNL     1      22.524  -0.822  54.454  1.00  0.00     0.009 A 
HETATM   15  C12 UNL     1      21.172  -1.119  54.537  1.00  0.00     0.001 A 
HETATM   16  C13 UNL     1      20.296  -0.706  53.574  1.00  0.00     0.000 A 
HETATM   17  C14 UNL     1      20.809   0.021  52.512  1.00  0.00     0.001 A 
HETATM   18  C15 UNL     1      22.155   0.315  52.433  1.00  0.00     0.009 A 
ENDBRANCH   9  13
ENDBRANCH   7   9
ENDBRANCH   6   7
BRANCH   1  19
HETATM   19  C3  UNL     1      27.385   1.434  52.173  1.00  0.00     0.050 C 
HETATM   20  C2  UNL     1      28.008   1.794  53.280  1.00  0.00     0.072 C 
BRANCH  20  21
HETATM   21  C1  UNL     1      29.128   0.989  53.866  1.00  0.00     0.330 C 
BRANCH  21  22
HETATM   22  N1  UNL     1      28.702   0.084  54.891  1.00  0.00     0.084 N 
HETATM   23  H1  UNL     1      27.706  -0.144  54.807  1.00  0.00     0.313 HD
HETATM   24  H2  UNL     1      28.926   0.408  55.834  1.00  0.00     0.313 HD
ENDBRANCH  21  22
ENDBRANCH  20  21
BRANCH  20  25
HETATM   25  O1  UNL     1      27.854   2.875  54.132  1.00  0.00    -0.363 OA
HETATM   26  H5  UNL     1      27.655   2.803  55.120  1.00  0.00     0.217 HD
ENDBRANCH  20  25
ENDBRANCH   1  19
TORSDOF 9
ENDMDL
MODEL 5
REMARK VINA RESULT:      -6.9      2.820      6.319
REMARK  9 active torsions:
REMARK  status: ('A' for Active; 'I' for Inactive)
REMARK    1  A    between atoms: N1_1  and  C1_2 
REMARK    2  A    between atoms: C1_2  and  C2_3 
REMARK    3  A    between atoms: C2_3  and  O1_4 
REMARK    4  A    between atoms: C3_5  and  C4_6 
REMARK    5  A    between atoms: C7_11  and  N4_12 
REMARK    6  A    between atoms: N4_12  and  C8_13 
REMARK    7  A    between atoms: C8_13  and  C9_14 
REMARK    8  A    between atoms: C8_13  and  C10_16 
REMARK    9  A    between atoms: C9_14  and  O2_15 
ROOT
HETATM    1  C4  UNL     1      24.979   0.945  52.356  1.00  0.00     0.029 A 
HETATM    2  C5  UNL     1      26.280   0.777  51.892  1.00  0.00     0.133 A 
HETATM    3  N2  UNL     1      27.139  -0.180  52.292  1.00  0.00    -0.253 NA
HETATM    4  C6  UNL     1      26.666  -1.049  53.236  1.00  0.00     0.234 A 
HETATM    5  N3  UNL     1      25.393  -0.924  53.724  1.00  0.00    -0.224 NA
HETATM    6  C7  UNL     1      24.555   0.043  53.305  1.00  0.00     0.137 A 
ENDROOT
BRANCH   6   7
HETATM    7  N4  UNL     1      23.239   0.145  53.829  1.00  0.00    -0.363 N 
HETATM    8  H9  UNL     1      22.924   0.997  54.341  1.00  0.00     0.162 HD
BRANCH   7   9
HETATM    9  C8  UNL     1      22.284  -0.944  53.666  1.00  0.00     0.140 C 
BRANCH   9  10
HETATM   10  C9  UNL     1      21.909  -1.623  54.938  1.00  0.00     0.194 C 
BRANCH  10  11
HETATM   11  O2  UNL     1      23.050  -1.770  55.757  1.00  0.00    -0.399 OA
HETATM   12  H13 UNL     1      23.688  -2.404  55.347  1.00  0.00     0.209 HD
ENDBRANCH  10  11
ENDBRANCH   9  10
BRANCH   9  13
HETATM   13  C10 UNL     1      21.069  -0.541  52.939  1.00  0.00    -0.034 A 
HETATM   14  C11 UNL     1      19.809  -0.873  53.458  1.00  0.00     0.009 A 
HETATM   15  C12 UNL     1      18.630  -0.524  52.818  1.00  0.00     0.001 A 
HETATM   16  C13 UNL     1      18.641   0.167  51.640  1.00  0.00     0.000 A 
HETATM   17  C14 UNL     1      19.876   0.506  51.110  1.00  0.00     0.001 A 
HETATM   18  C15 UNL     1      21.048   0.158  51.750  1.00  0.00     0.009 A 
ENDBRANCH   9  13
ENDBRANCH   7   9
ENDBRANCH   6   7
BRANCH   1  19
HETATM   19  C3  UNL     1      24.155   2.033  51.848  1.00  0.00     0.050 C 
HETATM   20  C2  UNL     1      24.200   3.167  52.524  1.00  0.00     0.072 C 
BRANCH  20  21
HETATM   21  C1  UNL     1      23.405   4.371  52.121  1.00  0.00     0.330 C 
BRANCH  21  22
HETATM   22  N1  UNL     1      23.780   5.561  52.825  1.00  0.00     0.084 N 
HETATM   23  H1  UNL     1      24.792   5.608  52.981  1.00  0.00     0.313 HD
HETATM   24  H2  UNL     1      23.268   5.691  53.699  1.00  0.00     0.313 HD
ENDBRANCH  21  22
ENDBRANCH  20  21
BRANCH  20  25
HETATM   25  O1  UNL     1      24.891   3.552  53.660  1.00  0.00    -0.363 OA
HETATM   26  H5  UNL     1      25.483   4.368  53.723  1.00  0.00     0.217 HD
ENDBRANCH  20  25
ENDBRANCH   1  19
TORSDOF 9
ENDMDL
MODEL 6
REMARK VINA RESULT:      -6.9      2.422      3.270
REMARK  9 active torsions:
REMARK  status: ('A' for Active; 'I' for Inactive)
REMARK    1  A    between atoms: N1_1  and  C1_2 
REMARK    2  A    between atoms: C1_2  and  C2_3 
REMARK    3  A    between atoms: C2_3  and  O1_4 
REMARK    4  A    between atoms: C3_5  and  C4_6 
REMARK    5  A    between atoms: C7_11  and  N4_12 
REMARK    6  A    between atoms: N4_12  and  C8_13 
REMARK    7  A    between atoms: C8_13  and  C9_14 
REMARK    8  A    between atoms: C8_13  and  C10_16 
REMARK    9  A    between atoms: C9_14  and  O2_15 
ROOT
HETATM    1  C4  UNL     1      24.796  -0.613  54.177  1.00  0.00     0.029 A 
HETATM    2  C5  UNL     1      24.338  -1.326  55.281  1.00  0.00     0.133 A 
HETATM    3  N2  UNL     1      23.050  -1.449  55.657  1.00  0.00    -0.253 NA
HETATM    4  C6  UNL     1      22.135  -0.810  54.868  1.00  0.00     0.234 A 
HETATM    5  N3  UNL     1      22.536  -0.095  53.771  1.00  0.00    -0.224 NA
HETATM    6  C7  UNL     1      23.831   0.010  53.419  1.00  0.00     0.137 A 
ENDROOT
BRANCH   6   7
HETATM    7  N4  UNL     1      24.217   0.757  52.273  1.00  0.00    -0.363 N 
HETATM    8  H9  UNL     1      25.003   0.446  51.663  1.00  0.00     0.162 HD
BRANCH   7   9
HETATM    9  C8  UNL     1      23.521   1.987  51.915  1.00  0.00     0.140 C 
BRANCH   9  10
HETATM   10  C9  UNL     1      24.357   3.216  52.027  1.00  0.00     0.194 C 
BRANCH  10  11
HETATM   11  O2  UNL     1      24.468   3.597  53.383  1.00  0.00    -0.399 OA
HETATM   12  H13 UNL     1      24.033   2.927  53.964  1.00  0.00     0.209 HD
ENDBRANCH  10  11
ENDBRANCH   9  10
BRANCH   9  13
HETATM   13  C10 UNL     1      22.897   1.929  50.583  1.00  0.00    -0.034 A 
HETATM   14  C11 UNL     1      23.344   2.790  49.570  1.00  0.00     0.009 A 
HETATM   15  C12 UNL     1      22.793   2.783  48.298  1.00  0.00     0.001 A 
HETATM   16  C13 UNL     1      21.779   1.929  47.969  1.00  0.00     0.000 A 
HETATM   17  C14 UNL     1      21.323   1.070  48.955  1.00  0.00     0.001 A 
HETATM   18  C15 UNL     1      21.873   1.078  50.221  1.00  0.00     0.009 A 
ENDBRANCH   9  13
ENDBRANCH   7   9
ENDBRANCH   6   7
BRANCH   1  19
HETATM   19  C3  UNL     1      26.221  -0.549  53.887  1.00  0.00     0.050 C 
HETATM   20  C2  UNL     1      26.813   0.610  54.114  1.00  0.00     0.072 C 
BRANCH  20  21
HETATM   21  C1  UNL     1      28.274   0.826  53.861  1.00  0.00     0.330 C 
BRANCH  21  22
HETATM   22  N1  UNL     1      28.974   1.356  54.993  1.00  0.00     0.084 N 
HETATM   23  H1  UNL     1      29.525   0.636  55.471  1.00  0.00     0.313 HD
HETATM   24  H2  UNL     1      28.365   1.848  55.650  1.00  0.00     0.313 HD
ENDBRANCH  21  22
ENDBRANCH  20  21
BRANCH  20  25
HETATM   25  O1  UNL     1      26.343   1.824  54.586  1.00  0.00    -0.363 OA
HETATM   26  H5  UNL     1      26.776   2.359  55.325  1.00  0.00     0.217 HD
ENDBRANCH  20  25
ENDBRANCH   1  19
TORSDOF 9
ENDMDL
MODEL 7
REMARK VINA RESULT:      -6.7      2.937      5.893
REMARK  9 active torsions:
REMARK  status: ('A' for Active; 'I' for Inactive)
REMARK    1  A    between atoms: N1_1  and  C1_2 
REMARK    2  A    between atoms: C1_2  and  C2_3 
REMARK    3  A    between atoms: C2_3  and  O1_4 
REMARK    4  A    between atoms: C3_5  and  C4_6 
REMARK    5  A    between atoms: C7_11  and  N4_12 
REMARK    6  A    between atoms: N4_12  and  C8_13 
REMARK    7  A    between atoms: C8_13  and  C9_14 
REMARK    8  A    between atoms: C8_13  and  C10_16 
REMARK    9  A    between atoms: C9_14  and  O2_15 
ROOT
HETATM    1  C4  UNL     1      23.002   1.492  52.721  1.00  0.00     0.029 A 
HETATM    2  C5  UNL     1      21.958   2.325  52.332  1.00  0.00     0.133 A 
HETATM    3  N2  UNL     1      22.042   3.658  52.154  1.00  0.00    -0.253 NA
HETATM    4  C6  UNL     1      23.269   4.214  52.382  1.00  0.00     0.234 A 
HETATM    5  N3  UNL     1      24.328   3.436  52.767  1.00  0.00    -0.224 NA
HETATM    6  C7  UNL     1      24.215   2.105  52.937  1.00  0.00     0.137 A 
ENDROOT
BRANCH   6   7
HETATM    7  N4  UNL     1      25.333   1.324  53.335  1.00  0.00    -0.363 N 
HETATM    8  H9  UNL     1      25.355   0.841  54.260  1.00  0.00     0.162 HD
BRANCH   7   9
HETATM    9  C8  UNL     1      26.489   1.173  52.461  1.00  0.00     0.140 C 
BRANCH   9  10
HETATM   10  C9  UNL     1      27.428   2.331  52.484  1.00  0.00     0.194 C 
BRANCH  10  11
HETATM   11  O2  UNL     1      27.210   3.147  51.352  1.00  0.00    -0.399 OA
HETATM   12  H13 UNL     1      26.606   3.896  51.579  1.00  0.00     0.209 HD
ENDBRANCH  10  11
ENDBRANCH   9  10
BRANCH   9  13
HETATM   13  C10 UNL     1      27.232  -0.075  52.697  1.00  0.00    -0.034 A 
HETATM   14  C11 UNL     1      26.647  -1.304  52.357  1.00  0.00     0.009 A 
HETATM   15  C12 UNL     1      27.296  -2.513  52.559  1.00  0.00     0.001 A 
HETATM   16  C13 UNL     1      28.547  -2.563  53.103  1.00  0.00     0.000 A 
HETATM   17  C14 UNL     1      29.144  -1.360  53.446  1.00  0.00     0.001 A 
HETATM   18  C15 UNL     1      28.496  -0.158  53.244  1.00  0.00     0.009 A 
ENDBRANCH   9  13
ENDBRANCH   7   9
ENDBRANCH   6   7
BRANCH   1  19
HETATM   19  C3  UNL     1      22.775   0.063  52.890  1.00  0.00     0.050 C 
HETATM   20  C2  UNL     1      21.935  -0.287  53.846  1.00  0.00     0.072 C 
BRANCH  20  21
HETATM   21  C1  UNL     1      21.605  -1.719  54.137  1.00  0.00     0.330 C 
BRANCH  21  22
HETATM   22  N1  UNL     1      20.206  -1.948  54.350  1.00  0.00     0.084 N 
HETATM   23  H1  UNL     1      19.629  -1.397  53.707  1.00  0.00     0.313 HD
HETATM   24  H2  UNL     1      19.917  -1.804  55.319  1.00  0.00     0.313 HD
ENDBRANCH  21  22
ENDBRANCH  20  21
BRANCH  20  25
HETATM   25  O1  UNL     1      21.197   0.448  54.759  1.00  0.00    -0.363 OA
HETATM   26  H5  UNL     1      20.773   1.345  54.565  1.00  0.00     0.217 HD
ENDBRANCH  20  25
ENDBRANCH   1  19
TORSDOF 9
ENDMDL
MODEL 8
REMARK VINA RESULT:      -6.3      2.600      4.872
REMARK  9 active torsions:
REMARK  status: ('A' for Active; 'I' for Inactive)
REMARK    1  A    between atoms: N1_1  and  C1_2 
REMARK    2  A    between atoms: C1_2  and  C2_3 
REMARK    3  A    between atoms: C2_3  and  O1_4 
REMARK    4  A    between atoms: C3_5  and  C4_6 
REMARK    5  A    between atoms: C7_11  and  N4_12 
REMARK    6  A    between atoms: N4_12  and  C8_13 
REMARK    7  A    between atoms: C8_13  and  C9_14 
REMARK    8  A    between atoms: C8_13  and  C10_16 
REMARK    9  A    between atoms: C9_14  and  O2_15 
ROOT
HETATM    1  C4  UNL     1      22.323  -0.438  53.063  1.00  0.00     0.029 A 
HETATM    2  C5  UNL     1      21.432  -1.092  53.908  1.00  0.00     0.133 A 
HETATM    3  N2  UNL     1      21.736  -1.630  55.105  1.00  0.00    -0.253 NA
HETATM    4  C6  UNL     1      23.039  -1.508  55.500  1.00  0.00     0.234 A 
HETATM    5  N3  UNL     1      23.954  -0.873  54.703  1.00  0.00    -0.224 NA
HETATM    6  C7  UNL     1      23.621  -0.345  53.510  1.00  0.00     0.137 A 
ENDROOT
BRANCH   6   7
HETATM    7  N4  UNL     1      24.592   0.310  52.707  1.00  0.00    -0.363 N 
HETATM    8  H9  UNL     1      24.982  -0.142  51.851  1.00  0.00     0.162 HD
BRANCH   7   9
HETATM    9  C8  UNL     1      25.077   1.640  53.055  1.00  0.00     0.140 C 
BRANCH   9  10
HETATM   10  C9  UNL     1      26.559   1.787  52.991  1.00  0.00     0.194 C 
BRANCH  10  11
HETATM   11  O2  UNL     1      26.993   2.695  53.981  1.00  0.00    -0.399 OA
HETATM   12  H13 UNL     1      26.965   2.270  54.873  1.00  0.00     0.209 HD
ENDBRANCH  10  11
ENDBRANCH   9  10
BRANCH   9  13
HETATM   13  C10 UNL     1      24.435   2.710  52.274  1.00  0.00    -0.034 A 
HETATM   14  C11 UNL     1      24.465   2.657  50.872  1.00  0.00     0.009 A 
HETATM   15  C12 UNL     1      23.882   3.637  50.083  1.00  0.00     0.001 A 
HETATM   16  C13 UNL     1      23.244   4.708  50.640  1.00  0.00     0.000 A 
HETATM   17  C14 UNL     1      23.201   4.779  52.023  1.00  0.00     0.001 A 
HETATM   18  C15 UNL     1      23.783   3.802  52.806  1.00  0.00     0.009 A 
ENDBRANCH   9  13
ENDBRANCH   7   9
ENDBRANCH   6   7
BRANCH   1  19
HETATM   19  C3  UNL     1      21.867   0.090  51.784  1.00  0.00     0.050 C 
HETATM   20  C2  UNL     1      21.157   1.202  51.830  1.00  0.00     0.072 C 
BRANCH  20  21
HETATM   21  C1  UNL     1      20.620   1.861  50.595  1.00  0.00     0.330 C 
BRANCH  21  22
HETATM   22  N1  UNL     1      21.083   1.254  49.382  1.00  0.00     0.084 N 
HETATM   23  H1  UNL     1      21.107   1.925  48.607  1.00  0.00     0.313 HD
HETATM   24  H2  UNL     1      20.559   0.416  49.125  1.00  0.00     0.313 HD
ENDBRANCH  21  22
ENDBRANCH  20  21
BRANCH  20  25
HETATM   25  O1  UNL     1      20.737   2.002  52.879  1.00  0.00    -0.363 OA
HETATM   26  H5  UNL     1      20.367   2.937  52.776  1.00  0.00     0.217 HD
ENDBRANCH  20  25
ENDBRANCH   1  19
TORSDOF 9
ENDMDL
MODEL 9
REMARK VINA RESULT:      -6.2      2.628      5.832
REMARK  9 active torsions:
REMARK  status: ('A' for Active; 'I' for Inactive)
REMARK    1  A    between atoms: N1_1  and  C1_2 
REMARK    2  A    between atoms: C1_2  and  C2_3 
REMARK    3  A    between atoms: C2_3  and  O1_4 
REMARK    4  A    between atoms: C3_5  and  C4_6 
REMARK    5  A    between atoms: C7_11  and  N4_12 
REMARK    6  A    between atoms: N4_12  and  C8_13 
REMARK    7  A    between atoms: C8_13  and  C9_14 
REMARK    8  A    between atoms: C8_13  and  C10_16 
REMARK    9  A    between atoms: C9_14  and  O2_15 
ROOT
HETATM    1  C4  UNL     1      24.733   3.161  50.475  1.00  0.00     0.029 A 
HETATM    2  C5  UNL     1      25.213   4.360  49.959  1.00  0.00     0.133 A 
HETATM    3  N2  UNL     1      24.574   5.145  49.069  1.00  0.00    -0.253 NA
HETATM    4  C6  UNL     1      23.349   4.701  48.655  1.00  0.00     0.234 A 
HETATM    5  N3  UNL     1      22.834   3.526  49.135  1.00  0.00    -0.224 NA
HETATM    6  C7  UNL     1      23.495   2.762  50.024  1.00  0.00     0.137 A 
ENDROOT
BRANCH   6   7
HETATM    7  N4  UNL     1      22.933   1.549  50.504  1.00  0.00    -0.363 N 
HETATM    8  H9  UNL     1      23.395   0.631  50.329  1.00  0.00     0.162 HD
BRANCH   7   9
HETATM    9  C8  UNL     1      21.686   1.552  51.259  1.00  0.00     0.140 C 
BRANCH   9  10
HETATM   10  C9  UNL     1      20.498   1.106  50.477  1.00  0.00     0.194 C 
BRANCH  10  11
HETATM   11  O2  UNL     1      20.822   1.047  49.104  1.00  0.00    -0.399 OA
HETATM   12  H13 UNL     1      21.241   1.894  48.813  1.00  0.00     0.209 HD
ENDBRANCH  10  11
ENDBRANCH   9  10
BRANCH   9  13
HETATM   13  C10 UNL     1      21.771   0.788  52.515  1.00  0.00    -0.034 A 
HETATM   14  C11 UNL     1      22.900  -0.004  52.768  1.00  0.00     0.009 A 
HETATM   15  C12 UNL     1      23.036  -0.748  53.930  1.00  0.00     0.001 A 
HETATM   16  C13 UNL     1      22.067  -0.742  54.893  1.00  0.00     0.000 A 
HETATM   17  C14 UNL     1      20.943   0.036  54.662  1.00  0.00     0.001 A 
HETATM   18  C15 UNL     1      20.811   0.775  53.504  1.00  0.00     0.009 A 
ENDBRANCH   9  13
ENDBRANCH   7   9
ENDBRANCH   6   7
BRANCH   1  19
HETATM   19  C3  UNL     1      25.532   2.400  51.425  1.00  0.00     0.050 C 
HETATM   20  C2  UNL     1      25.338   2.671  52.703  1.00  0.00     0.072 C 
BRANCH  20  21
HETATM   21  C1  UNL     1      26.089   1.969  53.794  1.00  0.00     0.330 C 
BRANCH  21  22
HETATM   22  N1  UNL     1      27.381   2.534  54.048  1.00  0.00     0.084 N 
HETATM   23  H1  UNL     1      28.069   1.815  54.294  1.00  0.00     0.313 HD
HETATM   24  H2  UNL     1      27.365   3.281  54.745  1.00  0.00     0.313 HD
ENDBRANCH  21  22
ENDBRANCH  20  21
BRANCH  20  25
HETATM   25  O1  UNL     1      24.504   3.564  53.354  1.00  0.00    -0.363 OA
HETATM   26  H5  UNL     1      24.773   4.124  54.152  1.00  0.00     0.217 HD
ENDBRANCH  20  25
ENDBRANCH   1  19
TORSDOF 9
ENDMDL
