MODEL 1
REMARK VINA RESULT:     -10.4      0.000      0.000
REMARK  0 active torsions:
REMARK  status: ('A' for Active; 'I' for Inactive)
REMARK       I    between atoms: N1_3  and  C3_4 
ROOT
HETATM    1  C1  UNL     1      22.276   2.735  47.522  1.00  0.00     0.037 C 
HETATM    2  C2  UNL     1      21.682   1.985  48.236  1.00  0.00     0.015 C 
HETATM    3  N1  UNL     1      20.988   1.097  49.048  1.00  0.00    -0.147 N 
HETATM    4  C3  UNL     1      20.830   1.362  50.432  1.00  0.00     0.711 C 
HETATM    5  N2  UNL     1      21.191   2.412  51.024  1.00  0.00    -0.080 NA
HETATM    6  C4  UNL     1      21.814   3.565  50.562  1.00  0.00     0.120 C 
HETATM    7  C5  UNL     1      22.805   3.333  51.394  1.00  0.00     0.081 C 
HETATM    8  C6  UNL     1      24.075   3.896  51.806  1.00  0.00     0.100 C 
HETATM    9  N3  UNL     1      24.196   2.907  52.660  1.00  0.00    -0.276 NA
HETATM   10  C7  UNL     1      25.321   2.800  53.501  1.00  0.00     0.116 C 
HETATM   11  C8  UNL     1      26.420   2.260  53.975  1.00  0.00     0.031 C 
HETATM   12  C9  UNL     1      27.316   1.123  53.811  1.00  0.00    -0.020 A 
HETATM   13  C10 UNL     1      28.564   1.253  53.244  1.00  0.00     0.012 A 
HETATM   14  C11 UNL     1      29.477   0.242  53.047  1.00  0.00     0.001 A 
HETATM   15  C12 UNL     1      29.064  -0.997  53.473  1.00  0.00     0.001 A 
HETATM   16  C13 UNL     1      27.827  -1.194  54.050  1.00  0.00     0.017 A 
HETATM   17  C14 UNL     1      26.934  -0.159  54.231  1.00  0.00     0.032 A 
HETATM   18  C15 UNL     1      25.610  -0.423  54.843  1.00  0.00     0.224 C 
HETATM   19  O1  UNL     1      26.027  -0.503  56.029  1.00  0.00    -0.279 OA
HETATM   20  S1  UNL     1      24.763  -0.363  53.276  1.00  0.00    -0.048 SA
HETATM   21  C16 UNL     1      23.017  -0.569  53.398  1.00  0.00     0.010 A 
HETATM   22  C17 UNL     1      22.263  -1.115  54.411  1.00  0.00     0.019 A 
HETATM   23  C18 UNL     1      20.895  -1.199  54.354  1.00  0.00     0.010 A 
HETATM   24  C19 UNL     1      20.183  -0.727  53.248  1.00  0.00    -0.035 A 
HETATM   25  C20 UNL     1      18.700  -0.802  53.158  1.00  0.00     0.050 C 
HETATM   26  C21 UNL     1      20.942  -0.185  52.244  1.00  0.00     0.056 A 
HETATM   27  C22 UNL     1      22.320  -0.093  52.286  1.00  0.00     0.049 A 
HETATM   28  N4  UNL     1      20.205   0.290  51.127  1.00  0.00    -0.189 N 
HETATM   29  H2  UNL     1      20.607   0.224  48.564  1.00  0.00     0.195 HD
HETATM   30  H18 UNL     1      19.291  -0.055  50.775  1.00  0.00     0.184 HD
ENDROOT
TORSDOF 0
ENDMDL
MODEL 2
REMARK VINA RESULT:      -9.6      1.186      1.362
REMARK  0 active torsions:
REMARK  status: ('A' for Active; 'I' for Inactive)
REMARK       I    between atoms: N1_3  and  C3_4 
ROOT
HETATM    1  C1  UNL     1      21.715   3.618  46.987  1.00  0.00     0.037 C 
HETATM    2  C2  UNL     1      21.022   2.855  47.590  1.00  0.00     0.015 C 
HETATM    3  N1  UNL     1      20.214   1.954  48.272  1.00  0.00    -0.147 N 
HETATM    4  C3  UNL     1      19.978   2.109  49.661  1.00  0.00     0.711 C 
HETATM    5  N2  UNL     1      20.368   3.073  50.368  1.00  0.00    -0.080 NA
HETATM    6  C4  UNL     1      21.098   4.213  50.055  1.00  0.00     0.120 C 
HETATM    7  C5  UNL     1      22.010   3.836  50.923  1.00  0.00     0.081 C 
HETATM    8  C6  UNL     1      23.283   4.267  51.466  1.00  0.00     0.100 C 
HETATM    9  N3  UNL     1      23.277   3.201  52.231  1.00  0.00    -0.276 NA
HETATM   10  C7  UNL     1      24.330   2.938  53.129  1.00  0.00     0.116 C 
HETATM   11  C8  UNL     1      25.354   2.279  53.621  1.00  0.00     0.031 C 
HETATM   12  C9  UNL     1      26.180   1.098  53.410  1.00  0.00    -0.020 A 
HETATM   13  C10 UNL     1      27.471   1.184  52.938  1.00  0.00     0.012 A 
HETATM   14  C11 UNL     1      28.325   0.130  52.708  1.00  0.00     0.001 A 
HETATM   15  C12 UNL     1      27.800  -1.108  52.991  1.00  0.00     0.001 A 
HETATM   16  C13 UNL     1      26.515  -1.263  53.467  1.00  0.00     0.017 A 
HETATM   17  C14 UNL     1      25.684  -0.185  53.685  1.00  0.00     0.032 A 
HETATM   18  C15 UNL     1      24.305  -0.402  54.185  1.00  0.00     0.224 C 
HETATM   19  O1  UNL     1      24.631  -0.615  55.383  1.00  0.00    -0.279 OA
HETATM   20  S1  UNL     1      23.576  -0.143  52.580  1.00  0.00    -0.048 SA
HETATM   21  C16 UNL     1      21.816  -0.230  52.571  1.00  0.00     0.010 A 
HETATM   22  C17 UNL     1      20.958  -0.805  53.479  1.00  0.00     0.019 A 
HETATM   23  C18 UNL     1      19.595  -0.782  53.327  1.00  0.00     0.010 A 
HETATM   24  C19 UNL     1      18.995  -0.164  52.226  1.00  0.00    -0.035 A 
HETATM   25  C20 UNL     1      17.521  -0.121  52.036  1.00  0.00     0.050 C 
HETATM   26  C21 UNL     1      19.858   0.406  51.327  1.00  0.00     0.056 A 
HETATM   27  C22 UNL     1      21.233   0.391  51.465  1.00  0.00     0.049 A 
HETATM   28  N4  UNL     1      19.235   1.029  50.213  1.00  0.00    -0.189 N 
HETATM   29  H2  UNL     1      19.810   1.157  47.686  1.00  0.00     0.195 HD
HETATM   30  H18 UNL     1      18.326   0.784  49.774  1.00  0.00     0.184 HD
ENDROOT
TORSDOF 0
ENDMDL
MODEL 3
REMARK VINA RESULT:      -9.0      2.970      3.886
REMARK  0 active torsions:
REMARK  status: ('A' for Active; 'I' for Inactive)
REMARK       I    between atoms: N1_3  and  C3_4 
ROOT
HETATM    1  C1  UNL     1      17.117   2.772  47.910  1.00  0.00     0.037 C 
HETATM    2  C2  UNL     1      17.333   1.876  48.669  1.00  0.00     0.015 C 
HETATM    3  N1  UNL     1      17.580   0.817  49.533  1.00  0.00    -0.147 N 
HETATM    4  C3  UNL     1      17.963   1.060  50.876  1.00  0.00     0.711 C 
HETATM    5  N2  UNL     1      18.022   2.188  51.429  1.00  0.00    -0.080 NA
HETATM    6  C4  UNL     1      17.757   3.466  50.952  1.00  0.00     0.120 C 
HETATM    7  C5  UNL     1      18.997   3.801  51.233  1.00  0.00     0.081 C 
HETATM    8  C6  UNL     1      19.892   4.938  51.159  1.00  0.00     0.100 C 
HETATM    9  N3  UNL     1      20.827   4.191  51.697  1.00  0.00    -0.276 NA
HETATM   10  C7  UNL     1      22.115   4.701  51.950  1.00  0.00     0.116 C 
HETATM   11  C8  UNL     1      23.418   4.798  51.814  1.00  0.00     0.031 C 
HETATM   12  C9  UNL     1      24.552   4.235  51.094  1.00  0.00    -0.020 A 
HETATM   13  C10 UNL     1      25.188   4.920  50.083  1.00  0.00     0.012 A 
HETATM   14  C11 UNL     1      26.263   4.473  49.347  1.00  0.00     0.001 A 
HETATM   15  C12 UNL     1      26.711   3.220  49.690  1.00  0.00     0.001 A 
HETATM   16  C13 UNL     1      26.120   2.482  50.692  1.00  0.00     0.017 A 
HETATM   17  C14 UNL     1      25.042   2.959  51.409  1.00  0.00     0.032 A 
HETATM   18  C15 UNL     1      24.431   2.123  52.469  1.00  0.00     0.224 C 
HETATM   19  O1  UNL     1      25.322   2.334  53.334  1.00  0.00    -0.279 OA
HETATM   20  S1  UNL     1      23.047   1.661  51.445  1.00  0.00    -0.048 SA
HETATM   21  C16 UNL     1      21.865   0.638  52.257  1.00  0.00     0.010 A 
HETATM   22  C17 UNL     1      22.000  -0.140  53.384  1.00  0.00     0.019 A 
HETATM   23  C18 UNL     1      20.969  -0.884  53.898  1.00  0.00     0.010 A 
HETATM   24  C19 UNL     1      19.706  -0.892  53.297  1.00  0.00    -0.035 A 
HETATM   25  C20 UNL     1      18.569  -1.687  53.832  1.00  0.00     0.050 C 
HETATM   26  C21 UNL     1      19.582  -0.115  52.175  1.00  0.00     0.056 A 
HETATM   27  C22 UNL     1      20.611   0.640  51.645  1.00  0.00     0.049 A 
HETATM   28  N4  UNL     1      18.295  -0.134  51.575  1.00  0.00    -0.189 N 
HETATM   29  H2  UNL     1      17.473  -0.160  49.114  1.00  0.00     0.195 HD
HETATM   30  H18 UNL     1      17.597  -0.903  51.590  1.00  0.00     0.184 HD
ENDROOT
TORSDOF 0
ENDMDL
MODEL 4
REMARK VINA RESULT:      -8.4      8.072      9.760
REMARK  0 active torsions:
REMARK  status: ('A' for Active; 'I' for Inactive)
REMARK       I    between atoms: N1_3  and  C3_4 
ROOT
HETATM    1  C1  UNL     1      25.499  11.855  45.607  1.00  0.00     0.037 C 
HETATM    2  C2  UNL     1      25.141  10.766  45.942  1.00  0.00     0.015 C 
HETATM    3  N1  UNL     1      24.716   9.496  46.309  1.00  0.00    -0.147 N 
HETATM    4  C3  UNL     1      25.042   8.969  47.584  1.00  0.00     0.711 C 
HETATM    5  N2  UNL     1      25.632   9.590  48.506  1.00  0.00    -0.080 NA
HETATM    6  C4  UNL     1      26.120  10.889  48.578  1.00  0.00     0.120 C 
HETATM    7  C5  UNL     1      27.319  10.399  48.800  1.00  0.00     0.081 C 
HETATM    8  C6  UNL     1      28.680  10.836  49.041  1.00  0.00     0.100 C 
HETATM    9  N3  UNL     1      29.030   9.575  49.136  1.00  0.00    -0.276 NA
HETATM   10  C7  UNL     1      30.365   9.205  49.391  1.00  0.00     0.116 C 
HETATM   11  C8  UNL     1      31.532   8.659  49.134  1.00  0.00     0.031 C 
HETATM   12  C9  UNL     1      32.265   7.919  48.115  1.00  0.00    -0.020 A 
HETATM   13  C10 UNL     1      33.256   8.504  47.359  1.00  0.00     0.012 A 
HETATM   14  C11 UNL     1      34.001   7.890  46.378  1.00  0.00     0.001 A 
HETATM   15  C12 UNL     1      33.693   6.568  46.167  1.00  0.00     0.001 A 
HETATM   16  C13 UNL     1      32.712   5.923  46.889  1.00  0.00     0.017 A 
HETATM   17  C14 UNL     1      31.983   6.568  47.865  1.00  0.00     0.032 A 
HETATM   18  C15 UNL     1      30.928   5.837  48.607  1.00  0.00     0.224 C 
HETATM   19  O1  UNL     1      31.713   5.206  49.364  1.00  0.00    -0.279 OA
HETATM   20  S1  UNL     1      29.610   6.589  47.672  1.00  0.00    -0.048 SA
HETATM   21  C16 UNL     1      27.998   6.103  48.190  1.00  0.00     0.010 A 
HETATM   22  C17 UNL     1      27.599   5.005  48.917  1.00  0.00     0.019 A 
HETATM   23  C18 UNL     1      26.289   4.770  49.246  1.00  0.00     0.010 A 
HETATM   24  C19 UNL     1      25.272   5.645  48.854  1.00  0.00    -0.035 A 
HETATM   25  C20 UNL     1      23.843   5.418  49.196  1.00  0.00     0.050 C 
HETATM   26  C21 UNL     1      25.678   6.735  48.130  1.00  0.00     0.056 A 
HETATM   27  C22 UNL     1      26.994   6.987  47.790  1.00  0.00     0.049 A 
HETATM   28  N4  UNL     1      24.634   7.615  47.738  1.00  0.00    -0.189 N 
HETATM   29  H2  UNL     1      24.153   8.963  45.573  1.00  0.00     0.195 HD
HETATM   30  H18 UNL     1      23.639   7.380  47.555  1.00  0.00     0.184 HD
ENDROOT
TORSDOF 0
ENDMDL
MODEL 5
REMARK VINA RESULT:      -8.3      3.837      7.892
REMARK  0 active torsions:
REMARK  status: ('A' for Active; 'I' for Inactive)
REMARK       I    between atoms: N1_3  and  C3_4 
ROOT
HETATM    1  C1  UNL     1      23.656   8.110  50.431  1.00  0.00     0.037 C 
HETATM    2  C2  UNL     1      23.904   7.163  51.115  1.00  0.00     0.015 C 
HETATM    3  N1  UNL     1      24.196   6.077  51.930  1.00  0.00    -0.147 N 
HETATM    4  C3  UNL     1      24.110   4.755  51.424  1.00  0.00     0.711 C 
HETATM    5  N2  UNL     1      23.872   4.441  50.229  1.00  0.00    -0.080 NA
HETATM    6  C4  UNL     1      23.632   5.216  49.101  1.00  0.00     0.120 C 
HETATM    7  C5  UNL     1      22.461   4.632  48.980  1.00  0.00     0.081 C 
HETATM    8  C6  UNL     1      21.289   4.641  48.127  1.00  0.00     0.100 C 
HETATM    9  N3  UNL     1      20.774   3.703  48.886  1.00  0.00    -0.276 NA
HETATM   10  C7  UNL     1      19.500   3.163  48.619  1.00  0.00     0.116 C 
HETATM   11  C8  UNL     1      18.234   2.901  48.847  1.00  0.00     0.031 C 
HETATM   12  C9  UNL     1      17.165   3.106  49.816  1.00  0.00    -0.020 A 
HETATM   13  C10 UNL     1      16.126   3.980  49.583  1.00  0.00     0.012 A 
HETATM   14  C11 UNL     1      15.075   4.241  50.433  1.00  0.00     0.001 A 
HETATM   15  C12 UNL     1      15.105   3.539  51.613  1.00  0.00     0.001 A 
HETATM   16  C13 UNL     1      16.116   2.649  51.908  1.00  0.00     0.017 A 
HETATM   17  C14 UNL     1      17.156   2.412  51.034  1.00  0.00     0.032 A 
HETATM   18  C15 UNL     1      18.227   1.456  51.401  1.00  0.00     0.224 C 
HETATM   19  O1  UNL     1      17.560   0.413  51.164  1.00  0.00    -0.279 OA
HETATM   20  S1  UNL     1      19.380   2.751  51.810  1.00  0.00    -0.048 SA
HETATM   21  C16 UNL     1      20.970   2.167  52.295  1.00  0.00     0.010 A 
HETATM   22  C17 UNL     1      21.352   0.927  52.751  1.00  0.00     0.019 A 
HETATM   23  C18 UNL     1      22.648   0.628  53.087  1.00  0.00     0.010 A 
HETATM   24  C19 UNL     1      23.665   1.580  52.983  1.00  0.00    -0.035 A 
HETATM   25  C20 UNL     1      25.079   1.284  53.338  1.00  0.00     0.050 C 
HETATM   26  C21 UNL     1      23.276   2.812  52.528  1.00  0.00     0.056 A 
HETATM   27  C22 UNL     1      21.975   3.130  52.186  1.00  0.00     0.049 A 
HETATM   28  N4  UNL     1      24.320   3.770  52.428  1.00  0.00    -0.189 N 
HETATM   29  H2  UNL     1      24.469   6.310  52.936  1.00  0.00     0.195 HD
HETATM   30  H18 UNL     1      25.189   3.825  52.994  1.00  0.00     0.184 HD
ENDROOT
TORSDOF 0
ENDMDL
MODEL 6
REMARK VINA RESULT:      -8.3     11.112     13.913
REMARK  0 active torsions:
REMARK  status: ('A' for Active; 'I' for Inactive)
REMARK       I    between atoms: N1_3  and  C3_4 
ROOT
HETATM    1  C1  UNL     1      32.788   4.034  41.067  1.00  0.00     0.037 C 
HETATM    2  C2  UNL     1      33.035   5.189  41.239  1.00  0.00     0.015 C 
HETATM    3  N1  UNL     1      33.311   6.539  41.418  1.00  0.00    -0.147 N 
HETATM    4  C3  UNL     1      33.941   6.993  42.604  1.00  0.00     0.711 C 
HETATM    5  N2  UNL     1      34.382   6.260  43.527  1.00  0.00    -0.080 NA
HETATM    6  C4  UNL     1      34.398   4.880  43.682  1.00  0.00     0.120 C 
HETATM    7  C5  UNL     1      33.699   5.020  44.786  1.00  0.00     0.081 C 
HETATM    8  C6  UNL     1      33.105   4.227  45.843  1.00  0.00     0.100 C 
HETATM    9  N3  UNL     1      32.688   5.341  46.396  1.00  0.00    -0.276 NA
HETATM   10  C7  UNL     1      31.953   5.330  47.598  1.00  0.00     0.116 C 
HETATM   11  C8  UNL     1      30.906   5.518  48.368  1.00  0.00     0.031 C 
HETATM   12  C9  UNL     1      29.527   5.990  48.354  1.00  0.00    -0.020 A 
HETATM   13  C10 UNL     1      28.459   5.127  48.452  1.00  0.00     0.012 A 
HETATM   14  C11 UNL     1      27.128   5.477  48.448  1.00  0.00     0.001 A 
HETATM   15  C12 UNL     1      26.888   6.825  48.335  1.00  0.00     0.001 A 
HETATM   16  C13 UNL     1      27.913   7.742  48.233  1.00  0.00     0.017 A 
HETATM   17  C14 UNL     1      29.237   7.357  48.239  1.00  0.00     0.032 A 
HETATM   18  C15 UNL     1      30.305   8.378  48.113  1.00  0.00     0.224 C 
HETATM   19  O1  UNL     1      30.237   8.787  49.303  1.00  0.00    -0.279 OA
HETATM   20  S1  UNL     1      30.605   7.997  46.399  1.00  0.00    -0.048 SA
HETATM   21  C16 UNL     1      31.912   8.932  45.676  1.00  0.00     0.010 A 
HETATM   22  C17 UNL     1      32.475  10.119  46.082  1.00  0.00     0.019 A 
HETATM   23  C18 UNL     1      33.502  10.723  45.403  1.00  0.00     0.010 A 
HETATM   24  C19 UNL     1      34.041  10.157  44.244  1.00  0.00    -0.035 A 
HETATM   25  C20 UNL     1      35.155  10.787  43.487  1.00  0.00     0.050 C 
HETATM   26  C21 UNL     1      33.473   8.974  43.847  1.00  0.00     0.056 A 
HETATM   27  C22 UNL     1      32.438   8.353  44.519  1.00  0.00     0.049 A 
HETATM   28  N4  UNL     1      34.030   8.411  42.668  1.00  0.00    -0.189 N 
HETATM   29  H2  UNL     1      33.010   7.184  40.621  1.00  0.00     0.195 HD
HETATM   30  H18 UNL     1      34.477   8.910  41.874  1.00  0.00     0.184 HD
ENDROOT
TORSDOF 0
ENDMDL
MODEL 7
REMARK VINA RESULT:      -8.3      2.870      4.223
REMARK  0 active torsions:
REMARK  status: ('A' for Active; 'I' for Inactive)
REMARK       I    between atoms: N1_3  and  C3_4 
ROOT
HETATM    1  C1  UNL     1      24.555   7.746  47.269  1.00  0.00     0.037 C 
HETATM    2  C2  UNL     1      23.680   6.952  47.096  1.00  0.00     0.015 C 
HETATM    3  N1  UNL     1      22.670   6.025  46.872  1.00  0.00    -0.147 N 
HETATM    4  C3  UNL     1      21.785   5.660  47.918  1.00  0.00     0.711 C 
HETATM    5  N2  UNL     1      21.753   6.175  49.065  1.00  0.00    -0.080 NA
HETATM    6  C4  UNL     1      22.510   7.185  49.645  1.00  0.00     0.120 C 
HETATM    7  C5  UNL     1      22.897   6.333  50.567  1.00  0.00     0.081 C 
HETATM    8  C6  UNL     1      23.733   6.266  51.749  1.00  0.00     0.100 C 
HETATM    9  N3  UNL     1      23.388   5.007  51.878  1.00  0.00    -0.276 NA
HETATM   10  C7  UNL     1      23.881   4.218  52.936  1.00  0.00     0.116 C 
HETATM   11  C8  UNL     1      24.557   3.238  53.491  1.00  0.00     0.031 C 
HETATM   12  C9  UNL     1      25.416   2.103  53.182  1.00  0.00    -0.020 A 
HETATM   13  C10 UNL     1      26.771   2.124  53.429  1.00  0.00     0.012 A 
HETATM   14  C11 UNL     1      27.661   1.106  53.173  1.00  0.00     0.001 A 
HETATM   15  C12 UNL     1      27.101  -0.020  52.619  1.00  0.00     0.001 A 
HETATM   16  C13 UNL     1      25.752  -0.106  52.347  1.00  0.00     0.017 A 
HETATM   17  C14 UNL     1      24.888   0.935  52.615  1.00  0.00     0.032 A 
HETATM   18  C15 UNL     1      23.447   0.801  52.292  1.00  0.00     0.224 C 
HETATM   19  O1  UNL     1      23.157   0.075  53.280  1.00  0.00    -0.279 OA
HETATM   20  S1  UNL     1      23.581   1.805  50.825  1.00  0.00    -0.048 SA
HETATM   21  C16 UNL     1      22.050   2.062  49.992  1.00  0.00     0.010 A 
HETATM   22  C17 UNL     1      20.876   1.348  50.065  1.00  0.00     0.019 A 
HETATM   23  C18 UNL     1      19.758   1.685  49.346  1.00  0.00     0.010 A 
HETATM   24  C19 UNL     1      19.750   2.788  48.487  1.00  0.00    -0.035 A 
HETATM   25  C20 UNL     1      18.553   3.179  47.696  1.00  0.00     0.050 C 
HETATM   26  C21 UNL     1      20.923   3.493  48.421  1.00  0.00     0.056 A 
HETATM   27  C22 UNL     1      22.058   3.167  49.138  1.00  0.00     0.049 A 
HETATM   28  N4  UNL     1      20.900   4.610  47.545  1.00  0.00    -0.189 N 
HETATM   29  H2  UNL     1      22.625   5.615  45.886  1.00  0.00     0.195 HD
HETATM   30  H18 UNL     1      20.327   4.735  46.687  1.00  0.00     0.184 HD
ENDROOT
TORSDOF 0
ENDMDL
MODEL 8
REMARK VINA RESULT:      -8.1      3.477      6.936
REMARK  0 active torsions:
REMARK  status: ('A' for Active; 'I' for Inactive)
REMARK       I    between atoms: N1_3  and  C3_4 
ROOT
HETATM    1  C1  UNL     1      18.748   7.432  47.660  1.00  0.00     0.037 C 
HETATM    2  C2  UNL     1      19.911   7.591  47.874  1.00  0.00     0.015 C 
HETATM    3  N1  UNL     1      21.260   7.797  48.135  1.00  0.00    -0.147 N 
HETATM    4  C3  UNL     1      22.227   6.850  47.714  1.00  0.00     0.711 C 
HETATM    5  N2  UNL     1      21.997   5.829  47.015  1.00  0.00    -0.080 NA
HETATM    6  C4  UNL     1      20.823   5.330  46.467  1.00  0.00     0.120 C 
HETATM    7  C5  UNL     1      21.002   4.224  47.154  1.00  0.00     0.081 C 
HETATM    8  C6  UNL     1      20.378   2.936  47.385  1.00  0.00     0.100 C 
HETATM    9  N3  UNL     1      21.370   2.640  48.191  1.00  0.00    -0.276 NA
HETATM   10  C7  UNL     1      21.430   1.398  48.852  1.00  0.00     0.116 C 
HETATM   11  C8  UNL     1      21.430   0.583  49.881  1.00  0.00     0.031 C 
HETATM   12  C9  UNL     1      21.341   0.553  51.336  1.00  0.00    -0.020 A 
HETATM   13  C10 UNL     1      20.213   0.112  51.989  1.00  0.00     0.012 A 
HETATM   14  C11 UNL     1      20.035   0.047  53.353  1.00  0.00     0.001 A 
HETATM   15  C12 UNL     1      21.112   0.471  54.093  1.00  0.00     0.001 A 
HETATM   16  C13 UNL     1      22.271   0.924  53.500  1.00  0.00     0.017 A 
HETATM   17  C14 UNL     1      22.416   0.978  52.130  1.00  0.00     0.032 A 
HETATM   18  C15 UNL     1      23.677   1.486  51.538  1.00  0.00     0.224 C 
HETATM   19  O1  UNL     1      24.349   0.441  51.744  1.00  0.00    -0.279 OA
HETATM   20  S1  UNL     1      22.966   3.069  51.135  1.00  0.00    -0.048 SA
HETATM   21  C16 UNL     1      24.070   4.157  50.296  1.00  0.00     0.010 A 
HETATM   22  C17 UNL     1      25.444   4.137  50.227  1.00  0.00     0.019 A 
HETATM   23  C18 UNL     1      26.164   5.065  49.519  1.00  0.00     0.010 A 
HETATM   24  C19 UNL     1      25.532   6.096  48.818  1.00  0.00    -0.035 A 
HETATM   25  C20 UNL     1      26.285   7.115  48.040  1.00  0.00     0.050 C 
HETATM   26  C21 UNL     1      24.163   6.107  48.892  1.00  0.00     0.056 A 
HETATM   27  C22 UNL     1      23.423   5.181  49.601  1.00  0.00     0.049 A 
HETATM   28  N4  UNL     1      23.536   7.161  48.176  1.00  0.00    -0.189 N 
HETATM   29  H2  UNL     1      21.498   8.691  48.671  1.00  0.00     0.195 HD
HETATM   30  H18 UNL     1      23.918   8.103  47.965  1.00  0.00     0.184 HD
ENDROOT
TORSDOF 0
ENDMDL
MODEL 9
REMARK VINA RESULT:      -8.0      6.290      9.626
REMARK  0 active torsions:
REMARK  status: ('A' for Active; 'I' for Inactive)
REMARK       I    between atoms: N1_3  and  C3_4 
ROOT
HETATM    1  C1  UNL     1      11.601   2.019  55.841  1.00  0.00     0.037 C 
HETATM    2  C2  UNL     1      11.749   2.803  54.953  1.00  0.00     0.015 C 
HETATM    3  N1  UNL     1      11.921   3.733  53.935  1.00  0.00    -0.147 N 
HETATM    4  C3  UNL     1      12.160   3.306  52.605  1.00  0.00     0.711 C 
HETATM    5  N2  UNL     1      12.147   2.114  52.203  1.00  0.00    -0.080 NA
HETATM    6  C4  UNL     1      11.915   0.918  52.869  1.00  0.00     0.120 C 
HETATM    7  C5  UNL     1      13.115   0.515  52.513  1.00  0.00     0.081 C 
HETATM    8  C6  UNL     1      13.998  -0.626  52.647  1.00  0.00     0.100 C 
HETATM    9  N3  UNL     1      14.883   0.019  51.924  1.00  0.00    -0.276 NA
HETATM   10  C7  UNL     1      16.132  -0.554  51.613  1.00  0.00     0.116 C 
HETATM   11  C8  UNL     1      17.440  -0.667  51.630  1.00  0.00     0.031 C 
HETATM   12  C9  UNL     1      18.650  -0.045  52.152  1.00  0.00    -0.020 A 
HETATM   13  C10 UNL     1      19.377  -0.609  53.176  1.00  0.00     0.012 A 
HETATM   14  C11 UNL     1      20.527  -0.099  53.735  1.00  0.00     0.001 A 
HETATM   15  C12 UNL     1      20.955   1.085  53.186  1.00  0.00     0.001 A 
HETATM   16  C13 UNL     1      20.273   1.702  52.159  1.00  0.00     0.017 A 
HETATM   17  C14 UNL     1      19.122   1.165  51.623  1.00  0.00     0.032 A 
HETATM   18  C15 UNL     1      18.415   1.871  50.528  1.00  0.00     0.224 C 
HETATM   19  O1  UNL     1      19.210   1.526  49.614  1.00  0.00    -0.279 OA
HETATM   20  S1  UNL     1      17.151   2.500  51.615  1.00  0.00    -0.048 SA
HETATM   21  C16 UNL     1      15.906   3.440  50.796  1.00  0.00     0.010 A 
HETATM   22  C17 UNL     1      15.934   4.060  49.569  1.00  0.00     0.019 A 
HETATM   23  C18 UNL     1      14.866   4.758  49.067  1.00  0.00     0.010 A 
HETATM   24  C19 UNL     1      13.672   4.879  49.785  1.00  0.00    -0.035 A 
HETATM   25  C20 UNL     1      12.497   5.627  49.265  1.00  0.00     0.050 C 
HETATM   26  C21 UNL     1      13.653   4.257  51.006  1.00  0.00     0.056 A 
HETATM   27  C22 UNL     1      14.721   3.551  51.526  1.00  0.00     0.049 A 
HETATM   28  N4  UNL     1      12.435   4.389  51.724  1.00  0.00    -0.189 N 
HETATM   29  H2  UNL     1      11.870   4.759  54.230  1.00  0.00     0.195 HD
HETATM   30  H18 UNL     1      11.750   5.168  51.677  1.00  0.00     0.184 HD
ENDROOT
TORSDOF 0
ENDMDL
