MODEL 1
REMARK VINA RESULT:      -8.5      0.000      0.000
REMARK  0 active torsions:
REMARK  status: ('A' for Active; 'I' for Inactive)
ROOT
HETATM    1  C1  UNL     1      21.911  -0.876  53.404  1.00  0.00     0.049 C 
HETATM    2  C2  UNL     1      23.292  -0.341  53.505  1.00  0.00    -0.049 A 
HETATM    3  C3  UNL     1      24.084  -0.868  54.499  1.00  0.00     0.007 A 
HETATM    4  C4  UNL     1      25.385  -0.463  54.706  1.00  0.00     0.003 A 
HETATM    5  C5  UNL     1      25.811   0.528  53.810  1.00  0.00     0.030 A 
HETATM    6  C6  UNL     1      25.030   1.066  52.806  1.00  0.00     0.044 A 
HETATM    7  C7  UNL     1      23.741   0.629  52.643  1.00  0.00     0.005 A 
HETATM    8  C8  UNL     1      22.777   1.077  51.652  1.00  0.00    -0.020 A 
HETATM    9  C9  UNL     1      22.165   1.103  50.408  1.00  0.00     0.013 A 
HETATM   10  C10 UNL     1      21.741   1.962  51.547  1.00  0.00     0.137 A 
HETATM   11  N1  UNL     1      21.814   3.314  51.269  1.00  0.00    -0.393 N 
HETATM   12  C11 UNL     1      21.513   4.292  52.261  1.00  0.00     0.120 C 
HETATM   13  C12 UNL     1      22.724   5.197  52.644  1.00  0.00     0.041 C 
HETATM   14  C13 UNL     1      23.574   4.902  51.493  1.00  0.00     0.082 C 
HETATM   15  C14 UNL     1      22.655   5.197  50.319  1.00  0.00     0.050 C 
HETATM   16  C15 UNL     1      22.171   3.777  49.960  1.00  0.00     0.106 C 
HETATM   17  C16 UNL     1      23.475   3.187  49.455  1.00  0.00     0.018 C 
HETATM   18  C17 UNL     1      24.648   3.775  49.095  1.00  0.00     0.131 C 
HETATM   19  N2  UNL     1      25.314   4.248  50.310  1.00  0.00    -0.206 N 
HETATM   20  N3  UNL     1      26.345   3.310  50.169  1.00  0.00    -0.152 NA
HETATM   21  C18 UNL     1      26.558   2.353  50.966  1.00  0.00     0.231 C 
HETATM   22  N4  UNL     1      25.837   2.017  52.135  1.00  0.00    -0.349 N 
HETATM   23  N5  UNL     1      24.850   5.314  51.183  1.00  0.00    -0.213 NA
HETATM   24  H20 UNL     1      26.023   2.863  52.719  1.00  0.00     0.167 HD
HETATM   25  H21 UNL     1      24.885   6.188  50.614  1.00  0.00     0.149 HD
ENDROOT
TORSDOF 0
ENDMDL
MODEL 2
REMARK VINA RESULT:      -8.4      1.972      4.289
REMARK  0 active torsions:
REMARK  status: ('A' for Active; 'I' for Inactive)
ROOT
HETATM    1  C1  UNL     1      26.886   2.472  51.552  1.00  0.00     0.049 C 
HETATM    2  C2  UNL     1      26.114   1.353  52.147  1.00  0.00    -0.049 A 
HETATM    3  C3  UNL     1      26.837   0.260  52.563  1.00  0.00     0.007 A 
HETATM    4  C4  UNL     1      26.247  -0.849  53.132  1.00  0.00     0.003 A 
HETATM    5  C5  UNL     1      24.853  -0.746  53.241  1.00  0.00     0.030 A 
HETATM    6  C6  UNL     1      24.112   0.345  52.830  1.00  0.00     0.044 A 
HETATM    7  C7  UNL     1      24.747   1.423  52.269  1.00  0.00     0.005 A 
HETATM    8  C8  UNL     1      24.138   2.648  51.778  1.00  0.00    -0.020 A 
HETATM    9  C9  UNL     1      23.610   3.924  51.886  1.00  0.00     0.013 A 
HETATM   10  C10 UNL     1      23.706   3.184  50.598  1.00  0.00     0.137 A 
HETATM   11  N1  UNL     1      22.482   2.992  49.985  1.00  0.00    -0.393 N 
HETATM   12  C11 UNL     1      22.367   2.244  48.778  1.00  0.00     0.120 C 
HETATM   13  C12 UNL     1      21.515   0.945  48.918  1.00  0.00     0.041 C 
HETATM   14  C13 UNL     1      20.847   1.271  50.176  1.00  0.00     0.082 C 
HETATM   15  C14 UNL     1      20.242   2.635  49.886  1.00  0.00     0.050 C 
HETATM   16  C15 UNL     1      21.288   3.565  50.533  1.00  0.00     0.106 C 
HETATM   17  C16 UNL     1      21.072   3.209  51.992  1.00  0.00     0.018 C 
HETATM   18  C17 UNL     1      20.063   2.540  52.614  1.00  0.00     0.131 C 
HETATM   19  N2  UNL     1      20.173   1.122  52.268  1.00  0.00    -0.206 N 
HETATM   20  N3  UNL     1      20.511   0.775  53.582  1.00  0.00    -0.152 NA
HETATM   21  C18 UNL     1      21.632   0.312  53.937  1.00  0.00     0.231 C 
HETATM   22  N4  UNL     1      22.759   0.046  53.126  1.00  0.00    -0.349 N 
HETATM   23  N5  UNL     1      19.972   0.543  50.949  1.00  0.00    -0.213 NA
HETATM   24  H20 UNL     1      22.373  -0.702  52.508  1.00  0.00     0.167 HD
HETATM   25  H21 UNL     1      18.968   0.703  50.715  1.00  0.00     0.149 HD
ENDROOT
TORSDOF 0
ENDMDL
MODEL 3
REMARK VINA RESULT:      -8.1      1.377      2.081
REMARK  0 active torsions:
REMARK  status: ('A' for Active; 'I' for Inactive)
ROOT
HETATM    1  C1  UNL     1      19.087  -0.193  51.890  1.00  0.00     0.049 C 
HETATM    2  C2  UNL     1      20.375  -0.114  52.623  1.00  0.00    -0.049 A 
HETATM    3  C3  UNL     1      20.444  -0.787  53.820  1.00  0.00     0.007 A 
HETATM    4  C4  UNL     1      21.578  -0.798  54.603  1.00  0.00     0.003 A 
HETATM    5  C5  UNL     1      22.640  -0.060  54.059  1.00  0.00     0.030 A 
HETATM    6  C6  UNL     1      22.588   0.620  52.858  1.00  0.00     0.044 A 
HETATM    7  C7  UNL     1      21.435   0.600  52.117  1.00  0.00     0.005 A 
HETATM    8  C8  UNL     1      21.195   1.253  50.841  1.00  0.00    -0.020 A 
HETATM    9  C9  UNL     1      21.229   1.377  49.461  1.00  0.00     0.013 A 
HETATM   10  C10 UNL     1      20.645   2.408  50.362  1.00  0.00     0.137 A 
HETATM   11  N1  UNL     1      21.253   3.644  50.245  1.00  0.00    -0.393 N 
HETATM   12  C11 UNL     1      20.875   4.738  51.076  1.00  0.00     0.120 C 
HETATM   13  C12 UNL     1      22.014   5.242  52.015  1.00  0.00     0.041 C 
HETATM   14  C13 UNL     1      23.139   4.610  51.331  1.00  0.00     0.082 C 
HETATM   15  C14 UNL     1      22.969   5.091  49.899  1.00  0.00     0.050 C 
HETATM   16  C15 UNL     1      22.270   3.873  49.261  1.00  0.00     0.106 C 
HETATM   17  C16 UNL     1      23.404   2.867  49.332  1.00  0.00     0.018 C 
HETATM   18  C17 UNL     1      24.736   3.028  49.565  1.00  0.00     0.131 C 
HETATM   19  N2  UNL     1      24.916   3.356  50.980  1.00  0.00    -0.206 N 
HETATM   20  N3  UNL     1      25.552   2.134  51.233  1.00  0.00    -0.152 NA
HETATM   21  C18 UNL     1      25.083   1.220  51.969  1.00  0.00     0.231 C 
HETATM   22  N4  UNL     1      23.861   1.216  52.679  1.00  0.00    -0.349 N 
HETATM   23  N5  UNL     1      24.480   4.576  51.640  1.00  0.00    -0.213 NA
HETATM   24  H20 UNL     1      24.028   2.001  53.346  1.00  0.00     0.167 HD
HETATM   25  H21 UNL     1      25.033   5.349  51.209  1.00  0.00     0.149 HD
ENDROOT
TORSDOF 0
ENDMDL
MODEL 4
REMARK VINA RESULT:      -7.7      2.099      4.404
REMARK  0 active torsions:
REMARK  status: ('A' for Active; 'I' for Inactive)
ROOT
HETATM    1  C1  UNL     1      25.231   2.434  53.280  1.00  0.00     0.049 C 
HETATM    2  C2  UNL     1      24.197   1.378  53.145  1.00  0.00    -0.049 A 
HETATM    3  C3  UNL     1      24.521   0.135  53.637  1.00  0.00     0.007 A 
HETATM    4  C4  UNL     1      23.656  -0.937  53.577  1.00  0.00     0.003 A 
HETATM    5  C5  UNL     1      22.429  -0.631  52.970  1.00  0.00     0.030 A 
HETATM    6  C6  UNL     1      22.088   0.611  52.474  1.00  0.00     0.044 A 
HETATM    7  C7  UNL     1      22.984   1.645  52.557  1.00  0.00     0.005 A 
HETATM    8  C8  UNL     1      22.804   3.009  52.090  1.00  0.00    -0.020 A 
HETATM    9  C9  UNL     1      22.374   4.324  52.173  1.00  0.00     0.013 A 
HETATM   10  C10 UNL     1      23.103   3.773  50.997  1.00  0.00     0.137 A 
HETATM   11  N1  UNL     1      22.389   3.868  49.817  1.00  0.00    -0.393 N 
HETATM   12  C11 UNL     1      22.896   3.332  48.598  1.00  0.00     0.120 C 
HETATM   13  C12 UNL     1      22.029   2.178  48.007  1.00  0.00     0.041 C 
HETATM   14  C13 UNL     1      20.811   2.419  48.778  1.00  0.00     0.082 C 
HETATM   15  C14 UNL     1      20.534   3.889  48.507  1.00  0.00     0.050 C 
HETATM   16  C15 UNL     1      21.122   4.538  49.777  1.00  0.00     0.106 C 
HETATM   17  C16 UNL     1      20.138   4.011  50.806  1.00  0.00     0.018 C 
HETATM   18  C17 UNL     1      18.917   3.427  50.665  1.00  0.00     0.131 C 
HETATM   19  N2  UNL     1      19.114   2.076  50.140  1.00  0.00    -0.206 N 
HETATM   20  N3  UNL     1      18.675   1.493  51.335  1.00  0.00    -0.152 NA
HETATM   21  C18 UNL     1      19.403   0.811  52.111  1.00  0.00     0.231 C 
HETATM   22  N4  UNL     1      20.772   0.491  51.961  1.00  0.00    -0.349 N 
HETATM   23  N5  UNL     1      19.619   1.734  48.819  1.00  0.00    -0.213 NA
HETATM   24  H20 UNL     1      20.736  -0.089  51.094  1.00  0.00     0.167 HD
HETATM   25  H21 UNL     1      18.907   2.084  48.140  1.00  0.00     0.149 HD
ENDROOT
TORSDOF 0
ENDMDL
MODEL 5
REMARK VINA RESULT:      -7.5      6.485      9.322
REMARK  0 active torsions:
REMARK  status: ('A' for Active; 'I' for Inactive)
ROOT
HETATM    1  C1  UNL     1      25.260   9.182  46.086  1.00  0.00     0.049 C 
HETATM    2  C2  UNL     1      25.584   8.115  47.066  1.00  0.00    -0.049 A 
HETATM    3  C3  UNL     1      24.521   7.544  47.726  1.00  0.00     0.007 A 
HETATM    4  C4  UNL     1      24.678   6.544  48.662  1.00  0.00     0.003 A 
HETATM    5  C5  UNL     1      26.015   6.174  48.866  1.00  0.00     0.030 A 
HETATM    6  C6  UNL     1      27.093   6.735  48.210  1.00  0.00     0.044 A 
HETATM    7  C7  UNL     1      26.884   7.729  47.289  1.00  0.00     0.005 A 
HETATM    8  C8  UNL     1      27.887   8.434  46.508  1.00  0.00    -0.020 A 
HETATM    9  C9  UNL     1      28.758   8.619  45.446  1.00  0.00     0.013 A 
HETATM   10  C10 UNL     1      28.597   9.600  46.555  1.00  0.00     0.137 A 
HETATM   11  N1  UNL     1      29.771   9.842  47.244  1.00  0.00    -0.393 N 
HETATM   12  C11 UNL     1      29.800  10.700  48.381  1.00  0.00     0.120 C 
HETATM   13  C12 UNL     1      30.198   9.980  49.706  1.00  0.00     0.041 C 
HETATM   14  C13 UNL     1      30.777   8.775  49.120  1.00  0.00     0.082 C 
HETATM   15  C14 UNL     1      31.795   9.338  48.142  1.00  0.00     0.050 C 
HETATM   16  C15 UNL     1      31.009   9.257  46.818  1.00  0.00     0.106 C 
HETATM   17  C16 UNL     1      30.931   7.748  46.665  1.00  0.00     0.018 C 
HETATM   18  C17 UNL     1      31.610   6.746  47.286  1.00  0.00     0.131 C 
HETATM   19  N2  UNL     1      31.121   6.647  48.662  1.00  0.00    -0.206 N 
HETATM   20  N3  UNL     1      30.540   5.396  48.418  1.00  0.00    -0.152 NA
HETATM   21  C18 UNL     1      29.298   5.166  48.438  1.00  0.00     0.231 C 
HETATM   22  N4  UNL     1      28.248   6.076  48.698  1.00  0.00    -0.349 N 
HETATM   23  N5  UNL     1      31.294   7.643  49.708  1.00  0.00    -0.213 NA
HETATM   24  H20 UNL     1      28.462   6.330  49.688  1.00  0.00     0.167 HD
HETATM   25  H21 UNL     1      32.320   7.693  49.890  1.00  0.00     0.149 HD
ENDROOT
TORSDOF 0
ENDMDL
MODEL 6
REMARK VINA RESULT:      -7.5      9.334     12.571
REMARK  0 active torsions:
REMARK  status: ('A' for Active; 'I' for Inactive)
ROOT
HETATM    1  C1  UNL     1      32.812   8.581  42.907  1.00  0.00     0.049 C 
HETATM    2  C2  UNL     1      33.036   7.115  42.962  1.00  0.00    -0.049 A 
HETATM    3  C3  UNL     1      32.871   6.423  41.785  1.00  0.00     0.007 A 
HETATM    4  C4  UNL     1      33.046   5.059  41.694  1.00  0.00     0.003 A 
HETATM    5  C5  UNL     1      33.406   4.459  42.909  1.00  0.00     0.030 A 
HETATM    6  C6  UNL     1      33.579   5.139  44.099  1.00  0.00     0.044 A 
HETATM    7  C7  UNL     1      33.391   6.497  44.137  1.00  0.00     0.005 A 
HETATM    8  C8  UNL     1      33.523   7.373  45.288  1.00  0.00    -0.020 A 
HETATM    9  C9  UNL     1      34.205   8.164  46.200  1.00  0.00     0.013 A 
HETATM   10  C10 UNL     1      32.732   7.949  46.242  1.00  0.00     0.137 A 
HETATM   11  N1  UNL     1      32.296   7.384  47.426  1.00  0.00    -0.393 N 
HETATM   12  C11 UNL     1      30.927   7.041  47.624  1.00  0.00     0.120 C 
HETATM   13  C12 UNL     1      30.681   5.513  47.823  1.00  0.00     0.041 C 
HETATM   14  C13 UNL     1      32.055   5.121  48.128  1.00  0.00     0.082 C 
HETATM   15  C14 UNL     1      32.422   6.060  49.266  1.00  0.00     0.050 C 
HETATM   16  C15 UNL     1      33.207   7.150  48.508  1.00  0.00     0.106 C 
HETATM   17  C16 UNL     1      34.424   6.342  48.097  1.00  0.00     0.018 C 
HETATM   18  C17 UNL     1      34.887   5.134  48.520  1.00  0.00     0.131 C 
HETATM   19  N2  UNL     1      34.000   4.095  47.993  1.00  0.00    -0.206 N 
HETATM   20  N3  UNL     1      35.002   3.597  47.151  1.00  0.00    -0.152 NA
HETATM   21  C18 UNL     1      34.963   3.637  45.888  1.00  0.00     0.231 C 
HETATM   22  N4  UNL     1      33.945   4.171  45.066  1.00  0.00    -0.349 N 
HETATM   23  N5  UNL     1      32.610   3.885  48.365  1.00  0.00    -0.213 NA
HETATM   24  H20 UNL     1      33.154   3.535  45.311  1.00  0.00     0.167 HD
HETATM   25  H21 UNL     1      32.620   3.612  49.372  1.00  0.00     0.149 HD
ENDROOT
TORSDOF 0
ENDMDL
MODEL 7
REMARK VINA RESULT:      -7.4      2.305      5.504
REMARK  0 active torsions:
REMARK  status: ('A' for Active; 'I' for Inactive)
ROOT
HETATM    1  C1  UNL     1      25.699   8.174  48.997  1.00  0.00     0.049 C 
HETATM    2  C2  UNL     1      26.291   6.814  48.997  1.00  0.00    -0.049 A 
HETATM    3  C3  UNL     1      27.471   6.657  48.308  1.00  0.00     0.007 A 
HETATM    4  C4  UNL     1      28.129   5.449  48.225  1.00  0.00     0.003 A 
HETATM    5  C5  UNL     1      27.478   4.410  48.907  1.00  0.00     0.030 A 
HETATM    6  C6  UNL     1      26.295   4.551  49.605  1.00  0.00     0.044 A 
HETATM    7  C7  UNL     1      25.680   5.775  49.656  1.00  0.00     0.005 A 
HETATM    8  C8  UNL     1      24.438   6.110  50.334  1.00  0.00    -0.020 A 
HETATM    9  C9  UNL     1      23.648   6.469  51.415  1.00  0.00     0.013 A 
HETATM   10  C10 UNL     1      23.109   6.244  50.045  1.00  0.00     0.137 A 
HETATM   11  N1  UNL     1      22.156   5.244  49.990  1.00  0.00    -0.393 N 
HETATM   12  C11 UNL     1      21.576   4.839  48.753  1.00  0.00     0.120 C 
HETATM   13  C12 UNL     1      21.885   3.361  48.364  1.00  0.00     0.041 C 
HETATM   14  C13 UNL     1      22.321   2.889  49.676  1.00  0.00     0.082 C 
HETATM   15  C14 UNL     1      21.161   3.288  50.574  1.00  0.00     0.050 C 
HETATM   16  C15 UNL     1      21.699   4.598  51.186  1.00  0.00     0.106 C 
HETATM   17  C16 UNL     1      22.830   4.036  52.028  1.00  0.00     0.018 C 
HETATM   18  C17 UNL     1      23.111   2.763  52.420  1.00  0.00     0.131 C 
HETATM   19  N2  UNL     1      23.590   2.021  51.253  1.00  0.00    -0.206 N 
HETATM   20  N3  UNL     1      24.880   1.915  51.789  1.00  0.00    -0.152 NA
HETATM   21  C18 UNL     1      25.908   2.463  51.298  1.00  0.00     0.231 C 
HETATM   22  N4  UNL     1      25.993   3.276  50.145  1.00  0.00    -0.349 N 
HETATM   23  N5  UNL     1      22.806   1.667  50.081  1.00  0.00    -0.213 NA
HETATM   24  H20 UNL     1      25.712   2.590  49.410  1.00  0.00     0.167 HD
HETATM   25  H21 UNL     1      22.069   1.009  50.416  1.00  0.00     0.149 HD
ENDROOT
TORSDOF 0
ENDMDL
MODEL 8
REMARK VINA RESULT:      -7.1      1.788      2.724
REMARK  0 active torsions:
REMARK  status: ('A' for Active; 'I' for Inactive)
ROOT
HETATM    1  C1  UNL     1      19.935   0.983  49.731  1.00  0.00     0.049 C 
HETATM    2  C2  UNL     1      21.125   1.022  50.617  1.00  0.00    -0.049 A 
HETATM    3  C3  UNL     1      21.175   0.082  51.621  1.00  0.00     0.007 A 
HETATM    4  C4  UNL     1      22.221   0.005  52.515  1.00  0.00     0.003 A 
HETATM    5  C5  UNL     1      23.214   0.971  52.298  1.00  0.00     0.030 A 
HETATM    6  C6  UNL     1      23.181   1.919  51.294  1.00  0.00     0.044 A 
HETATM    7  C7  UNL     1      22.117   1.954  50.430  1.00  0.00     0.005 A 
HETATM    8  C8  UNL     1      21.909   2.874  49.325  1.00  0.00    -0.020 A 
HETATM    9  C9  UNL     1      22.055   3.342  48.029  1.00  0.00     0.013 A 
HETATM   10  C10 UNL     1      21.249   4.042  49.066  1.00  0.00     0.137 A 
HETATM   11  N1  UNL     1      21.686   5.329  49.321  1.00  0.00    -0.393 N 
HETATM   12  C11 UNL     1      21.082   6.131  50.332  1.00  0.00     0.120 C 
HETATM   13  C12 UNL     1      22.045   6.509  51.498  1.00  0.00     0.041 C 
HETATM   14  C13 UNL     1      23.307   6.200  50.832  1.00  0.00     0.082 C 
HETATM   15  C14 UNL     1      23.207   7.000  49.544  1.00  0.00     0.050 C 
HETATM   16  C15 UNL     1      22.749   5.910  48.554  1.00  0.00     0.106 C 
HETATM   17  C16 UNL     1      24.002   5.053  48.529  1.00  0.00     0.018 C 
HETATM   18  C17 UNL     1      25.269   5.300  48.958  1.00  0.00     0.131 C 
HETATM   19  N2  UNL     1      25.268   5.283  50.421  1.00  0.00    -0.206 N 
HETATM   20  N3  UNL     1      26.042   4.116  50.457  1.00  0.00    -0.152 NA
HETATM   21  C18 UNL     1      25.639   3.000  50.893  1.00  0.00     0.231 C 
HETATM   22  N4  UNL     1      24.368   2.681  51.422  1.00  0.00    -0.349 N 
HETATM   23  N5  UNL     1      24.604   6.242  51.290  1.00  0.00    -0.213 NA
HETATM   24  H20 UNL     1      24.361   3.288  52.271  1.00  0.00     0.167 HD
HETATM   25  H21 UNL     1      25.081   7.156  51.127  1.00  0.00     0.149 HD
ENDROOT
TORSDOF 0
ENDMDL
MODEL 9
REMARK VINA RESULT:      -7.0      8.722     10.839
REMARK  0 active torsions:
REMARK  status: ('A' for Active; 'I' for Inactive)
ROOT
HETATM    1  C1  UNL     1      33.078   2.660  47.923  1.00  0.00     0.049 C 
HETATM    2  C2  UNL     1      33.509   3.553  46.819  1.00  0.00    -0.049 A 
HETATM    3  C3  UNL     1      34.639   3.179  46.131  1.00  0.00     0.007 A 
HETATM    4  C4  UNL     1      35.150   3.916  45.084  1.00  0.00     0.003 A 
HETATM    5  C5  UNL     1      34.408   5.071  44.799  1.00  0.00     0.030 A 
HETATM    6  C6  UNL     1      33.271   5.461  45.479  1.00  0.00     0.044 A 
HETATM    7  C7  UNL     1      32.804   4.692  46.514  1.00  0.00     0.005 A 
HETATM    8  C8  UNL     1      31.634   4.942  47.340  1.00  0.00    -0.020 A 
HETATM    9  C9  UNL     1      30.286   4.916  47.658  1.00  0.00     0.013 A 
HETATM   10  C10 UNL     1      31.326   5.500  48.549  1.00  0.00     0.137 A 
HETATM   11  N1  UNL     1      31.117   6.838  48.829  1.00  0.00    -0.393 N 
HETATM   12  C11 UNL     1      32.045   7.586  49.609  1.00  0.00     0.120 C 
HETATM   13  C12 UNL     1      32.724   8.756  48.833  1.00  0.00     0.041 C 
HETATM   14  C13 UNL     1      31.788   8.832  47.714  1.00  0.00     0.082 C 
HETATM   15  C14 UNL     1      30.446   8.967  48.414  1.00  0.00     0.050 C 
HETATM   16  C15 UNL     1      29.940   7.511  48.364  1.00  0.00     0.106 C 
HETATM   17  C16 UNL     1      29.726   7.371  46.867  1.00  0.00     0.018 C 
HETATM   18  C17 UNL     1      29.663   8.302  45.877  1.00  0.00     0.131 C 
HETATM   19  N2  UNL     1      31.012   8.822  45.652  1.00  0.00    -0.206 N 
HETATM   20  N3  UNL     1      31.079   8.237  44.381  1.00  0.00    -0.152 NA
HETATM   21  C18 UNL     1      31.872   7.306  44.061  1.00  0.00     0.231 C 
HETATM   22  N4  UNL     1      32.834   6.664  44.874  1.00  0.00    -0.349 N 
HETATM   23  N5  UNL     1      31.791   9.620  46.586  1.00  0.00    -0.213 NA
HETATM   24  H20 UNL     1      33.472   7.465  45.076  1.00  0.00     0.167 HD
HETATM   25  H21 UNL     1      31.274  10.519  46.697  1.00  0.00     0.149 HD
ENDROOT
TORSDOF 0
ENDMDL
