MODEL 1
REMARK VINA RESULT:      -9.3      0.000      0.000
REMARK  4 active torsions:
REMARK  status: ('A' for Active; 'I' for Inactive)
REMARK    1  A    between atoms: C2_2  and  C4_4 
REMARK    2  A    between atoms: C6_6  and  C7_7 
REMARK    3  A    between atoms: C17_19  and  C18_20 
REMARK    4  A    between atoms: C21_23  and  O2_24 
ROOT
HETATM    1  C4  UNL     1      22.222   1.550  50.449  1.00  0.00    -0.020 A 
HETATM    2  C5  UNL     1      23.430   1.972  50.961  1.00  0.00     0.021 A 
HETATM    3  C6  UNL     1      23.923   1.642  52.229  1.00  0.00    -0.034 A 
HETATM    4  C16 UNL     1      23.163   0.839  53.039  1.00  0.00     0.021 A 
HETATM    5  C17 UNL     1      21.949   0.377  52.606  1.00  0.00    -0.020 A 
HETATM    6  C21 UNL     1      21.519   0.740  51.340  1.00  0.00     0.079 A 
ENDROOT
BRANCH   3   7
HETATM    7  C7  UNL     1      25.208   2.151  52.592  1.00  0.00     0.021 C 
HETATM    8  C8  UNL     1      26.329   1.628  52.873  1.00  0.00    -0.013 A 
HETATM    9  C9  UNL     1      27.671   2.233  53.268  1.00  0.00     0.007 A 
HETATM   10  C15 UNL     1      26.293   0.115  52.736  1.00  0.00     0.277 A 
HETATM   11  C10 UNL     1      28.774   1.440  53.498  1.00  0.00    -0.013 A 
HETATM   12  C11 UNL     1      29.757   0.293  53.672  1.00  0.00     0.066 A 
HETATM   13  C12 UNL     1      30.121  -1.077  53.666  1.00  0.00    -0.003 A 
HETATM   14  C13 UNL     1      28.862  -1.193  53.321  1.00  0.00    -0.010 A 
HETATM   15  C14 UNL     1      27.768  -1.272  53.014  1.00  0.00     0.212 A 
HETATM   16  N1  UNL     1      26.455  -1.341  52.650  1.00  0.00     0.142 N 
HETATM   17  O1  UNL     1      27.366  -0.216  52.976  1.00  0.00     0.000 OA
HETATM   18  H14 UNL     1      25.841  -2.082  52.413  1.00  0.00     0.325 HD
ENDBRANCH   3   7
BRANCH   1  19
HETATM   19  C2  UNL     1      21.648   1.882  49.132  1.00  0.00     0.013 C 
HETATM   20  C1  UNL     1      22.643   2.110  48.048  1.00  0.00     0.015 C 
HETATM   21  C3  UNL     1      20.694   3.053  49.217  1.00  0.00     0.015 C 
ENDBRANCH   1  19
BRANCH   5  22
HETATM   22  C18 UNL     1      21.073  -0.512  53.430  1.00  0.00     0.013 C 
HETATM   23  C19 UNL     1      20.554   0.375  54.551  1.00  0.00     0.015 C 
HETATM   24  C20 UNL     1      21.887  -1.673  53.943  1.00  0.00     0.015 C 
ENDBRANCH   5  22
BRANCH   6  25
HETATM   25  O2  UNL     1      20.269   0.216  50.990  1.00  0.00    -0.360 OA
HETATM   26  H23 UNL     1      20.221  -0.550  50.372  1.00  0.00     0.217 HD
ENDBRANCH   6  25
TORSDOF 4
ENDMDL
MODEL 2
REMARK VINA RESULT:      -9.1      0.249      3.321
REMARK  4 active torsions:
REMARK  status: ('A' for Active; 'I' for Inactive)
REMARK    1  A    between atoms: C2_2  and  C4_4 
REMARK    2  A    between atoms: C6_6  and  C7_7 
REMARK    3  A    between atoms: C17_19  and  C18_20 
REMARK    4  A    between atoms: C21_23  and  O2_24 
ROOT
HETATM    1  C4  UNL     1      22.135   0.354  52.776  1.00  0.00    -0.020 A 
HETATM    2  C5  UNL     1      23.394   0.881  52.971  1.00  0.00     0.021 A 
HETATM    3  C6  UNL     1      24.080   1.683  52.050  1.00  0.00    -0.034 A 
HETATM    4  C16 UNL     1      23.472   1.979  50.859  1.00  0.00     0.021 A 
HETATM    5  C17 UNL     1      22.220   1.496  50.586  1.00  0.00    -0.020 A 
HETATM    6  C21 UNL     1      21.595   0.709  51.540  1.00  0.00     0.079 A 
ENDROOT
BRANCH   3   7
HETATM    7  C7  UNL     1      25.373   2.160  52.425  1.00  0.00     0.021 C 
HETATM    8  C8  UNL     1      26.470   1.610  52.746  1.00  0.00    -0.013 A 
HETATM    9  C9  UNL     1      27.824   2.182  53.150  1.00  0.00     0.007 A 
HETATM   10  C15 UNL     1      26.386   0.095  52.656  1.00  0.00     0.277 A 
HETATM   11  C10 UNL     1      28.895   1.361  53.429  1.00  0.00    -0.013 A 
HETATM   12  C11 UNL     1      29.833   0.189  53.660  1.00  0.00     0.066 A 
HETATM   13  C12 UNL     1      30.151  -1.193  53.706  1.00  0.00    -0.003 A 
HETATM   14  C13 UNL     1      28.896  -1.278  53.337  1.00  0.00    -0.010 A 
HETATM   15  C14 UNL     1      27.807  -1.330  53.010  1.00  0.00     0.212 A 
HETATM   16  N1  UNL     1      26.500  -1.368  52.620  1.00  0.00     0.142 N 
HETATM   17  O1  UNL     1      27.442  -0.264  52.930  1.00  0.00     0.000 OA
HETATM   18  H14 UNL     1      25.866  -2.095  52.394  1.00  0.00     0.325 HD
ENDBRANCH   3   7
BRANCH   1  19
HETATM   19  C2  UNL     1      21.377  -0.507  53.700  1.00  0.00     0.013 C 
HETATM   20  C1  UNL     1      20.451   0.211  54.619  1.00  0.00     0.015 C 
HETATM   21  C3  UNL     1      22.291  -1.419  54.491  1.00  0.00     0.015 C 
ENDBRANCH   1  19
BRANCH   5  22
HETATM   22  C18 UNL     1      21.491   1.790  49.314  1.00  0.00     0.013 C 
HETATM   23  C19 UNL     1      22.580   1.964  48.266  1.00  0.00     0.015 C 
HETATM   24  C20 UNL     1      20.660   3.035  49.494  1.00  0.00     0.015 C 
ENDBRANCH   5  22
BRANCH   6  25
HETATM   25  O2  UNL     1      20.320   0.266  51.168  1.00  0.00    -0.360 OA
HETATM   26  H23 UNL     1      19.594   0.269  51.834  1.00  0.00     0.217 HD
ENDBRANCH   6  25
TORSDOF 4
ENDMDL
MODEL 3
REMARK VINA RESULT:      -8.6      3.097      6.488
REMARK  4 active torsions:
REMARK  status: ('A' for Active; 'I' for Inactive)
REMARK    1  A    between atoms: C2_2  and  C4_4 
REMARK    2  A    between atoms: C6_6  and  C7_7 
REMARK    3  A    between atoms: C17_19  and  C18_20 
REMARK    4  A    between atoms: C21_23  and  O2_24 
ROOT
HETATM    1  C4  UNL     1      22.960   0.074  53.555  1.00  0.00    -0.020 A 
HETATM    2  C5  UNL     1      22.779   0.840  52.423  1.00  0.00     0.021 A 
HETATM    3  C6  UNL     1      23.810   1.325  51.610  1.00  0.00    -0.034 A 
HETATM    4  C16 UNL     1      25.105   1.029  51.947  1.00  0.00     0.021 A 
HETATM    5  C17 UNL     1      25.372   0.273  53.057  1.00  0.00    -0.020 A 
HETATM    6  C21 UNL     1      24.306  -0.177  53.819  1.00  0.00     0.079 A 
ENDROOT
BRANCH   3   7
HETATM    7  C7  UNL     1      23.441   2.089  50.460  1.00  0.00     0.021 C 
HETATM    8  C8  UNL     1      23.347   3.327  50.203  1.00  0.00    -0.013 A 
HETATM    9  C9  UNL     1      22.933   4.085  48.947  1.00  0.00     0.007 A 
HETATM   10  C15 UNL     1      23.781   4.180  51.384  1.00  0.00     0.277 A 
HETATM   11  C10 UNL     1      22.941   5.462  48.905  1.00  0.00    -0.013 A 
HETATM   12  C11 UNL     1      23.067   6.946  49.206  1.00  0.00     0.066 A 
HETATM   13  C12 UNL     1      23.371   8.050  50.044  1.00  0.00    -0.003 A 
HETATM   14  C13 UNL     1      23.646   7.074  50.874  1.00  0.00    -0.010 A 
HETATM   15  C14 UNL     1      23.886   6.212  51.578  1.00  0.00     0.212 A 
HETATM   16  N1  UNL     1      24.167   5.163  52.404  1.00  0.00     0.142 N 
HETATM   17  O1  UNL     1      23.685   5.260  51.004  1.00  0.00     0.000 OA
HETATM   18  H14 UNL     1      24.504   5.084  53.332  1.00  0.00     0.325 HD
ENDBRANCH   3   7
BRANCH   1  19
HETATM   19  C2  UNL     1      21.915  -0.447  54.454  1.00  0.00     0.013 C 
HETATM   20  C1  UNL     1      21.522  -1.863  54.214  1.00  0.00     0.015 C 
HETATM   21  C3  UNL     1      20.687   0.439  54.458  1.00  0.00     0.015 C 
ENDBRANCH   1  19
BRANCH   5  22
HETATM   22  C18 UNL     1      26.758  -0.099  53.477  1.00  0.00     0.013 C 
HETATM   23  C19 UNL     1      27.604   1.129  53.181  1.00  0.00     0.015 C 
HETATM   24  C20 UNL     1      27.204  -1.309  52.695  1.00  0.00     0.015 C 
ENDBRANCH   5  22
BRANCH   6  25
HETATM   25  O2  UNL     1      24.682  -0.942  54.930  1.00  0.00    -0.360 OA
HETATM   26  H23 UNL     1      24.793  -0.502  55.805  1.00  0.00     0.217 HD
ENDBRANCH   6  25
TORSDOF 4
ENDMDL
MODEL 4
REMARK VINA RESULT:      -8.6      2.163      7.148
REMARK  4 active torsions:
REMARK  status: ('A' for Active; 'I' for Inactive)
REMARK    1  A    between atoms: C2_2  and  C4_4 
REMARK    2  A    between atoms: C6_6  and  C7_7 
REMARK    3  A    between atoms: C17_19  and  C18_20 
REMARK    4  A    between atoms: C21_23  and  O2_24 
ROOT
HETATM    1  C4  UNL     1      26.948   0.883  52.957  1.00  0.00    -0.020 A 
HETATM    2  C5  UNL     1      25.882   0.174  53.468  1.00  0.00     0.021 A 
HETATM    3  C6  UNL     1      24.535   0.509  53.286  1.00  0.00    -0.034 A 
HETATM    4  C16 UNL     1      24.230   1.623  52.548  1.00  0.00     0.021 A 
HETATM    5  C17 UNL     1      25.231   2.383  52.004  1.00  0.00    -0.020 A 
HETATM    6  C21 UNL     1      26.544   1.996  52.221  1.00  0.00     0.079 A 
ENDROOT
BRANCH   3   7
HETATM    7  C7  UNL     1      23.555  -0.351  53.871  1.00  0.00     0.021 C 
HETATM    8  C8  UNL     1      22.316  -0.549  53.686  1.00  0.00    -0.013 A 
HETATM    9  C9  UNL     1      21.316  -1.483  54.358  1.00  0.00     0.007 A 
HETATM   10  C15 UNL     1      21.779   0.290  52.539  1.00  0.00     0.277 A 
HETATM   11  C10 UNL     1      20.002  -1.540  53.950  1.00  0.00    -0.013 A 
HETATM   12  C11 UNL     1      18.662  -1.347  53.257  1.00  0.00     0.066 A 
HETATM   13  C12 UNL     1      17.805  -0.755  52.295  1.00  0.00    -0.003 A 
HETATM   14  C13 UNL     1      18.919  -0.133  51.994  1.00  0.00    -0.010 A 
HETATM   15  C14 UNL     1      19.898   0.391  51.744  1.00  0.00     0.212 A 
HETATM   16  N1  UNL     1      21.083   1.007  51.464  1.00  0.00     0.142 N 
HETATM   17  O1  UNL     1      20.674  -0.016  52.458  1.00  0.00     0.000 OA
HETATM   18  H14 UNL     1      21.373   1.677  50.793  1.00  0.00     0.325 HD
ENDBRANCH   3   7
BRANCH   1  19
HETATM   19  C2  UNL     1      28.381   0.586  53.132  1.00  0.00     0.013 C 
HETATM   20  C1  UNL     1      28.711  -0.853  53.321  1.00  0.00     0.015 C 
HETATM   21  C3  UNL     1      28.990   1.409  54.247  1.00  0.00     0.015 C 
ENDBRANCH   1  19
BRANCH   5  22
HETATM   22  C18 UNL     1      24.972   3.602  51.178  1.00  0.00     0.013 C 
HETATM   23  C19 UNL     1      23.831   4.320  51.881  1.00  0.00     0.015 C 
HETATM   24  C20 UNL     1      24.612   3.182  49.775  1.00  0.00     0.015 C 
ENDBRANCH   5  22
BRANCH   6  25
HETATM   25  O2  UNL     1      27.492   2.836  51.624  1.00  0.00    -0.360 OA
HETATM   26  H23 UNL     1      28.096   3.366  52.194  1.00  0.00     0.217 HD
ENDBRANCH   6  25
TORSDOF 4
ENDMDL
MODEL 5
REMARK VINA RESULT:      -8.5      3.098      6.250
REMARK  4 active torsions:
REMARK  status: ('A' for Active; 'I' for Inactive)
REMARK    1  A    between atoms: C2_2  and  C4_4 
REMARK    2  A    between atoms: C6_6  and  C7_7 
REMARK    3  A    between atoms: C17_19  and  C18_20 
REMARK    4  A    between atoms: C21_23  and  O2_24 
ROOT
HETATM    1  C4  UNL     1      25.356   0.225  53.031  1.00  0.00    -0.020 A 
HETATM    2  C5  UNL     1      24.939   0.955  51.938  1.00  0.00     0.021 A 
HETATM    3  C6  UNL     1      23.604   1.249  51.632  1.00  0.00    -0.034 A 
HETATM    4  C16 UNL     1      22.623   0.787  52.469  1.00  0.00     0.021 A 
HETATM    5  C17 UNL     1      22.952   0.054  53.578  1.00  0.00    -0.020 A 
HETATM    6  C21 UNL     1      24.292  -0.203  53.824  1.00  0.00     0.079 A 
ENDROOT
BRANCH   3   7
HETATM    7  C7  UNL     1      23.352   2.037  50.468  1.00  0.00     0.021 C 
HETATM    8  C8  UNL     1      23.329   3.280  50.218  1.00  0.00    -0.013 A 
HETATM    9  C9  UNL     1      23.038   4.065  48.943  1.00  0.00     0.007 A 
HETATM   10  C15 UNL     1      23.713   4.105  51.436  1.00  0.00     0.277 A 
HETATM   11  C10 UNL     1      23.108   5.440  48.917  1.00  0.00    -0.013 A 
HETATM   12  C11 UNL     1      23.275   6.916  49.242  1.00  0.00     0.066 A 
HETATM   13  C12 UNL     1      23.564   7.999  50.111  1.00  0.00    -0.003 A 
HETATM   14  C13 UNL     1      23.737   7.005  50.949  1.00  0.00    -0.010 A 
HETATM   15  C14 UNL     1      23.890   6.129  51.659  1.00  0.00     0.212 A 
HETATM   16  N1  UNL     1      24.066   5.062  52.491  1.00  0.00     0.142 N 
HETATM   17  O1  UNL     1      23.690   5.190  51.061  1.00  0.00     0.000 OA
HETATM   18  H14 UNL     1      24.332   4.961  53.440  1.00  0.00     0.325 HD
ENDBRANCH   3   7
BRANCH   1  19
HETATM   19  C2  UNL     1      26.741  -0.129  53.389  1.00  0.00     0.013 C 
HETATM   20  C1  UNL     1      27.755   0.925  53.111  1.00  0.00     0.015 C 
HETATM   21  C3  UNL     1      27.165  -1.438  52.759  1.00  0.00     0.015 C 
ENDBRANCH   1  19
BRANCH   5  22
HETATM   22  C18 UNL     1      21.936  -0.471  54.541  1.00  0.00     0.013 C 
HETATM   23  C19 UNL     1      21.576  -1.854  54.021  1.00  0.00     0.015 C 
HETATM   24  C20 UNL     1      20.751   0.461  54.568  1.00  0.00     0.015 C 
ENDBRANCH   5  22
BRANCH   6  25
HETATM   25  O2  UNL     1      24.525  -0.957  54.980  1.00  0.00    -0.360 OA
HETATM   26  H23 UNL     1      25.388  -1.419  55.090  1.00  0.00     0.217 HD
ENDBRANCH   6  25
TORSDOF 4
ENDMDL
MODEL 6
REMARK VINA RESULT:      -8.2      2.540      7.070
REMARK  4 active torsions:
REMARK  status: ('A' for Active; 'I' for Inactive)
REMARK    1  A    between atoms: C2_2  and  C4_4 
REMARK    2  A    between atoms: C6_6  and  C7_7 
REMARK    3  A    between atoms: C17_19  and  C18_20 
REMARK    4  A    between atoms: C21_23  and  O2_24 
ROOT
HETATM    1  C4  UNL     1      24.187   2.477  52.395  1.00  0.00    -0.020 A 
HETATM    2  C5  UNL     1      23.143   1.686  52.825  1.00  0.00     0.021 A 
HETATM    3  C6  UNL     1      23.276   0.385  53.326  1.00  0.00    -0.034 A 
HETATM    4  C16 UNL     1      24.530  -0.163  53.402  1.00  0.00     0.021 A 
HETATM    5  C17 UNL     1      25.621   0.556  52.995  1.00  0.00    -0.020 A 
HETATM    6  C21 UNL     1      25.422   1.839  52.510  1.00  0.00     0.079 A 
ENDROOT
BRANCH   3   7
HETATM    7  C7  UNL     1      22.087  -0.286  53.747  1.00  0.00     0.021 C 
HETATM    8  C8  UNL     1      20.905  -0.377  53.295  1.00  0.00    -0.013 A 
HETATM    9  C9  UNL     1      19.667  -1.107  53.803  1.00  0.00     0.007 A 
HETATM   10  C15 UNL     1      20.751   0.360  51.975  1.00  0.00     0.277 A 
HETATM   11  C10 UNL     1      18.481  -1.078  53.103  1.00  0.00    -0.013 A 
HETATM   12  C11 UNL     1      17.366  -0.837  52.098  1.00  0.00     0.066 A 
HETATM   13  C12 UNL     1      16.829  -0.288  50.906  1.00  0.00    -0.003 A 
HETATM   14  C13 UNL     1      18.054   0.171  50.816  1.00  0.00    -0.010 A 
HETATM   15  C14 UNL     1      19.124   0.554  50.752  1.00  0.00     0.212 A 
HETATM   16  N1  UNL     1      20.412   1.002  50.699  1.00  0.00     0.142 N 
HETATM   17  O1  UNL     1      19.662   0.163  51.666  1.00  0.00     0.000 OA
HETATM   18  H14 UNL     1      20.928   1.546  50.052  1.00  0.00     0.325 HD
ENDBRANCH   3   7
BRANCH   1  19
HETATM   19  C2  UNL     1      24.102   3.842  51.845  1.00  0.00     0.013 C 
HETATM   20  C1  UNL     1      23.395   4.829  52.707  1.00  0.00     0.015 C 
HETATM   21  C3  UNL     1      23.507   3.848  50.453  1.00  0.00     0.015 C 
ENDBRANCH   1  19
BRANCH   5  22
HETATM   22  C18 UNL     1      27.018   0.027  53.062  1.00  0.00     0.013 C 
HETATM   23  C19 UNL     1      26.900  -1.445  52.702  1.00  0.00     0.015 C 
HETATM   24  C20 UNL     1      27.563   0.240  54.452  1.00  0.00     0.015 C 
ENDBRANCH   5  22
BRANCH   6  25
HETATM   25  O2  UNL     1      26.598   2.492  52.122  1.00  0.00    -0.360 OA
HETATM   26  H23 UNL     1      27.295   2.673  52.794  1.00  0.00     0.217 HD
ENDBRANCH   6  25
TORSDOF 4
ENDMDL
MODEL 7
REMARK VINA RESULT:      -7.9      2.903      7.723
REMARK  4 active torsions:
REMARK  status: ('A' for Active; 'I' for Inactive)
REMARK    1  A    between atoms: C2_2  and  C4_4 
REMARK    2  A    between atoms: C6_6  and  C7_7 
REMARK    3  A    between atoms: C17_19  and  C18_20 
REMARK    4  A    between atoms: C21_23  and  O2_24 
ROOT
HETATM    1  C4  UNL     1      24.942   0.608  53.089  1.00  0.00    -0.020 A 
HETATM    2  C5  UNL     1      23.705   0.054  53.342  1.00  0.00     0.021 A 
HETATM    3  C6  UNL     1      22.478   0.676  53.080  1.00  0.00    -0.034 A 
HETATM    4  C16 UNL     1      22.484   1.932  52.532  1.00  0.00     0.021 A 
HETATM    5  C17 UNL     1      23.671   2.554  52.250  1.00  0.00    -0.020 A 
HETATM    6  C21 UNL     1      24.850   1.883  52.532  1.00  0.00     0.079 A 
ENDROOT
BRANCH   3   7
HETATM    7  C7  UNL     1      21.288  -0.053  53.387  1.00  0.00     0.021 C 
HETATM    8  C8  UNL     1      20.152  -0.179  52.838  1.00  0.00    -0.013 A 
HETATM    9  C9  UNL     1      18.909  -0.971  53.226  1.00  0.00     0.007 A 
HETATM   10  C15 UNL     1      20.073   0.586  51.527  1.00  0.00     0.277 A 
HETATM   11  C10 UNL     1      17.782  -0.972  52.433  1.00  0.00    -0.013 A 
HETATM   12  C11 UNL     1      16.743  -0.749  51.346  1.00  0.00     0.066 A 
HETATM   13  C12 UNL     1      16.281  -0.190  50.127  1.00  0.00    -0.003 A 
HETATM   14  C13 UNL     1      17.489   0.320  50.148  1.00  0.00    -0.010 A 
HETATM   15  C14 UNL     1      18.544   0.747  50.181  1.00  0.00     0.212 A 
HETATM   16  N1  UNL     1      19.811   1.248  50.244  1.00  0.00     0.142 N 
HETATM   17  O1  UNL     1      19.022   0.354  51.127  1.00  0.00     0.000 OA
HETATM   18  H14 UNL     1      20.355   1.830  49.654  1.00  0.00     0.325 HD
ENDBRANCH   3   7
BRANCH   1  19
HETATM   19  C2  UNL     1      26.259   0.006  53.360  1.00  0.00     0.013 C 
HETATM   20  C1  UNL     1      26.480  -1.335  52.751  1.00  0.00     0.015 C 
HETATM   21  C3  UNL     1      26.558  -0.040  54.843  1.00  0.00     0.015 C 
ENDBRANCH   1  19
BRANCH   5  22
HETATM   22  C18 UNL     1      23.753   3.917  51.640  1.00  0.00     0.013 C 
HETATM   23  C19 UNL     1      22.708   4.742  52.374  1.00  0.00     0.015 C 
HETATM   24  C20 UNL     1      23.474   3.816  50.161  1.00  0.00     0.015 C 
ENDBRANCH   5  22
BRANCH   6  25
HETATM   25  O2  UNL     1      26.007   2.601  52.206  1.00  0.00    -0.360 OA
HETATM   26  H23 UNL     1      26.089   3.007  51.312  1.00  0.00     0.217 HD
ENDBRANCH   6  25
TORSDOF 4
ENDMDL
MODEL 8
REMARK VINA RESULT:      -7.8      2.560      7.275
REMARK  4 active torsions:
REMARK  status: ('A' for Active; 'I' for Inactive)
REMARK    1  A    between atoms: C2_2  and  C4_4 
REMARK    2  A    between atoms: C6_6  and  C7_7 
REMARK    3  A    between atoms: C17_19  and  C18_20 
REMARK    4  A    between atoms: C21_23  and  O2_24 
ROOT
HETATM    1  C4  UNL     1      25.181   1.539  51.798  1.00  0.00    -0.020 A 
HETATM    2  C5  UNL     1      23.898   1.365  51.324  1.00  0.00     0.021 A 
HETATM    3  C6  UNL     1      23.251   2.223  50.426  1.00  0.00    -0.034 A 
HETATM    4  C16 UNL     1      23.926   3.325  49.971  1.00  0.00     0.021 A 
HETATM    5  C17 UNL     1      25.205   3.572  50.392  1.00  0.00    -0.020 A 
HETATM    6  C21 UNL     1      25.789   2.683  51.281  1.00  0.00     0.079 A 
ENDROOT
BRANCH   3   7
HETATM    7  C7  UNL     1      21.924   1.879  50.023  1.00  0.00     0.021 C 
HETATM    8  C8  UNL     1      20.967   1.239  50.555  1.00  0.00    -0.013 A 
HETATM    9  C9  UNL     1      19.566   0.894  50.063  1.00  0.00     0.007 A 
HETATM   10  C15 UNL     1      21.310   0.785  51.964  1.00  0.00     0.277 A 
HETATM   11  C10 UNL     1      18.679   0.198  50.855  1.00  0.00    -0.013 A 
HETATM   12  C11 UNL     1      17.980  -0.563  51.969  1.00  0.00     0.066 A 
HETATM   13  C12 UNL     1      17.914  -1.147  53.260  1.00  0.00    -0.003 A 
HETATM   14  C13 UNL     1      19.135  -0.672  53.306  1.00  0.00    -0.010 A 
HETATM   15  C14 UNL     1      20.190  -0.245  53.329  1.00  0.00     0.212 A 
HETATM   16  N1  UNL     1      21.452   0.274  53.333  1.00  0.00     0.142 N 
HETATM   17  O1  UNL     1      20.355   0.263  52.333  1.00  0.00     0.000 OA
HETATM   18  H14 UNL     1      22.186   0.304  53.998  1.00  0.00     0.325 HD
ENDBRANCH   3   7
BRANCH   1  19
HETATM   19  C2  UNL     1      25.901   0.680  52.754  1.00  0.00     0.013 C 
HETATM   20  C1  UNL     1      26.785  -0.348  52.139  1.00  0.00     0.015 C 
HETATM   21  C3  UNL     1      24.957   0.030  53.743  1.00  0.00     0.015 C 
ENDBRANCH   1  19
BRANCH   5  22
HETATM   22  C18 UNL     1      26.005   4.746  49.927  1.00  0.00     0.013 C 
HETATM   23  C19 UNL     1      24.997   5.676  49.271  1.00  0.00     0.015 C 
HETATM   24  C20 UNL     1      27.066   4.274  48.965  1.00  0.00     0.015 C 
ENDBRANCH   5  22
BRANCH   6  25
HETATM   25  O2  UNL     1      27.097   3.021  51.650  1.00  0.00    -0.360 OA
HETATM   26  H23 UNL     1      27.855   2.575  51.206  1.00  0.00     0.217 HD
ENDBRANCH   6  25
TORSDOF 4
ENDMDL
MODEL 9
REMARK VINA RESULT:      -7.6      3.363      5.966
REMARK  4 active torsions:
REMARK  status: ('A' for Active; 'I' for Inactive)
REMARK    1  A    between atoms: C2_2  and  C4_4 
REMARK    2  A    between atoms: C6_6  and  C7_7 
REMARK    3  A    between atoms: C17_19  and  C18_20 
REMARK    4  A    between atoms: C21_23  and  O2_24 
ROOT
HETATM    1  C4  UNL     1      23.016   3.985  48.651  1.00  0.00    -0.020 A 
HETATM    2  C5  UNL     1      23.540   3.041  49.508  1.00  0.00     0.021 A 
HETATM    3  C6  UNL     1      24.754   3.167  50.195  1.00  0.00    -0.034 A 
HETATM    4  C16 UNL     1      25.493   4.307  50.015  1.00  0.00     0.021 A 
HETATM    5  C17 UNL     1      25.044   5.294  49.180  1.00  0.00    -0.020 A 
HETATM    6  C21 UNL     1      23.834   5.108  48.530  1.00  0.00     0.079 A 
ENDROOT
BRANCH   3   7
HETATM    7  C7  UNL     1      25.137   2.098  51.061  1.00  0.00     0.021 C 
HETATM    8  C8  UNL     1      24.536   1.390  51.926  1.00  0.00    -0.013 A 
HETATM    9  C9  UNL     1      25.010   0.261  52.834  1.00  0.00     0.007 A 
HETATM   10  C15 UNL     1      23.059   1.737  52.007  1.00  0.00     0.277 A 
HETATM   11  C10 UNL     1      24.141  -0.387  53.685  1.00  0.00    -0.013 A 
HETATM   12  C11 UNL     1      22.937  -0.868  54.478  1.00  0.00     0.066 A 
HETATM   13  C12 UNL     1      21.569  -0.842  54.848  1.00  0.00    -0.003 A 
HETATM   14  C13 UNL     1      21.563   0.116  53.952  1.00  0.00    -0.010 A 
HETATM   15  C14 UNL     1      21.577   0.939  53.166  1.00  0.00     0.212 A 
HETATM   16  N1  UNL     1      21.619   1.922  52.221  1.00  0.00     0.142 N 
HETATM   17  O1  UNL     1      22.639   1.004  52.786  1.00  0.00     0.000 OA
HETATM   18  H14 UNL     1      20.944   2.529  51.824  1.00  0.00     0.325 HD
ENDBRANCH   3   7
BRANCH   1  19
HETATM   19  C2  UNL     1      21.756   3.897  47.892  1.00  0.00     0.013 C 
HETATM   20  C1  UNL     1      20.647   3.186  48.586  1.00  0.00     0.015 C 
HETATM   21  C3  UNL     1      21.973   3.303  46.516  1.00  0.00     0.015 C 
ENDBRANCH   1  19
BRANCH   5  22
HETATM   22  C18 UNL     1      25.791   6.568  48.946  1.00  0.00     0.013 C 
HETATM   23  C19 UNL     1      27.183   6.136  48.513  1.00  0.00     0.015 C 
HETATM   24  C20 UNL     1      25.808   7.374  50.221  1.00  0.00     0.015 C 
ENDBRANCH   5  22
BRANCH   6  25
HETATM   25  O2  UNL     1      23.461   6.173  47.702  1.00  0.00    -0.360 OA
HETATM   26  H23 UNL     1      23.819   7.074  47.881  1.00  0.00     0.217 HD
ENDBRANCH   6  25
TORSDOF 4
ENDMDL
