MODEL 1
REMARK VINA RESULT:      -7.0      0.000      0.000
REMARK  8 active torsions:
REMARK  status: ('A' for Active; 'I' for Inactive)
REMARK    1  A    between atoms: C2_2  and  C3_3 
REMARK    2  A    between atoms: C3_3  and  C4_4 
REMARK    3  A    between atoms: C4_4  and  C5_5 
REMARK    4  A    between atoms: C5_5  and  C6_6 
REMARK    5  A    between atoms: C6_6  and  N1_7 
REMARK    6  A    between atoms: N1_7  and  C7_8 
REMARK    7  A    between atoms: N3_13  and  C11_14 
REMARK    8  A    between atoms: C11_14  and  C12_15 
ROOT
HETATM    1  C7  UNL     1      27.053   2.100  53.253  1.00  0.00     0.312 A 
HETATM    2  N2  UNL     1      28.356   2.362  53.814  1.00  0.00    -0.257 NA
HETATM    3  C8  UNL     1      29.081   1.487  54.377  1.00  0.00     0.116 A 
HETATM    4  C9  UNL     1      28.788   0.076  54.575  1.00  0.00     0.036 A 
HETATM    5  C10 UNL     1      27.615  -0.235  54.066  1.00  0.00     0.091 A 
HETATM    6  N3  UNL     1      26.733   0.695  53.393  1.00  0.00    -0.351 N 
ENDROOT
BRANCH   1   7
HETATM    7  N1  UNL     1      27.014   2.601  51.926  1.00  0.00    -0.361 N 
HETATM    8  H8  UNL     1      27.986   2.575  51.476  1.00  0.00     0.162 HD
BRANCH   7   9
HETATM    9  C6  UNL     1      26.427   3.128  50.823  1.00  0.00     0.086 C 
BRANCH   9  10
HETATM   10  C5  UNL     1      26.461   3.221  49.556  1.00  0.00     0.017 C 
BRANCH  10  11
HETATM   11  C4  UNL     1      26.503   4.610  49.043  1.00  0.00     0.001 C 
BRANCH  11  12
HETATM   12  C3  UNL     1      27.681   5.011  48.654  1.00  0.00    -0.004 C 
BRANCH  12  13
HETATM   13  C2  UNL     1      28.977   5.519  48.276  1.00  0.00    -0.026 C 
HETATM   14  C1  UNL     1      30.212   5.762  47.880  1.00  0.00     0.031 C 
ENDBRANCH  12  13
ENDBRANCH  11  12
ENDBRANCH  10  11
ENDBRANCH   9  10
ENDBRANCH   7   9
ENDBRANCH   1   7
BRANCH   6  15
HETATM   15  C11 UNL     1      25.546   0.146  52.833  1.00  0.00     0.140 C 
BRANCH  15  16
HETATM   16  C12 UNL     1      24.237   0.772  53.145  1.00  0.00     0.066 A 
HETATM   17  C13 UNL     1      23.414   1.196  52.010  1.00  0.00    -0.015 A 
HETATM   18  C14 UNL     1      22.282   0.472  51.972  1.00  0.00    -0.002 A 
HETATM   19  C15 UNL     1      22.260  -0.494  53.083  1.00  0.00     0.015 A 
HETATM   20  C16 UNL     1      23.405  -0.326  53.780  1.00  0.00    -0.002 A 
HETATM   21 BR1  UNL     1      24.008  -1.264  55.346  1.00  0.00    -0.055 Br
ENDBRANCH  15  16
ENDBRANCH   6  15
TORSDOF 8
ENDMDL
MODEL 2
REMARK VINA RESULT:      -6.8      1.428      2.615
REMARK  8 active torsions:
REMARK  status: ('A' for Active; 'I' for Inactive)
REMARK    1  A    between atoms: C2_2  and  C3_3 
REMARK    2  A    between atoms: C3_3  and  C4_4 
REMARK    3  A    between atoms: C4_4  and  C5_5 
REMARK    4  A    between atoms: C5_5  and  C6_6 
REMARK    5  A    between atoms: C6_6  and  N1_7 
REMARK    6  A    between atoms: N1_7  and  C7_8 
REMARK    7  A    between atoms: N3_13  and  C11_14 
REMARK    8  A    between atoms: C11_14  and  C12_15 
ROOT
HETATM    1  C7  UNL     1      27.027   2.081  53.312  1.00  0.00     0.312 A 
HETATM    2  N2  UNL     1      28.344   2.331  53.844  1.00  0.00    -0.257 NA
HETATM    3  C8  UNL     1      29.110   1.433  54.309  1.00  0.00     0.116 A 
HETATM    4  C9  UNL     1      28.855   0.004  54.407  1.00  0.00     0.036 A 
HETATM    5  C10 UNL     1      27.670  -0.295  53.918  1.00  0.00     0.091 A 
HETATM    6  N3  UNL     1      26.743   0.662  53.353  1.00  0.00    -0.351 N 
ENDROOT
BRANCH   1   7
HETATM    7  N1  UNL     1      26.926   2.682  52.031  1.00  0.00    -0.361 N 
HETATM    8  H8  UNL     1      27.449   3.616  52.002  1.00  0.00     0.162 HD
BRANCH   7   9
HETATM    9  C6  UNL     1      26.527   2.770  50.738  1.00  0.00     0.086 C 
BRANCH   9  10
HETATM   10  C5  UNL     1      26.539   3.472  49.679  1.00  0.00     0.017 C 
BRANCH  10  11
HETATM   11  C4  UNL     1      25.328   4.301  49.477  1.00  0.00     0.001 C 
BRANCH  11  12
HETATM   12  C3  UNL     1      24.254   3.630  49.170  1.00  0.00    -0.004 C 
BRANCH  12  13
HETATM   13  C2  UNL     1      23.111   2.841  48.776  1.00  0.00    -0.026 C 
HETATM   14  C1  UNL     1      22.207   1.937  48.451  1.00  0.00     0.031 C 
ENDBRANCH  12  13
ENDBRANCH  11  12
ENDBRANCH  10  11
ENDBRANCH   9  10
ENDBRANCH   7   9
ENDBRANCH   1   7
BRANCH   6  15
HETATM   15  C11 UNL     1      25.548   0.129  52.796  1.00  0.00     0.140 C 
BRANCH  15  16
HETATM   16  C12 UNL     1      24.246   0.758  53.128  1.00  0.00     0.066 A 
HETATM   17  C13 UNL     1      23.402   1.176  52.006  1.00  0.00    -0.015 A 
HETATM   18  C14 UNL     1      22.269   0.454  51.993  1.00  0.00    -0.002 A 
HETATM   19  C15 UNL     1      22.266  -0.505  53.110  1.00  0.00     0.015 A 
HETATM   20  C16 UNL     1      23.424  -0.334  53.785  1.00  0.00    -0.002 A 
HETATM   21 BR1  UNL     1      24.055  -1.264  55.346  1.00  0.00    -0.055 Br
ENDBRANCH  15  16
ENDBRANCH   6  15
TORSDOF 8
ENDMDL
MODEL 3
REMARK VINA RESULT:      -6.7      1.776      2.347
REMARK  8 active torsions:
REMARK  status: ('A' for Active; 'I' for Inactive)
REMARK    1  A    between atoms: C2_2  and  C3_3 
REMARK    2  A    between atoms: C3_3  and  C4_4 
REMARK    3  A    between atoms: C4_4  and  C5_5 
REMARK    4  A    between atoms: C5_5  and  C6_6 
REMARK    5  A    between atoms: C6_6  and  N1_7 
REMARK    6  A    between atoms: N1_7  and  C7_8 
REMARK    7  A    between atoms: N3_13  and  C11_14 
REMARK    8  A    between atoms: C11_14  and  C12_15 
ROOT
HETATM    1  C7  UNL     1      25.744   2.109  53.274  1.00  0.00     0.312 A 
HETATM    2  N2  UNL     1      27.142   1.868  53.011  1.00  0.00    -0.257 NA
HETATM    3  C8  UNL     1      27.645   0.719  52.818  1.00  0.00     0.116 A 
HETATM    4  C9  UNL     1      26.963  -0.566  52.810  1.00  0.00     0.036 A 
HETATM    5  C10 UNL     1      25.674  -0.413  53.026  1.00  0.00     0.091 A 
HETATM    6  N3  UNL     1      25.016   0.858  53.238  1.00  0.00    -0.351 N 
ENDROOT
BRANCH   1   7
HETATM    7  N1  UNL     1      25.275   3.109  52.385  1.00  0.00    -0.361 N 
HETATM    8  H8  UNL     1      25.098   4.031  52.900  1.00  0.00     0.162 HD
BRANCH   7   9
HETATM    9  C6  UNL     1      24.893   3.612  51.185  1.00  0.00     0.086 C 
BRANCH   9  10
HETATM   10  C5  UNL     1      25.069   3.582  49.927  1.00  0.00     0.017 C 
BRANCH  10  11
HETATM   11  C4  UNL     1      26.452   3.255  49.508  1.00  0.00     0.001 C 
BRANCH  11  12
HETATM   12  C3  UNL     1      27.138   4.266  49.055  1.00  0.00    -0.004 C 
BRANCH  12  13
HETATM   13  C2  UNL     1      27.848   5.385  48.484  1.00  0.00    -0.026 C 
HETATM   14  C1  UNL     1      28.295   6.523  47.986  1.00  0.00     0.031 C 
ENDBRANCH  12  13
ENDBRANCH  11  12
ENDBRANCH  10  11
ENDBRANCH   9  10
ENDBRANCH   7   9
ENDBRANCH   1   7
BRANCH   6  15
HETATM   15  C11 UNL     1      23.600   0.821  53.367  1.00  0.00     0.140 C 
BRANCH  15  16
HETATM   16  C12 UNL     1      22.889  -0.474  53.230  1.00  0.00     0.066 A 
HETATM   17  C13 UNL     1      22.459  -1.133  54.466  1.00  0.00    -0.015 A 
HETATM   18  C14 UNL     1      21.116  -1.186  54.510  1.00  0.00    -0.002 A 
HETATM   19  C15 UNL     1      20.544  -0.567  53.303  1.00  0.00     0.015 A 
HETATM   20  C16 UNL     1      21.577  -0.146  52.542  1.00  0.00    -0.002 A 
HETATM   21 BR1  UNL     1      21.533   0.746  50.839  1.00  0.00    -0.055 Br
ENDBRANCH  15  16
ENDBRANCH   6  15
TORSDOF 8
ENDMDL
MODEL 4
REMARK VINA RESULT:      -6.5      2.167      6.425
REMARK  8 active torsions:
REMARK  status: ('A' for Active; 'I' for Inactive)
REMARK    1  A    between atoms: C2_2  and  C3_3 
REMARK    2  A    between atoms: C3_3  and  C4_4 
REMARK    3  A    between atoms: C4_4  and  C5_5 
REMARK    4  A    between atoms: C5_5  and  C6_6 
REMARK    5  A    between atoms: C6_6  and  N1_7 
REMARK    6  A    between atoms: N1_7  and  C7_8 
REMARK    7  A    between atoms: N3_13  and  C11_14 
REMARK    8  A    between atoms: C11_14  and  C12_15 
ROOT
HETATM    1  C7  UNL     1      26.675  -0.252  53.364  1.00  0.00     0.312 A 
HETATM    2  N2  UNL     1      27.499  -0.420  54.537  1.00  0.00    -0.257 NA
HETATM    3  C8  UNL     1      28.471   0.335  54.843  1.00  0.00     0.116 A 
HETATM    4  C9  UNL     1      28.959   1.500  54.121  1.00  0.00     0.036 A 
HETATM    5  C10 UNL     1      28.235   1.722  53.045  1.00  0.00     0.091 A 
HETATM    6  N3  UNL     1      27.101   0.923  52.632  1.00  0.00    -0.351 N 
ENDROOT
BRANCH   1   7
HETATM    7  N1  UNL     1      25.312  -0.261  53.754  1.00  0.00    -0.361 N 
HETATM    8  H8  UNL     1      25.098   0.547  54.424  1.00  0.00     0.162 HD
BRANCH   7   9
HETATM    9  C6  UNL     1      24.038  -0.725  53.776  1.00  0.00     0.086 C 
BRANCH   9  10
HETATM   10  C5  UNL     1      22.852  -0.564  53.349  1.00  0.00     0.017 C 
BRANCH  10  11
HETATM   11  C4  UNL     1      21.795  -0.852  54.347  1.00  0.00     0.001 C 
BRANCH  11  12
HETATM   12  C3  UNL     1      20.583  -0.869  53.867  1.00  0.00    -0.004 C 
BRANCH  12  13
HETATM   13  C2  UNL     1      19.213  -0.879  53.415  1.00  0.00    -0.026 C 
HETATM   14  C1  UNL     1      18.047  -0.982  52.806  1.00  0.00     0.031 C 
ENDBRANCH  12  13
ENDBRANCH  11  12
ENDBRANCH  10  11
ENDBRANCH   9  10
ENDBRANCH   7   9
ENDBRANCH   1   7
BRANCH   6  15
HETATM   15  C11 UNL     1      26.394   1.377  51.485  1.00  0.00     0.140 C 
BRANCH  15  16
HETATM   16  C12 UNL     1      26.402   2.823  51.149  1.00  0.00     0.066 A 
HETATM   17  C13 UNL     1      26.640   3.180  49.748  1.00  0.00    -0.015 A 
HETATM   18  C14 UNL     1      25.546   3.772  49.237  1.00  0.00    -0.002 A 
HETATM   19  C15 UNL     1      24.491   3.857  50.259  1.00  0.00     0.015 A 
HETATM   20  C16 UNL     1      24.983   3.303  51.388  1.00  0.00    -0.002 A 
HETATM   21 BR1  UNL     1      24.127   3.089  53.097  1.00  0.00    -0.055 Br
ENDBRANCH  15  16
ENDBRANCH   6  15
TORSDOF 8
ENDMDL
MODEL 5
REMARK VINA RESULT:      -6.4      3.141      6.102
REMARK  8 active torsions:
REMARK  status: ('A' for Active; 'I' for Inactive)
REMARK    1  A    between atoms: C2_2  and  C3_3 
REMARK    2  A    between atoms: C3_3  and  C4_4 
REMARK    3  A    between atoms: C4_4  and  C5_5 
REMARK    4  A    between atoms: C5_5  and  C6_6 
REMARK    5  A    between atoms: C6_6  and  N1_7 
REMARK    6  A    between atoms: N1_7  and  C7_8 
REMARK    7  A    between atoms: N3_13  and  C11_14 
REMARK    8  A    between atoms: C11_14  and  C12_15 
ROOT
HETATM    1  C7  UNL     1      26.081  -0.470  53.198  1.00  0.00     0.312 A 
HETATM    2  N2  UNL     1      27.239  -1.283  53.482  1.00  0.00    -0.257 NA
HETATM    3  C8  UNL     1      28.420  -0.833  53.586  1.00  0.00     0.116 A 
HETATM    4  C9  UNL     1      28.866   0.546  53.456  1.00  0.00     0.036 A 
HETATM    5  C10 UNL     1      27.850   1.347  53.213  1.00  0.00     0.091 A 
HETATM    6  N3  UNL     1      26.472   0.921  53.097  1.00  0.00    -0.351 N 
ENDROOT
BRANCH   1   7
HETATM    7  N1  UNL     1      25.076  -0.749  54.158  1.00  0.00    -0.361 N 
HETATM    8  H8  UNL     1      25.491  -1.227  55.022  1.00  0.00     0.162 HD
BRANCH   7   9
HETATM    9  C6  UNL     1      23.814  -0.765  54.654  1.00  0.00     0.086 C 
BRANCH   9  10
HETATM   10  C5  UNL     1      22.685  -1.348  54.641  1.00  0.00     0.017 C 
BRANCH  10  11
HETATM   11  C4  UNL     1      21.526  -0.451  54.854  1.00  0.00     0.001 C 
BRANCH  11  12
HETATM   12  C3  UNL     1      20.770  -0.280  53.805  1.00  0.00    -0.004 C 
BRANCH  12  13
HETATM   13  C2  UNL     1      19.912  -0.015  52.676  1.00  0.00    -0.026 C 
HETATM   14  C1  UNL     1      19.326   0.230  51.519  1.00  0.00     0.031 C 
ENDBRANCH  12  13
ENDBRANCH  11  12
ENDBRANCH  10  11
ENDBRANCH   9  10
ENDBRANCH   7   9
ENDBRANCH   1   7
BRANCH   6  15
HETATM   15  C11 UNL     1      25.507   1.950  52.920  1.00  0.00     0.140 C 
BRANCH  15  16
HETATM   16  C12 UNL     1      24.466   1.802  51.872  1.00  0.00     0.066 A 
HETATM   17  C13 UNL     1      23.072   1.974  52.287  1.00  0.00    -0.015 A 
HETATM   18  C14 UNL     1      22.547   3.054  51.684  1.00  0.00    -0.002 A 
HETATM   19  C15 UNL     1      23.552   3.689  50.816  1.00  0.00     0.015 A 
HETATM   20  C16 UNL     1      24.685   2.960  50.918  1.00  0.00    -0.002 A 
HETATM   21 BR1  UNL     1      26.377   3.238  50.048  1.00  0.00    -0.055 Br
ENDBRANCH  15  16
ENDBRANCH   6  15
TORSDOF 8
ENDMDL
MODEL 6
REMARK VINA RESULT:      -6.2      2.691      5.916
REMARK  8 active torsions:
REMARK  status: ('A' for Active; 'I' for Inactive)
REMARK    1  A    between atoms: C2_2  and  C3_3 
REMARK    2  A    between atoms: C3_3  and  C4_4 
REMARK    3  A    between atoms: C4_4  and  C5_5 
REMARK    4  A    between atoms: C5_5  and  C6_6 
REMARK    5  A    between atoms: C6_6  and  N1_7 
REMARK    6  A    between atoms: N1_7  and  C7_8 
REMARK    7  A    between atoms: N3_13  and  C11_14 
REMARK    8  A    between atoms: C11_14  and  C12_15 
ROOT
HETATM    1  C7  UNL     1      26.437   3.996  49.630  1.00  0.00     0.312 A 
HETATM    2  N2  UNL     1      27.624   4.312  48.873  1.00  0.00    -0.257 NA
HETATM    3  C8  UNL     1      27.886   5.458  48.397  1.00  0.00     0.116 A 
HETATM    4  C9  UNL     1      27.090   6.672  48.502  1.00  0.00     0.036 A 
HETATM    5  C10 UNL     1      25.996   6.457  49.201  1.00  0.00     0.091 A 
HETATM    6  N3  UNL     1      25.630   5.188  49.794  1.00  0.00    -0.351 N 
ENDROOT
BRANCH   1   7
HETATM    7  N1  UNL     1      26.817   3.352  50.835  1.00  0.00    -0.361 N 
HETATM    8  H8  UNL     1      27.692   3.805  51.254  1.00  0.00     0.162 HD
BRANCH   7   9
HETATM    9  C6  UNL     1      26.712   2.438  51.831  1.00  0.00     0.086 C 
BRANCH   9  10
HETATM   10  C5  UNL     1      26.927   2.190  53.059  1.00  0.00     0.017 C 
BRANCH  10  11
HETATM   11  C4  UNL     1      28.351   2.271  53.462  1.00  0.00     0.001 C 
BRANCH  11  12
HETATM   12  C3  UNL     1      28.940   1.118  53.613  1.00  0.00    -0.004 C 
BRANCH  12  13
HETATM   13  C2  UNL     1      29.606  -0.159  53.697  1.00  0.00    -0.026 C 
HETATM   14  C1  UNL     1      30.025  -1.410  53.665  1.00  0.00     0.031 C 
ENDBRANCH  12  13
ENDBRANCH  11  12
ENDBRANCH  10  11
ENDBRANCH   9  10
ENDBRANCH   7   9
ENDBRANCH   1   7
BRANCH   6  15
HETATM   15  C11 UNL     1      24.450   5.180  50.587  1.00  0.00     0.140 C 
BRANCH  15  16
HETATM   16  C12 UNL     1      23.173   4.716  49.991  1.00  0.00     0.066 A 
HETATM   17  C13 UNL     1      23.123   4.600  48.531  1.00  0.00    -0.015 A 
HETATM   18  C14 UNL     1      22.957   3.312  48.182  1.00  0.00    -0.002 A 
HETATM   19  C15 UNL     1      22.883   2.466  49.384  1.00  0.00     0.015 A 
HETATM   20  C16 UNL     1      23.008   3.281  50.454  1.00  0.00    -0.002 A 
HETATM   21 BR1  UNL     1      22.997   2.824  52.322  1.00  0.00    -0.055 Br
ENDBRANCH  15  16
ENDBRANCH   6  15
TORSDOF 8
ENDMDL
MODEL 7
REMARK VINA RESULT:      -6.2      2.089      6.941
REMARK  8 active torsions:
REMARK  status: ('A' for Active; 'I' for Inactive)
REMARK    1  A    between atoms: C2_2  and  C3_3 
REMARK    2  A    between atoms: C3_3  and  C4_4 
REMARK    3  A    between atoms: C4_4  and  C5_5 
REMARK    4  A    between atoms: C5_5  and  C6_6 
REMARK    5  A    between atoms: C6_6  and  N1_7 
REMARK    6  A    between atoms: N1_7  and  C7_8 
REMARK    7  A    between atoms: N3_13  and  C11_14 
REMARK    8  A    between atoms: C11_14  and  C12_15 
ROOT
HETATM    1  C7  UNL     1      24.273   2.898  51.632  1.00  0.00     0.312 A 
HETATM    2  N2  UNL     1      23.964   3.619  50.421  1.00  0.00    -0.257 NA
HETATM    3  C8  UNL     1      24.824   3.962  49.554  1.00  0.00     0.116 A 
HETATM    4  C9  UNL     1      26.258   3.717  49.571  1.00  0.00     0.036 A 
HETATM    5  C10 UNL     1      26.606   3.042  50.646  1.00  0.00     0.091 A 
HETATM    6  N3  UNL     1      25.689   2.596  51.674  1.00  0.00    -0.351 N 
ENDROOT
BRANCH   1   7
HETATM    7  N1  UNL     1      23.412   1.775  51.732  1.00  0.00    -0.361 N 
HETATM    8  H8  UNL     1      22.836   1.652  50.838  1.00  0.00     0.162 HD
BRANCH   7   9
HETATM    9  C6  UNL     1      22.856   0.697  52.339  1.00  0.00     0.086 C 
BRANCH   9  10
HETATM   10  C5  UNL     1      22.942  -0.131  53.298  1.00  0.00     0.017 C 
BRANCH  10  11
HETATM   11  C4  UNL     1      21.845  -0.040  54.289  1.00  0.00     0.001 C 
BRANCH  11  12
HETATM   12  C3  UNL     1      20.656  -0.270  53.808  1.00  0.00    -0.004 C 
BRANCH  12  13
HETATM   13  C2  UNL     1      19.337  -0.596  53.321  1.00  0.00    -0.026 C 
HETATM   14  C1  UNL     1      18.227  -1.098  52.815  1.00  0.00     0.031 C 
ENDBRANCH  12  13
ENDBRANCH  11  12
ENDBRANCH  10  11
ENDBRANCH   9  10
ENDBRANCH   7   9
ENDBRANCH   1   7
BRANCH   6  15
HETATM   15  C11 UNL     1      26.247   1.803  52.715  1.00  0.00     0.140 C 
BRANCH  15  16
HETATM   16  C12 UNL     1      27.696   1.486  52.692  1.00  0.00     0.066 A 
HETATM   17  C13 UNL     1      28.578   2.333  53.500  1.00  0.00    -0.015 A 
HETATM   18  C14 UNL     1      29.135   1.604  54.482  1.00  0.00    -0.002 A 
HETATM   19  C15 UNL     1      28.670   0.210  54.406  1.00  0.00     0.015 A 
HETATM   20  C16 UNL     1      27.824   0.128  53.356  1.00  0.00    -0.002 A 
HETATM   21 BR1  UNL     1      26.864  -1.404  52.701  1.00  0.00    -0.055 Br
ENDBRANCH  15  16
ENDBRANCH   6  15
TORSDOF 8
ENDMDL
MODEL 8
REMARK VINA RESULT:      -6.0      2.220      3.163
REMARK  8 active torsions:
REMARK  status: ('A' for Active; 'I' for Inactive)
REMARK    1  A    between atoms: C2_2  and  C3_3 
REMARK    2  A    between atoms: C3_3  and  C4_4 
REMARK    3  A    between atoms: C4_4  and  C5_5 
REMARK    4  A    between atoms: C5_5  and  C6_6 
REMARK    5  A    between atoms: C6_6  and  N1_7 
REMARK    6  A    between atoms: N1_7  and  C7_8 
REMARK    7  A    between atoms: N3_13  and  C11_14 
REMARK    8  A    between atoms: C11_14  and  C12_15 
ROOT
HETATM    1  C7  UNL     1      25.904   2.103  53.253  1.00  0.00     0.312 A 
HETATM    2  N2  UNL     1      26.845   1.536  54.188  1.00  0.00    -0.257 NA
HETATM    3  C8  UNL     1      26.713   0.400  54.736  1.00  0.00     0.116 A 
HETATM    4  C9  UNL     1      25.634  -0.560  54.555  1.00  0.00     0.036 A 
HETATM    5  C10 UNL     1      24.746  -0.110  53.694  1.00  0.00     0.091 A 
HETATM    6  N3  UNL     1      24.828   1.163  53.011  1.00  0.00    -0.351 N 
ENDROOT
BRANCH   1   7
HETATM    7  N1  UNL     1      26.604   2.531  52.097  1.00  0.00    -0.361 N 
HETATM    8  H8  UNL     1      27.663   2.474  52.246  1.00  0.00     0.162 HD
BRANCH   7   9
HETATM    9  C6  UNL     1      26.725   3.001  50.830  1.00  0.00     0.086 C 
BRANCH   9  10
HETATM   10  C5  UNL     1      26.115   3.296  49.755  1.00  0.00     0.017 C 
BRANCH  10  11
HETATM   11  C4  UNL     1      26.429   4.641  49.219  1.00  0.00     0.001 C 
BRANCH  11  12
HETATM   12  C3  UNL     1      25.744   5.613  49.754  1.00  0.00    -0.004 C 
BRANCH  12  13
HETATM   13  C2  UNL     1      24.919   6.663  50.300  1.00  0.00    -0.026 C 
HETATM   14  C1  UNL     1      24.029   7.450  50.875  1.00  0.00     0.031 C 
ENDBRANCH  12  13
ENDBRANCH  11  12
ENDBRANCH  10  11
ENDBRANCH   9  10
ENDBRANCH   7   9
ENDBRANCH   1   7
BRANCH   6  15
HETATM   15  C11 UNL     1      23.814   1.430  52.051  1.00  0.00     0.140 C 
BRANCH  15  16
HETATM   16  C12 UNL     1      22.780   2.452  52.347  1.00  0.00     0.066 A 
HETATM   17  C13 UNL     1      22.994   3.795  51.803  1.00  0.00    -0.015 A 
HETATM   18  C14 UNL     1      22.035   4.081  50.905  1.00  0.00    -0.002 A 
HETATM   19  C15 UNL     1      21.103   2.949  50.781  1.00  0.00     0.015 A 
HETATM   20  C16 UNL     1      21.530   1.986  51.625  1.00  0.00    -0.002 A 
HETATM   21 BR1  UNL     1      20.769   0.250  51.955  1.00  0.00    -0.055 Br
ENDBRANCH  15  16
ENDBRANCH   6  15
TORSDOF 8
ENDMDL
MODEL 9
REMARK VINA RESULT:      -6.0      3.248      6.545
REMARK  8 active torsions:
REMARK  status: ('A' for Active; 'I' for Inactive)
REMARK    1  A    between atoms: C2_2  and  C3_3 
REMARK    2  A    between atoms: C3_3  and  C4_4 
REMARK    3  A    between atoms: C4_4  and  C5_5 
REMARK    4  A    between atoms: C5_5  and  C6_6 
REMARK    5  A    between atoms: C6_6  and  N1_7 
REMARK    6  A    between atoms: N1_7  and  C7_8 
REMARK    7  A    between atoms: N3_13  and  C11_14 
REMARK    8  A    between atoms: C11_14  and  C12_15 
ROOT
HETATM    1  C7  UNL     1      26.709   4.279  49.154  1.00  0.00     0.312 A 
HETATM    2  N2  UNL     1      28.056   4.603  48.751  1.00  0.00    -0.257 NA
HETATM    3  C8  UNL     1      28.420   5.741  48.325  1.00  0.00     0.116 A 
HETATM    4  C9  UNL     1      27.607   6.935  48.155  1.00  0.00     0.036 A 
HETATM    5  C10 UNL     1      26.364   6.712  48.526  1.00  0.00     0.091 A 
HETATM    6  N3  UNL     1      25.868   5.453  49.038  1.00  0.00    -0.351 N 
ENDROOT
BRANCH   1   7
HETATM    7  N1  UNL     1      26.743   3.684  50.440  1.00  0.00    -0.361 N 
HETATM    8  H8  UNL     1      26.825   4.428  51.207  1.00  0.00     0.162 HD
BRANCH   7   9
HETATM    9  C6  UNL     1      26.734   2.656  51.325  1.00  0.00     0.086 C 
BRANCH   9  10
HETATM   10  C5  UNL     1      26.442   1.434  51.515  1.00  0.00     0.017 C 
BRANCH  10  11
HETATM   11  C4  UNL     1      26.544   0.989  52.924  1.00  0.00     0.001 C 
BRANCH  11  12
HETATM   12  C3  UNL     1      27.632   0.332  53.211  1.00  0.00    -0.004 C 
BRANCH  12  13
HETATM   13  C2  UNL     1      28.796  -0.468  53.509  1.00  0.00    -0.026 C 
HETATM   14  C1  UNL     1      29.978  -1.032  53.670  1.00  0.00     0.031 C 
ENDBRANCH  12  13
ENDBRANCH  11  12
ENDBRANCH  10  11
ENDBRANCH   9  10
ENDBRANCH   7   9
ENDBRANCH   1   7
BRANCH   6  15
HETATM   15  C11 UNL     1      24.512   5.437  49.467  1.00  0.00     0.140 C 
BRANCH  15  16
HETATM   16  C12 UNL     1      24.046   6.447  50.450  1.00  0.00     0.066 A 
HETATM   17  C13 UNL     1      23.314   7.601  49.924  1.00  0.00    -0.015 A 
HETATM   18  C14 UNL     1      22.049   7.584  50.378  1.00  0.00    -0.002 A 
HETATM   19  C15 UNL     1      21.838   6.414  51.246  1.00  0.00     0.015 A 
HETATM   20  C16 UNL     1      23.006   5.739  51.297  1.00  0.00    -0.002 A 
HETATM   21 BR1  UNL     1      23.421   4.121  52.251  1.00  0.00    -0.055 Br
ENDBRANCH  15  16
ENDBRANCH   6  15
TORSDOF 8
ENDMDL
