MODEL 1
REMARK VINA RESULT:      -8.0      0.000      0.000
REMARK  3 active torsions:
REMARK  status: ('A' for Active; 'I' for Inactive)
REMARK    1  A    between atoms: C2_2  and  N1_3 
REMARK    2  A    between atoms: N1_3  and  C3_4 
REMARK    3  A    between atoms: C4_6  and  P1_7 
ROOT
HETATM    1  C3  UNL     1      24.734   2.699  52.721  1.00  0.00     0.250 C 
HETATM    2  O1  UNL     1      24.971   1.503  53.468  1.00  0.00    -0.355 OA
HETATM    3  C4  UNL     1      24.755   0.339  52.770  1.00  0.00     0.152 C 
HETATM    4  C5  UNL     1      23.432  -0.251  53.202  1.00  0.00     0.100 C 
HETATM    5  C6  UNL     1      22.320   0.447  52.549  1.00  0.00     0.050 C 
HETATM    6  C7  UNL     1      21.259   0.155  51.852  1.00  0.00     0.033 C 
HETATM    7  C8  UNL     1      20.073   0.505  51.135  1.00  0.00     0.014 C 
HETATM    8  C9  UNL     1      19.491   1.671  50.910  1.00  0.00    -0.008 C 
HETATM    9  C10 UNL     1      20.077   2.943  51.466  1.00  0.00     0.052 C 
HETATM   10  N2  UNL     1      19.153   3.550  52.191  1.00  0.00    -0.246 NA
HETATM   11  C11 UNL     1      17.779   3.407  51.740  1.00  0.00     0.227 C 
HETATM   12  N3  UNL     1      17.343   2.743  50.694  1.00  0.00    -0.273 NA
HETATM   13  C12 UNL     1      18.266   1.779  50.077  1.00  0.00     0.144 C 
HETATM   14  C13 UNL     1      18.573   2.340  48.666  1.00  0.00     0.033 C 
HETATM   15  C14 UNL     1      19.837   3.113  48.753  1.00  0.00    -0.015 C 
HETATM   16  C15 UNL     1      20.902   2.705  47.960  1.00  0.00     0.067 C 
HETATM   17  C16 UNL     1      22.214   3.454  48.052  1.00  0.00     0.015 C 
HETATM   18 CL1  UNL     1      22.733   2.322  46.800  1.00  0.00    -0.089 Cl
HETATM   19  C17 UNL     1      23.050   4.431  48.561  1.00  0.00     0.019 C 
HETATM   20  C18 UNL     1      22.350   5.211  49.583  1.00  0.00     0.198 C 
HETATM   21  O2  UNL     1      23.140   4.956  50.810  1.00  0.00    -0.370 OA
HETATM   22  C19 UNL     1      22.764   3.681  51.372  1.00  0.00     0.136 C 
HETATM   23  C20 UNL     1      21.421   3.553  51.307  1.00  0.00     0.092 C 
HETATM   24  C21 UNL     1      23.486   2.553  51.957  1.00  0.00     0.215 C 
HETATM   25  O3  UNL     1      22.498   1.836  52.751  1.00  0.00    -0.343 OA
ENDROOT
BRANCH   1  26
HETATM   26  N1  UNL     1      25.870   3.178  52.042  1.00  0.00    -0.395 N 
HETATM   27  H6  UNL     1      26.514   3.684  52.642  1.00  0.00     0.155 HD
BRANCH  26  28
HETATM   28  C2  UNL     1      26.362   2.564  50.890  1.00  0.00     0.112 C 
HETATM   29  C1  UNL     1      26.488   3.621  49.782  1.00  0.00     0.026 C 
ENDBRANCH  26  28
ENDBRANCH   1  26
BRANCH   3  30
HETATM   30  P1  UNL     1      26.028  -0.963  53.213  1.00  0.00    -0.110 P 
HETATM   31  H9  UNL     1      25.604  -1.745  54.341  1.00  0.00     0.057 HD
HETATM   32  H10 UNL     1      27.278  -0.290  53.498  1.00  0.00     0.057 HD
ENDBRANCH   3  30
TORSDOF 3
ENDMDL
MODEL 2
REMARK VINA RESULT:      -7.3      7.362      9.748
REMARK  3 active torsions:
REMARK  status: ('A' for Active; 'I' for Inactive)
REMARK    1  A    between atoms: C2_2  and  N1_3 
REMARK    2  A    between atoms: N1_3  and  C3_4 
REMARK    3  A    between atoms: C4_6  and  P1_7 
ROOT
HETATM    1  C3  UNL     1      31.967   8.894  47.935  1.00  0.00     0.250 C 
HETATM    2  O1  UNL     1      32.721   7.710  48.202  1.00  0.00    -0.355 OA
HETATM    3  C4  UNL     1      32.356   6.616  47.452  1.00  0.00     0.152 C 
HETATM    4  C5  UNL     1      31.537   5.684  48.316  1.00  0.00     0.100 C 
HETATM    5  C6  UNL     1      30.158   6.171  48.433  1.00  0.00     0.050 C 
HETATM    6  C7  UNL     1      28.947   5.720  48.274  1.00  0.00     0.033 C 
HETATM    7  C8  UNL     1      27.525   5.861  48.294  1.00  0.00     0.014 C 
HETATM    8  C9  UNL     1      26.745   6.875  48.630  1.00  0.00    -0.008 C 
HETATM    9  C10 UNL     1      27.336   8.175  49.108  1.00  0.00     0.052 C 
HETATM   10  N2  UNL     1      26.828   8.458  50.295  1.00  0.00    -0.246 NA
HETATM   11  C11 UNL     1      25.453   8.048  50.525  1.00  0.00     0.227 C 
HETATM   12  N3  UNL     1      24.652   7.426  49.691  1.00  0.00    -0.273 NA
HETATM   13  C12 UNL     1      25.266   6.786  48.518  1.00  0.00     0.144 C 
HETATM   14  C13 UNL     1      24.732   7.564  47.290  1.00  0.00     0.033 C 
HETATM   15  C14 UNL     1      25.736   8.598  46.939  1.00  0.00    -0.015 C 
HETATM   16  C15 UNL     1      26.301   8.548  45.670  1.00  0.00     0.067 C 
HETATM   17  C16 UNL     1      27.352   9.570  45.295  1.00  0.00     0.015 C 
HETATM   18 CL1  UNL     1      27.327   8.746  43.733  1.00  0.00    -0.089 Cl
HETATM   19  C17 UNL     1      28.176  10.650  45.549  1.00  0.00     0.019 C 
HETATM   20  C18 UNL     1      27.983  11.119  46.923  1.00  0.00     0.198 C 
HETATM   21  O2  UNL     1      29.312  10.916  47.545  1.00  0.00    -0.370 OA
HETATM   22  C19 UNL     1      29.465   9.532  47.924  1.00  0.00     0.136 C 
HETATM   23  C20 UNL     1      28.309   9.100  48.472  1.00  0.00     0.092 C 
HETATM   24  C21 UNL     1      30.540   8.547  47.838  1.00  0.00     0.215 C 
HETATM   25  O3  UNL     1      30.207   7.530  48.825  1.00  0.00    -0.343 OA
ENDROOT
BRANCH   1  26
HETATM   26  N1  UNL     1      32.518   9.704  46.924  1.00  0.00    -0.395 N 
HETATM   27  H6  UNL     1      32.313   9.372  45.988  1.00  0.00     0.155 HD
BRANCH  26  28
HETATM   28  C2  UNL     1      32.779  11.060  47.118  1.00  0.00     0.112 C 
HETATM   29  C1  UNL     1      32.346  11.831  45.863  1.00  0.00     0.026 C 
ENDBRANCH  26  28
ENDBRANCH   1  26
BRANCH   3  30
HETATM   30  P1  UNL     1      33.854   5.610  46.948  1.00  0.00    -0.110 P 
HETATM   31  H9  UNL     1      34.604   5.179  48.095  1.00  0.00     0.057 HD
HETATM   32  H10 UNL     1      34.673   6.428  46.078  1.00  0.00     0.057 HD
ENDBRANCH   3  30
TORSDOF 3
ENDMDL
MODEL 3
REMARK VINA RESULT:      -7.1      6.555      8.994
REMARK  3 active torsions:
REMARK  status: ('A' for Active; 'I' for Inactive)
REMARK    1  A    between atoms: C2_2  and  N1_3 
REMARK    2  A    between atoms: N1_3  and  C3_4 
REMARK    3  A    between atoms: C4_6  and  P1_7 
ROOT
HETATM    1  C3  UNL     1      30.351   9.818  48.014  1.00  0.00     0.250 C 
HETATM    2  O1  UNL     1      31.443   8.904  48.128  1.00  0.00    -0.355 OA
HETATM    3  C4  UNL     1      31.352   7.798  47.315  1.00  0.00     0.152 C 
HETATM    4  C5  UNL     1      30.927   6.612  48.150  1.00  0.00     0.100 C 
HETATM    5  C6  UNL     1      29.483   6.652  48.401  1.00  0.00     0.050 C 
HETATM    6  C7  UNL     1      28.450   5.867  48.286  1.00  0.00     0.033 C 
HETATM    7  C8  UNL     1      27.057   5.570  48.415  1.00  0.00     0.014 C 
HETATM    8  C9  UNL     1      26.046   6.279  48.887  1.00  0.00    -0.008 C 
HETATM    9  C10 UNL     1      26.266   7.665  49.432  1.00  0.00     0.052 C 
HETATM   10  N2  UNL     1      25.806   7.710  50.670  1.00  0.00    -0.246 NA
HETATM   11  C11 UNL     1      24.641   6.891  50.958  1.00  0.00     0.227 C 
HETATM   12  N3  UNL     1      23.988   6.107  50.131  1.00  0.00    -0.273 NA
HETATM   13  C12 UNL     1      24.656   5.754  48.869  1.00  0.00     0.144 C 
HETATM   14  C13 UNL     1      23.807   6.408  47.750  1.00  0.00     0.033 C 
HETATM   15  C14 UNL     1      24.424   7.716  47.420  1.00  0.00    -0.015 C 
HETATM   16  C15 UNL     1      24.862   7.916  46.116  1.00  0.00     0.067 C 
HETATM   17  C16 UNL     1      25.525   9.228  45.759  1.00  0.00     0.015 C 
HETATM   18 CL1  UNL     1      25.605   8.532  44.138  1.00  0.00    -0.089 Cl
HETATM   19  C17 UNL     1      26.012  10.490  46.048  1.00  0.00     0.019 C 
HETATM   20  C18 UNL     1      25.813  10.794  47.466  1.00  0.00     0.198 C 
HETATM   21  O2  UNL     1      27.193  10.965  47.977  1.00  0.00    -0.370 OA
HETATM   22  C19 UNL     1      27.782   9.672  48.226  1.00  0.00     0.136 C 
HETATM   23  C20 UNL     1      26.860   8.878  48.813  1.00  0.00     0.092 C 
HETATM   24  C21 UNL     1      29.089   9.063  47.985  1.00  0.00     0.215 C 
HETATM   25  O3  UNL     1      29.162   7.936  48.903  1.00  0.00    -0.343 OA
ENDROOT
BRANCH   1  26
HETATM   26  N1  UNL     1      30.545  10.817  47.041  1.00  0.00    -0.395 N 
HETATM   27  H6  UNL     1      30.237  10.539  46.114  1.00  0.00     0.155 HD
BRANCH  26  28
HETATM   28  C2  UNL     1      30.577  12.173  47.363  1.00  0.00     0.112 C 
HETATM   29  C1  UNL     1      30.634  12.317  48.891  1.00  0.00     0.026 C 
ENDBRANCH  26  28
ENDBRANCH   1  26
BRANCH   3  30
HETATM   30  P1  UNL     1      33.030   7.324  46.627  1.00  0.00    -0.110 P 
HETATM   31  H9  UNL     1      33.673   8.446  46.001  1.00  0.00     0.057 HD
HETATM   32  H10 UNL     1      32.838   6.248  45.677  1.00  0.00     0.057 HD
ENDBRANCH   3  30
TORSDOF 3
ENDMDL
MODEL 4
REMARK VINA RESULT:      -7.0      4.091      6.400
REMARK  3 active torsions:
REMARK  status: ('A' for Active; 'I' for Inactive)
REMARK    1  A    between atoms: C2_2  and  N1_3 
REMARK    2  A    between atoms: N1_3  and  C3_4 
REMARK    3  A    between atoms: C4_6  and  P1_7 
ROOT
HETATM    1  C3  UNL     1      25.392   8.707  47.875  1.00  0.00     0.250 C 
HETATM    2  O1  UNL     1      26.818   8.725  47.783  1.00  0.00    -0.355 OA
HETATM    3  C4  UNL     1      27.365   7.635  47.150  1.00  0.00     0.152 C 
HETATM    4  C5  UNL     1      27.946   6.706  48.191  1.00  0.00     0.100 C 
HETATM    5  C6  UNL     1      26.885   5.913  48.821  1.00  0.00     0.050 C 
HETATM    6  C7  UNL     1      26.621   4.664  49.077  1.00  0.00     0.033 C 
HETATM    7  C8  UNL     1      25.803   3.621  49.613  1.00  0.00     0.014 C 
HETATM    8  C9  UNL     1      24.653   3.651  50.265  1.00  0.00    -0.008 C 
HETATM    9  C10 UNL     1      23.979   4.961  50.577  1.00  0.00     0.052 C 
HETATM   10  N2  UNL     1      23.780   5.032  51.882  1.00  0.00    -0.246 NA
HETATM   11  C11 UNL     1      23.495   3.780  52.562  1.00  0.00     0.227 C 
HETATM   12  N3  UNL     1      23.413   2.581  52.034  1.00  0.00    -0.273 NA
HETATM   13  C12 UNL     1      23.966   2.401  50.683  1.00  0.00     0.144 C 
HETATM   14  C13 UNL     1      22.754   2.077  49.775  1.00  0.00     0.033 C 
HETATM   15  C14 UNL     1      22.304   3.346  49.151  1.00  0.00    -0.015 C 
HETATM   16  C15 UNL     1      22.318   3.427  47.764  1.00  0.00     0.067 C 
HETATM   17  C16 UNL     1      21.896   4.719  47.100  1.00  0.00     0.015 C 
HETATM   18 CL1  UNL     1      22.190   3.830  45.604  1.00  0.00    -0.089 Cl
HETATM   19  C17 UNL     1      21.466   6.033  47.108  1.00  0.00     0.019 C 
HETATM   20  C18 UNL     1      21.315   6.506  48.486  1.00  0.00     0.198 C 
HETATM   21  O2  UNL     1      22.294   7.613  48.579  1.00  0.00    -0.370 OA
HETATM   22  C19 UNL     1      23.616   7.075  48.795  1.00  0.00     0.136 C 
HETATM   23  C20 UNL     1      23.536   6.069  49.693  1.00  0.00     0.092 C 
HETATM   24  C21 UNL     1      24.950   7.362  48.272  1.00  0.00     0.215 C 
HETATM   25  O3  UNL     1      25.873   6.804  49.251  1.00  0.00    -0.343 OA
ENDROOT
BRANCH   1  26
HETATM   26  N1  UNL     1      24.744   9.318  46.784  1.00  0.00    -0.395 N 
HETATM   27  H6  UNL     1      25.080  10.256  46.592  1.00  0.00     0.155 HD
BRANCH  26  28
HETATM   28  C2  UNL     1      24.176   8.578  45.747  1.00  0.00     0.112 C 
HETATM   29  C1  UNL     1      25.090   8.670  44.517  1.00  0.00     0.026 C 
ENDBRANCH  26  28
ENDBRANCH   1  26
BRANCH   3  30
HETATM   30  P1  UNL     1      28.825   8.133  46.084  1.00  0.00    -0.110 P 
HETATM   31  H9  UNL     1      28.402   8.511  44.765  1.00  0.00     0.057 HD
HETATM   32  H10 UNL     1      29.743   7.015  46.028  1.00  0.00     0.057 HD
ENDBRANCH   3  30
TORSDOF 3
ENDMDL
MODEL 5
REMARK VINA RESULT:      -6.9      2.905      5.763
REMARK  3 active torsions:
REMARK  status: ('A' for Active; 'I' for Inactive)
REMARK    1  A    between atoms: C2_2  and  N1_3 
REMARK    2  A    between atoms: N1_3  and  C3_4 
REMARK    3  A    between atoms: C4_6  and  P1_7 
ROOT
HETATM    1  C3  UNL     1      21.762   1.293  49.696  1.00  0.00     0.250 C 
HETATM    2  O1  UNL     1      21.920   0.670  50.972  1.00  0.00    -0.355 OA
HETATM    3  C4  UNL     1      21.510   1.435  52.039  1.00  0.00     0.152 C 
HETATM    4  C5  UNL     1      22.728   2.007  52.727  1.00  0.00     0.100 C 
HETATM    5  C6  UNL     1      23.242   3.163  51.987  1.00  0.00     0.050 C 
HETATM    6  C7  UNL     1      23.576   4.400  52.218  1.00  0.00     0.033 C 
HETATM    7  C8  UNL     1      24.066   5.682  51.815  1.00  0.00     0.014 C 
HETATM    8  C9  UNL     1      24.499   6.133  50.650  1.00  0.00    -0.008 C 
HETATM    9  C10 UNL     1      24.550   5.230  49.446  1.00  0.00     0.052 C 
HETATM   10  N2  UNL     1      25.785   5.224  48.975  1.00  0.00    -0.246 NA
HETATM   11  C11 UNL     1      26.532   6.464  49.103  1.00  0.00     0.227 C 
HETATM   12  N3  UNL     1      26.126   7.594  49.635  1.00  0.00    -0.273 NA
HETATM   13  C12 UNL     1      24.919   7.547  50.474  1.00  0.00     0.144 C 
HETATM   14  C13 UNL     1      23.851   8.376  49.717  1.00  0.00     0.033 C 
HETATM   15  C14 UNL     1      23.029   7.433  48.919  1.00  0.00    -0.015 C 
HETATM   16  C15 UNL     1      21.665   7.382  49.179  1.00  0.00     0.067 C 
HETATM   17  C16 UNL     1      20.806   6.406  48.404  1.00  0.00     0.015 C 
HETATM   18 CL1  UNL     1      19.486   7.115  49.338  1.00  0.00    -0.089 Cl
HETATM   19  C17 UNL     1      20.602   5.402  47.477  1.00  0.00     0.019 C 
HETATM   20  C18 UNL     1      21.875   5.012  46.867  1.00  0.00     0.198 C 
HETATM   21  O2  UNL     1      22.022   3.591  47.258  1.00  0.00    -0.370 OA
HETATM   22  C19 UNL     1      22.521   3.509  48.610  1.00  0.00     0.136 C 
HETATM   23  C20 UNL     1      23.491   4.434  48.774  1.00  0.00     0.092 C 
HETATM   24  C21 UNL     1      22.214   2.691  49.781  1.00  0.00     0.215 C 
HETATM   25  O3  UNL     1      23.391   2.782  50.632  1.00  0.00    -0.343 OA
ENDROOT
BRANCH   1  26
HETATM   26  N1  UNL     1      20.517   1.039  49.090  1.00  0.00    -0.395 N 
HETATM   27  H6  UNL     1      20.401   0.074  48.799  1.00  0.00     0.155 HD
BRANCH  26  28
HETATM   28  C2  UNL     1      19.382   1.799  49.374  1.00  0.00     0.112 C 
HETATM   29  C1  UNL     1      18.360   0.909  50.096  1.00  0.00     0.026 C 
ENDBRANCH  26  28
ENDBRANCH   1  26
BRANCH   3  30
HETATM   30  P1  UNL     1      20.670   0.383  53.343  1.00  0.00    -0.110 P 
HETATM   31  H9  UNL     1      19.556  -0.338  52.794  1.00  0.00     0.057 HD
HETATM   32  H10 UNL     1      20.239   1.255  54.415  1.00  0.00     0.057 HD
ENDBRANCH   3  30
TORSDOF 3
ENDMDL
MODEL 6
REMARK VINA RESULT:      -6.6     23.575     25.818
REMARK  3 active torsions:
REMARK  status: ('A' for Active; 'I' for Inactive)
REMARK    1  A    between atoms: C2_2  and  N1_3 
REMARK    2  A    between atoms: N1_3  and  C3_4 
REMARK    3  A    between atoms: C4_6  and  P1_7 
ROOT
HETATM    1  C3  UNL     1      38.360   2.659  70.395  1.00  0.00     0.250 C 
HETATM    2  O1  UNL     1      37.124   2.718  71.110  1.00  0.00    -0.355 OA
HETATM    3  C4  UNL     1      36.967   1.741  72.065  1.00  0.00     0.152 C 
HETATM    4  C5  UNL     1      36.029   0.683  71.531  1.00  0.00     0.100 C 
HETATM    5  C6  UNL     1      36.735  -0.213  70.609  1.00  0.00     0.050 C 
HETATM    6  C7  UNL     1      36.916  -1.491  70.437  1.00  0.00     0.033 C 
HETATM    7  C8  UNL     1      37.460  -2.616  69.742  1.00  0.00     0.014 C 
HETATM    8  C9  UNL     1      38.198  -2.703  68.648  1.00  0.00    -0.008 C 
HETATM    9  C10 UNL     1      38.600  -1.465  67.891  1.00  0.00     0.052 C 
HETATM   10  N2  UNL     1      38.195  -1.586  66.639  1.00  0.00    -0.246 NA
HETATM   11  C11 UNL     1      38.207  -2.928  66.082  1.00  0.00     0.227 C 
HETATM   12  N3  UNL     1      38.571  -4.041  66.678  1.00  0.00    -0.273 NA
HETATM   13  C12 UNL     1      38.685  -4.012  68.144  1.00  0.00     0.144 C 
HETATM   14  C13 UNL     1      40.188  -4.226  68.450  1.00  0.00     0.033 C 
HETATM   15  C14 UNL     1      40.808  -2.889  68.627  1.00  0.00    -0.015 C 
HETATM   16  C15 UNL     1      41.408  -2.610  69.848  1.00  0.00     0.067 C 
HETATM   17  C16 UNL     1      42.020  -1.243  70.069  1.00  0.00     0.015 C 
HETATM   18 CL1  UNL     1      42.463  -1.902  71.646  1.00  0.00    -0.089 Cl
HETATM   19  C17 UNL     1      42.339   0.047  69.689  1.00  0.00     0.019 C 
HETATM   20  C18 UNL     1      41.840   0.313  68.338  1.00  0.00     0.198 C 
HETATM   21  O2  UNL     1      40.870   1.414  68.541  1.00  0.00    -0.370 OA
HETATM   22  C19 UNL     1      39.617   0.877  69.014  1.00  0.00     0.136 C 
HETATM   23  C20 UNL     1      39.337  -0.249  68.323  1.00  0.00     0.092 C 
HETATM   24  C21 UNL     1      38.642   1.261  70.032  1.00  0.00     0.215 C 
HETATM   25  O3  UNL     1      37.408   0.587  69.655  1.00  0.00    -0.343 OA
ENDROOT
BRANCH   1  26
HETATM   26  N1  UNL     1      39.395   3.408  70.986  1.00  0.00    -0.395 N 
HETATM   27  H6  UNL     1      40.317   3.157  70.646  1.00  0.00     0.155 HD
BRANCH  26  28
HETATM   28  C2  UNL     1      39.189   4.691  71.493  1.00  0.00     0.112 C 
HETATM   29  C1  UNL     1      40.288   5.618  70.954  1.00  0.00     0.026 C 
ENDBRANCH  26  28
ENDBRANCH   1  26
BRANCH   3  30
HETATM   30  P1  UNL     1      36.111   2.416  73.590  1.00  0.00    -0.110 P 
HETATM   31  H9  UNL     1      36.856   3.498  74.170  1.00  0.00     0.057 HD
HETATM   32  H10 UNL     1      35.959   1.332  74.537  1.00  0.00     0.057 HD
ENDBRANCH   3  30
TORSDOF 3
ENDMDL
MODEL 7
REMARK VINA RESULT:      -6.6      3.868      5.985
REMARK  3 active torsions:
REMARK  status: ('A' for Active; 'I' for Inactive)
REMARK    1  A    between atoms: C2_2  and  N1_3 
REMARK    2  A    between atoms: N1_3  and  C3_4 
REMARK    3  A    between atoms: C4_6  and  P1_7 
ROOT
HETATM    1  C3  UNL     1      26.242   6.528  48.256  1.00  0.00     0.250 C 
HETATM    2  O1  UNL     1      26.197   7.897  47.848  1.00  0.00    -0.355 OA
HETATM    3  C4  UNL     1      25.603   8.746  48.752  1.00  0.00     0.152 C 
HETATM    4  C5  UNL     1      24.211   9.078  48.268  1.00  0.00     0.100 C 
HETATM    5  C6  UNL     1      23.287   7.979  48.564  1.00  0.00     0.050 C 
HETATM    6  C7  UNL     1      22.130   7.803  49.137  1.00  0.00     0.033 C 
HETATM    7  C8  UNL     1      21.033   6.992  49.564  1.00  0.00     0.014 C 
HETATM    8  C9  UNL     1      20.785   5.701  49.424  1.00  0.00    -0.008 C 
HETATM    9  C10 UNL     1      21.749   4.808  48.689  1.00  0.00     0.052 C 
HETATM   10  N2  UNL     1      21.100   4.201  47.711  1.00  0.00    -0.246 NA
HETATM   11  C11 UNL     1      19.707   3.872  47.964  1.00  0.00     0.227 C 
HETATM   12  N3  UNL     1      19.013   4.109  49.054  1.00  0.00    -0.273 NA
HETATM   13  C12 UNL     1      19.571   5.076  50.011  1.00  0.00     0.144 C 
HETATM   14  C13 UNL     1      19.901   4.261  51.286  1.00  0.00     0.033 C 
HETATM   15  C14 UNL     1      21.333   3.878  51.220  1.00  0.00    -0.015 C 
HETATM   16  C15 UNL     1      22.168   4.318  52.240  1.00  0.00     0.067 C 
HETATM   17  C16 UNL     1      23.640   3.971  52.183  1.00  0.00     0.015 C 
HETATM   18 CL1  UNL     1      23.710   4.828  53.725  1.00  0.00    -0.089 Cl
HETATM   19  C17 UNL     1      24.757   3.403  51.600  1.00  0.00     0.019 C 
HETATM   20  C18 UNL     1      24.396   2.769  50.330  1.00  0.00     0.198 C 
HETATM   21  O2  UNL     1      25.185   3.525  49.331  1.00  0.00    -0.370 OA
HETATM   22  C19 UNL     1      24.517   4.767  49.025  1.00  0.00     0.136 C 
HETATM   23  C20 UNL     1      23.192   4.533  48.909  1.00  0.00     0.092 C 
HETATM   24  C21 UNL     1      24.941   6.152  48.832  1.00  0.00     0.215 C 
HETATM   25  O3  UNL     1      23.864   6.781  48.080  1.00  0.00    -0.343 OA
ENDROOT
BRANCH   1  26
HETATM   26  N1  UNL     1      27.403   6.187  48.975  1.00  0.00    -0.395 N 
HETATM   27  H6  UNL     1      27.330   6.374  49.970  1.00  0.00     0.155 HD
BRANCH  26  28
HETATM   28  C2  UNL     1      28.285   5.199  48.538  1.00  0.00     0.112 C 
HETATM   29  C1  UNL     1      29.576   5.871  48.047  1.00  0.00     0.026 C 
ENDBRANCH  26  28
ENDBRANCH   1  26
BRANCH   3  30
HETATM   30  P1  UNL     1      26.494  10.394  48.820  1.00  0.00    -0.110 P 
HETATM   31  H9  UNL     1      25.570  11.479  48.999  1.00  0.00     0.057 HD
HETATM   32  H10 UNL     1      27.240  10.552  47.590  1.00  0.00     0.057 HD
ENDBRANCH   3  30
TORSDOF 3
ENDMDL
MODEL 8
REMARK VINA RESULT:      -6.4      2.493      3.162
REMARK  3 active torsions:
REMARK  status: ('A' for Active; 'I' for Inactive)
REMARK    1  A    between atoms: C2_2  and  N1_3 
REMARK    2  A    between atoms: N1_3  and  C3_4 
REMARK    3  A    between atoms: C4_6  and  P1_7 
ROOT
HETATM    1  C3  UNL     1      23.559   5.179  52.041  1.00  0.00     0.250 C 
HETATM    2  O1  UNL     1      24.274   3.971  52.308  1.00  0.00    -0.355 OA
HETATM    3  C4  UNL     1      24.651   3.269  51.188  1.00  0.00     0.152 C 
HETATM    4  C5  UNL     1      23.722   2.089  51.016  1.00  0.00     0.100 C 
HETATM    5  C6  UNL     1      22.451   2.517  50.423  1.00  0.00     0.050 C 
HETATM    6  C7  UNL     1      21.679   2.190  49.427  1.00  0.00     0.033 C 
HETATM    7  C8  UNL     1      20.505   2.340  48.625  1.00  0.00     0.014 C 
HETATM    8  C9  UNL     1      19.468   3.155  48.725  1.00  0.00    -0.008 C 
HETATM    9  C10 UNL     1      19.378   4.150  49.852  1.00  0.00     0.052 C 
HETATM   10  N2  UNL     1      18.242   3.953  50.498  1.00  0.00    -0.246 NA
HETATM   11  C11 UNL     1      17.110   3.513  49.699  1.00  0.00     0.227 C 
HETATM   12  N3  UNL     1      17.083   3.286  48.405  1.00  0.00    -0.273 NA
HETATM   13  C12 UNL     1      18.376   3.147  47.718  1.00  0.00     0.144 C 
HETATM   14  C13 UNL     1      18.468   4.356  46.755  1.00  0.00     0.033 C 
HETATM   15  C14 UNL     1      19.233   5.425  47.444  1.00  0.00    -0.015 C 
HETATM   16  C15 UNL     1      20.409   5.867  46.849  1.00  0.00     0.067 C 
HETATM   17  C16 UNL     1      21.227   6.933  47.545  1.00  0.00     0.015 C 
HETATM   18 CL1  UNL     1      22.272   6.791  46.129  1.00  0.00    -0.089 Cl
HETATM   19  C17 UNL     1      21.496   7.809  48.580  1.00  0.00     0.019 C 
HETATM   20  C18 UNL     1      20.463   7.702  49.613  1.00  0.00     0.198 C 
HETATM   21  O2  UNL     1      21.215   7.245  50.804  1.00  0.00    -0.370 OA
HETATM   22  C19 UNL     1      21.433   5.821  50.723  1.00  0.00     0.136 C 
HETATM   23  C20 UNL     1      20.302   5.231  50.280  1.00  0.00     0.092 C 
HETATM   24  C21 UNL     1      22.557   4.927  50.993  1.00  0.00     0.215 C 
HETATM   25  O3  UNL     1      21.964   3.611  51.179  1.00  0.00    -0.343 OA
ENDROOT
BRANCH   1  26
HETATM   26  N1  UNL     1      24.385   6.311  51.904  1.00  0.00    -0.395 N 
HETATM   27  H6  UNL     1      24.917   6.524  52.742  1.00  0.00     0.155 HD
BRANCH  26  28
HETATM   28  C2  UNL     1      24.880   6.725  50.667  1.00  0.00     0.112 C 
HETATM   29  C1  UNL     1      24.588   8.223  50.495  1.00  0.00     0.026 C 
ENDBRANCH  26  28
ENDBRANCH   1  26
BRANCH   3  30
HETATM   30  P1  UNL     1      26.352   2.513  51.404  1.00  0.00    -0.110 P 
HETATM   31  H9  UNL     1      26.880   2.050  50.150  1.00  0.00     0.057 HD
HETATM   32  H10 UNL     1      26.242   1.421  52.348  1.00  0.00     0.057 HD
ENDBRANCH   3  30
TORSDOF 3
ENDMDL
MODEL 9
REMARK VINA RESULT:      -6.3      9.591     12.946
REMARK  3 active torsions:
REMARK  status: ('A' for Active; 'I' for Inactive)
REMARK    1  A    between atoms: C2_2  and  N1_3 
REMARK    2  A    between atoms: N1_3  and  C3_4 
REMARK    3  A    between atoms: C4_6  and  P1_7 
ROOT
HETATM    1  C3  UNL     1      28.284   8.442  45.367  1.00  0.00     0.250 C 
HETATM    2  O1  UNL     1      27.269   8.094  46.311  1.00  0.00    -0.355 OA
HETATM    3  C4  UNL     1      27.482   8.573  47.583  1.00  0.00     0.152 C 
HETATM    4  C5  UNL     1      27.976   7.442  48.455  1.00  0.00     0.100 C 
HETATM    5  C6  UNL     1      29.403   7.196  48.218  1.00  0.00     0.050 C 
HETATM    6  C7  UNL     1      30.501   7.082  48.907  1.00  0.00     0.033 C 
HETATM    7  C8  UNL     1      31.909   6.863  49.031  1.00  0.00     0.014 C 
HETATM    8  C9  UNL     1      32.840   6.591  48.132  1.00  0.00    -0.008 C 
HETATM    9  C10 UNL     1      32.484   6.448  46.675  1.00  0.00     0.052 C 
HETATM   10  N2  UNL     1      32.896   5.264  46.255  1.00  0.00    -0.246 NA
HETATM   11  C11 UNL     1      34.116   4.753  46.857  1.00  0.00     0.227 C 
HETATM   12  N3  UNL     1      34.861   5.327  47.773  1.00  0.00    -0.273 NA
HETATM   13  C12 UNL     1      34.269   6.452  48.513  1.00  0.00     0.144 C 
HETATM   14  C13 UNL     1      35.098   7.698  48.114  1.00  0.00     0.033 C 
HETATM   15  C14 UNL     1      34.384   8.379  47.005  1.00  0.00    -0.015 C 
HETATM   16  C15 UNL     1      33.976   9.692  47.207  1.00  0.00     0.067 C 
HETATM   17  C16 UNL     1      33.218  10.401  46.107  1.00  0.00     0.015 C 
HETATM   18 CL1  UNL     1      33.253  11.770  47.221  1.00  0.00    -0.089 Cl
HETATM   19  C17 UNL     1      32.617  10.472  44.864  1.00  0.00     0.019 C 
HETATM   20  C18 UNL     1      32.739   9.189  44.170  1.00  0.00     0.198 C 
HETATM   21  O2  UNL     1      31.333   8.759  43.992  1.00  0.00    -0.370 OA
HETATM   22  C19 UNL     1      30.847   8.172  45.217  1.00  0.00     0.136 C 
HETATM   23  C20 UNL     1      31.812   7.381  45.735  1.00  0.00     0.092 C 
HETATM   24  C21 UNL     1      29.606   8.251  45.984  1.00  0.00     0.215 C 
HETATM   25  O3  UNL     1      29.596   7.061  46.822  1.00  0.00    -0.343 OA
ENDROOT
BRANCH   1  26
HETATM   26  N1  UNL     1      28.040   9.653  44.692  1.00  0.00    -0.395 N 
HETATM   27  H6  UNL     1      28.630  10.415  45.009  1.00  0.00     0.155 HD
BRANCH  26  28
HETATM   28  C2  UNL     1      27.526   9.692  43.395  1.00  0.00     0.112 C 
HETATM   29  C1  UNL     1      28.576  10.317  42.466  1.00  0.00     0.026 C 
ENDBRANCH  26  28
ENDBRANCH   1  26
BRANCH   3  30
HETATM   30  P1  UNL     1      25.875   9.122  48.376  1.00  0.00    -0.110 P 
HETATM   31  H9  UNL     1      25.220  10.127  47.585  1.00  0.00     0.057 HD
HETATM   32  H10 UNL     1      26.176   9.627  49.699  1.00  0.00     0.057 HD
ENDBRANCH   3  30
TORSDOF 3
ENDMDL
