MODEL 1
REMARK VINA RESULT:      -9.0      0.000      0.000
REMARK  6 active torsions:
REMARK  status: ('A' for Active; 'I' for Inactive)
REMARK    1  A    between atoms: C1_2  and  C2_3 
REMARK       I    between atoms: C1_2  and  N2_12 
REMARK    2  A    between atoms: C3_4  and  C4_5 
REMARK    3  A    between atoms: C4_5  and  N1_6 
REMARK    4  A    between atoms: N2_12  and  C9_13 
REMARK    5  A    between atoms: C12_16  and  N3_17 
REMARK    6  A    between atoms: N3_17  and  C13_18 
ROOT
HETATM    1  C9  UNL     1      24.561   4.112  49.834  1.00  0.00     0.131 A 
HETATM    2  C10 UNL     1      24.556   3.448  51.039  1.00  0.00     0.068 A 
HETATM    3  C11 UNL     1      23.611   2.449  51.132  1.00  0.00     0.044 A 
HETATM    4  C12 UNL     1      23.616   1.773  52.330  1.00  0.00     0.142 A 
HETATM    5  N4  UNL     1      22.708   0.767  52.458  1.00  0.00    -0.224 NA
HETATM    6  C19 UNL     1      21.843   0.457  51.441  1.00  0.00     0.236 A 
HETATM    7  N5  UNL     1      21.871   1.142  50.287  1.00  0.00    -0.240 NA
HETATM    8  C20 UNL     1      22.753   2.149  50.104  1.00  0.00     0.089 A 
HETATM    9  C21 UNL     1      22.786   2.836  48.912  1.00  0.00     0.151 A 
HETATM   10  N6  UNL     1      23.701   3.804  48.821  1.00  0.00    -0.241 NA
ENDROOT
BRANCH   1  11
HETATM   11  N2  UNL     1      25.432   5.190  49.423  1.00  0.00    -0.301 N 
HETATM   12  C1  UNL     1      26.634   4.477  49.113  1.00  0.00     0.302 C 
HETATM   13  O1  UNL     1      26.593   3.226  49.276  1.00  0.00    -0.258 OA
HETATM   14  H11 UNL     1      25.484   6.219  49.283  1.00  0.00     0.171 HD
BRANCH  12  15
HETATM   15  C2  UNL     1      27.866   5.050  48.636  1.00  0.00    -0.004 C 
HETATM   16  C3  UNL     1      28.883   5.547  48.236  1.00  0.00    -0.066 C 
BRANCH  16  17
HETATM   17  C4  UNL     1      30.129   6.183  47.737  1.00  0.00     0.366 C 
BRANCH  17  18
HETATM   18  N1  UNL     1      31.121   6.160  48.797  1.00  0.00     0.103 N 
HETATM   19  C5  UNL     1      32.181   5.247  48.542  1.00  0.00     0.299 C 
HETATM   20  C6  UNL     1      33.565   5.803  48.798  1.00  0.00     0.198 C 
HETATM   21  O2  UNL     1      33.599   7.048  48.165  1.00  0.00    -0.388 OA
HETATM   22  C7  UNL     1      32.834   7.945  48.872  1.00  0.00     0.198 C 
HETATM   23  C8  UNL     1      31.488   7.447  49.285  1.00  0.00     0.299 C 
ENDBRANCH  17  18
ENDBRANCH  16  17
ENDBRANCH  12  15
ENDBRANCH   1  11
BRANCH   4  24
HETATM   24  N3  UNL     1      24.469   2.023  53.443  1.00  0.00    -0.340 N 
HETATM   25  H13 UNL     1      24.356   2.706  54.220  1.00  0.00     0.167 HD
BRANCH  24  26
HETATM   26  C13 UNL     1      25.557   1.095  53.256  1.00  0.00     0.035 A 
HETATM   27  C14 UNL     1      25.687  -0.149  52.673  1.00  0.00     0.032 A 
HETATM   28  C15 UNL     1      26.918  -0.735  52.646  1.00  0.00     0.046 A 
HETATM   29  C16 UNL     1      28.064  -0.176  53.164  1.00  0.00     0.138 A 
HETATM   30  F1  UNL     1      29.253  -0.854  53.071  1.00  0.00    -0.204 F 
HETATM   31  C17 UNL     1      27.974   1.066  53.755  1.00  0.00     0.074 A 
HETATM   32 CL1  UNL     1      29.417   1.777  54.408  1.00  0.00    -0.081 Cl
HETATM   33  C18 UNL     1      26.718   1.678  53.790  1.00  0.00     0.056 A 
ENDBRANCH  24  26
ENDBRANCH   4  24
TORSDOF 6
ENDMDL
MODEL 2
REMARK VINA RESULT:      -8.9      1.307      1.535
REMARK  6 active torsions:
REMARK  status: ('A' for Active; 'I' for Inactive)
REMARK    1  A    between atoms: C1_2  and  C2_3 
REMARK       I    between atoms: C1_2  and  N2_12 
REMARK    2  A    between atoms: C3_4  and  C4_5 
REMARK    3  A    between atoms: C4_5  and  N1_6 
REMARK    4  A    between atoms: N2_12  and  C9_13 
REMARK    5  A    between atoms: C12_16  and  N3_17 
REMARK    6  A    between atoms: N3_17  and  C13_18 
ROOT
HETATM    1  C9  UNL     1      25.414   5.230  49.639  1.00  0.00     0.131 A 
HETATM    2  C10 UNL     1      25.255   4.551  50.825  1.00  0.00     0.068 A 
HETATM    3  C11 UNL     1      24.089   3.820  50.908  1.00  0.00     0.044 A 
HETATM    4  C12 UNL     1      23.936   3.127  52.086  1.00  0.00     0.142 A 
HETATM    5  N4  UNL     1      22.806   2.379  52.203  1.00  0.00    -0.224 NA
HETATM    6  C19 UNL     1      21.879   2.329  51.194  1.00  0.00     0.236 A 
HETATM    7  N5  UNL     1      22.067   3.020  50.059  1.00  0.00    -0.240 NA
HETATM    8  C20 UNL     1      23.172   3.778  49.888  1.00  0.00     0.089 A 
HETATM    9  C21 UNL     1      23.364   4.471  48.715  1.00  0.00     0.151 A 
HETATM   10  N6  UNL     1      24.493   5.180  48.633  1.00  0.00    -0.241 NA
ENDROOT
BRANCH   1  11
HETATM   11  N2  UNL     1      26.524   6.065  49.242  1.00  0.00    -0.301 N 
HETATM   12  C1  UNL     1      27.494   5.083  48.862  1.00  0.00     0.302 C 
HETATM   13  O1  UNL     1      27.134   3.878  48.977  1.00  0.00    -0.258 OA
HETATM   14  H11 UNL     1      26.837   7.052  49.141  1.00  0.00     0.171 HD
BRANCH  12  15
HETATM   15  C2  UNL     1      28.821   5.342  48.367  1.00  0.00    -0.004 C 
HETATM   16  C3  UNL     1      29.930   5.537  47.950  1.00  0.00    -0.066 C 
BRANCH  16  17
HETATM   17  C4  UNL     1      31.303   5.753  47.428  1.00  0.00     0.366 C 
BRANCH  17  18
HETATM   18  N1  UNL     1      32.240   5.027  48.266  1.00  0.00     0.103 N 
HETATM   19  C5  UNL     1      32.678   3.808  47.678  1.00  0.00     0.299 C 
HETATM   20  C6  UNL     1      34.171   3.574  47.753  1.00  0.00     0.198 C 
HETATM   21  O2  UNL     1      34.766   4.765  47.325  1.00  0.00    -0.388 OA
HETATM   22  C7  UNL     1      34.613   5.729  48.294  1.00  0.00     0.198 C 
HETATM   23  C8  UNL     1      33.240   5.842  48.870  1.00  0.00     0.299 C 
ENDBRANCH  17  18
ENDBRANCH  16  17
ENDBRANCH  12  15
ENDBRANCH   1  11
BRANCH   4  24
HETATM   24  N3  UNL     1      24.837   3.119  53.190  1.00  0.00    -0.340 N 
HETATM   25  H13 UNL     1      24.924   3.797  53.975  1.00  0.00     0.167 HD
BRANCH  24  26
HETATM   26  C13 UNL     1      25.626   1.930  52.979  1.00  0.00     0.035 A 
HETATM   27  C14 UNL     1      25.453   0.759  52.270  1.00  0.00     0.032 A 
HETATM   28  C15 UNL     1      26.460  -0.160  52.268  1.00  0.00     0.046 A 
HETATM   29  C16 UNL     1      27.658  -0.014  52.929  1.00  0.00     0.138 A 
HETATM   30  F1  UNL     1      28.604  -1.002  52.848  1.00  0.00    -0.204 F 
HETATM   31  C17 UNL     1      27.867   1.143  53.649  1.00  0.00     0.074 A 
HETATM   32 CL1  UNL     1      29.377   1.335  54.483  1.00  0.00    -0.081 Cl
HETATM   33  C18 UNL     1      26.843   2.095  53.661  1.00  0.00     0.056 A 
ENDBRANCH  24  26
ENDBRANCH   4  24
TORSDOF 6
ENDMDL
MODEL 3
REMARK VINA RESULT:      -8.8      1.107      1.399
REMARK  6 active torsions:
REMARK  status: ('A' for Active; 'I' for Inactive)
REMARK    1  A    between atoms: C1_2  and  C2_3 
REMARK       I    between atoms: C1_2  and  N2_12 
REMARK    2  A    between atoms: C3_4  and  C4_5 
REMARK    3  A    between atoms: C4_5  and  N1_6 
REMARK    4  A    between atoms: N2_12  and  C9_13 
REMARK    5  A    between atoms: C12_16  and  N3_17 
REMARK    6  A    between atoms: N3_17  and  C13_18 
ROOT
HETATM    1  C9  UNL     1      24.456   3.984  49.854  1.00  0.00     0.131 A 
HETATM    2  C10 UNL     1      24.463   3.324  51.062  1.00  0.00     0.068 A 
HETATM    3  C11 UNL     1      23.531   2.313  51.161  1.00  0.00     0.044 A 
HETATM    4  C12 UNL     1      23.547   1.641  52.361  1.00  0.00     0.142 A 
HETATM    5  N4  UNL     1      22.654   0.624  52.495  1.00  0.00    -0.224 NA
HETATM    6  C19 UNL     1      21.790   0.299  51.482  1.00  0.00     0.236 A 
HETATM    7  N5  UNL     1      21.806   0.980  50.325  1.00  0.00    -0.240 NA
HETATM    8  C20 UNL     1      22.674   1.998  50.136  1.00  0.00     0.089 A 
HETATM    9  C21 UNL     1      22.695   2.681  48.942  1.00  0.00     0.151 A 
HETATM   10  N6  UNL     1      23.596   3.660  48.845  1.00  0.00    -0.241 NA
ENDROOT
BRANCH   1  11
HETATM   11  N2  UNL     1      25.311   5.071  49.438  1.00  0.00    -0.301 N 
HETATM   12  C1  UNL     1      26.533   4.379  49.164  1.00  0.00     0.302 C 
HETATM   13  O1  UNL     1      26.516   3.130  49.353  1.00  0.00    -0.258 OA
HETATM   14  H11 UNL     1      25.344   6.098  49.277  1.00  0.00     0.171 HD
BRANCH  12  15
HETATM   15  C2  UNL     1      27.762   4.968  48.699  1.00  0.00    -0.004 C 
HETATM   16  C3  UNL     1      28.775   5.475  48.300  1.00  0.00    -0.066 C 
BRANCH  16  17
HETATM   17  C4  UNL     1      30.014   6.119  47.795  1.00  0.00     0.366 C 
BRANCH  17  18
HETATM   18  N1  UNL     1      30.287   7.299  48.596  1.00  0.00     0.103 N 
HETATM   19  C5  UNL     1      31.620   7.772  48.448  1.00  0.00     0.299 C 
HETATM   20  C6  UNL     1      31.737   9.267  48.244  1.00  0.00     0.198 C 
HETATM   21  O2  UNL     1      30.807   9.591  47.253  1.00  0.00    -0.388 OA
HETATM   22  C7  UNL     1      29.536   9.507  47.770  1.00  0.00     0.198 C 
HETATM   23  C8  UNL     1      29.253   8.278  48.570  1.00  0.00     0.299 C 
ENDBRANCH  17  18
ENDBRANCH  16  17
ENDBRANCH  12  15
ENDBRANCH   1  11
BRANCH   4  24
HETATM   24  N3  UNL     1      24.401   1.906  53.471  1.00  0.00    -0.340 N 
HETATM   25  H13 UNL     1      24.277   2.584  54.251  1.00  0.00     0.167 HD
BRANCH  24  26
HETATM   26  C13 UNL     1      25.508   1.003  53.276  1.00  0.00     0.035 A 
HETATM   27  C14 UNL     1      25.661  -0.238  52.692  1.00  0.00     0.032 A 
HETATM   28  C15 UNL     1      26.905  -0.796  52.656  1.00  0.00     0.046 A 
HETATM   29  C16 UNL     1      28.042  -0.212  53.165  1.00  0.00     0.138 A 
HETATM   30  F1  UNL     1      29.244  -0.863  53.063  1.00  0.00    -0.204 F 
HETATM   31  C17 UNL     1      27.928   1.028  53.756  1.00  0.00     0.074 A 
HETATM   32 CL1  UNL     1      29.360   1.772  54.397  1.00  0.00    -0.081 Cl
HETATM   33  C18 UNL     1      26.659   1.612  53.801  1.00  0.00     0.056 A 
ENDBRANCH  24  26
ENDBRANCH   4  24
TORSDOF 6
ENDMDL
MODEL 4
REMARK VINA RESULT:      -8.3      5.798      9.493
REMARK  6 active torsions:
REMARK  status: ('A' for Active; 'I' for Inactive)
REMARK    1  A    between atoms: C1_2  and  C2_3 
REMARK       I    between atoms: C1_2  and  N2_12 
REMARK    2  A    between atoms: C3_4  and  C4_5 
REMARK    3  A    between atoms: C4_5  and  N1_6 
REMARK    4  A    between atoms: N2_12  and  C9_13 
REMARK    5  A    between atoms: C12_16  and  N3_17 
REMARK    6  A    between atoms: N3_17  and  C13_18 
ROOT
HETATM    1  C9  UNL     1      21.046  -0.072  52.544  1.00  0.00     0.131 A 
HETATM    2  C10 UNL     1      22.409   0.112  52.583  1.00  0.00     0.068 A 
HETATM    3  C11 UNL     1      23.023  -0.432  53.691  1.00  0.00     0.044 A 
HETATM    4  C12 UNL     1      24.388  -0.264  53.723  1.00  0.00     0.142 A 
HETATM    5  N4  UNL     1      25.036  -0.801  54.793  1.00  0.00    -0.224 NA
HETATM    6  C19 UNL     1      24.353  -1.468  55.777  1.00  0.00     0.236 A 
HETATM    7  N5  UNL     1      23.020  -1.610  55.707  1.00  0.00    -0.240 NA
HETATM    8  C20 UNL     1      22.326  -1.100  54.667  1.00  0.00     0.089 A 
HETATM    9  C21 UNL     1      20.961  -1.263  54.595  1.00  0.00     0.151 A 
HETATM   10  N6  UNL     1      20.365  -0.736  53.523  1.00  0.00    -0.241 NA
ENDROOT
BRANCH   1  11
HETATM   11  N2  UNL     1      20.126   0.363  51.519  1.00  0.00    -0.301 N 
HETATM   12  C1  UNL     1      19.748   1.654  52.009  1.00  0.00     0.302 C 
HETATM   13  O1  UNL     1      20.277   2.008  53.100  1.00  0.00    -0.258 OA
HETATM   14  H11 UNL     1      19.680   0.088  50.620  1.00  0.00     0.171 HD
BRANCH  12  15
HETATM   15  C2  UNL     1      18.835   2.572  51.379  1.00  0.00    -0.004 C 
HETATM   16  C3  UNL     1      18.089   3.352  50.852  1.00  0.00    -0.066 C 
BRANCH  16  17
HETATM   17  C4  UNL     1      17.186   4.334  50.201  1.00  0.00     0.366 C 
BRANCH  17  18
HETATM   18  N1  UNL     1      15.821   3.847  50.295  1.00  0.00     0.103 N 
HETATM   19  C5  UNL     1      15.653   2.557  49.720  1.00  0.00     0.299 C 
HETATM   20  C6  UNL     1      14.861   1.589  50.571  1.00  0.00     0.198 C 
HETATM   21  O2  UNL     1      15.407   1.673  51.854  1.00  0.00    -0.388 OA
HETATM   22  C7  UNL     1      15.044   2.868  52.431  1.00  0.00     0.198 C 
HETATM   23  C8  UNL     1      15.205   4.071  51.560  1.00  0.00     0.299 C 
ENDBRANCH  17  18
ENDBRANCH  16  17
ENDBRANCH  12  15
ENDBRANCH   1  11
BRANCH   4  24
HETATM   24  N3  UNL     1      25.183   0.414  52.756  1.00  0.00    -0.340 N 
HETATM   25  H13 UNL     1      24.899   1.122  52.046  1.00  0.00     0.167 HD
BRANCH  24  26
HETATM   26  C13 UNL     1      26.511  -0.106  52.977  1.00  0.00     0.035 A 
HETATM   27  C14 UNL     1      27.132  -1.317  52.753  1.00  0.00     0.032 A 
HETATM   28  C15 UNL     1      28.453  -1.443  53.063  1.00  0.00     0.046 A 
HETATM   29  C16 UNL     1      29.234  -0.441  53.593  1.00  0.00     0.138 A 
HETATM   30  F1  UNL     1      30.558  -0.678  53.857  1.00  0.00    -0.204 F 
HETATM   31  C17 UNL     1      28.648   0.784  53.832  1.00  0.00     0.074 A 
HETATM   32 CL1  UNL     1      29.628   2.053  54.497  1.00  0.00    -0.081 Cl
HETATM   33  C18 UNL     1      27.293   0.927  53.519  1.00  0.00     0.056 A 
ENDBRANCH  24  26
ENDBRANCH   4  24
TORSDOF 6
ENDMDL
MODEL 5
REMARK VINA RESULT:      -8.3      2.878      3.721
REMARK  6 active torsions:
REMARK  status: ('A' for Active; 'I' for Inactive)
REMARK    1  A    between atoms: C1_2  and  C2_3 
REMARK       I    between atoms: C1_2  and  N2_12 
REMARK    2  A    between atoms: C3_4  and  C4_5 
REMARK    3  A    between atoms: C4_5  and  N1_6 
REMARK    4  A    between atoms: N2_12  and  C9_13 
REMARK    5  A    between atoms: C12_16  and  N3_17 
REMARK    6  A    between atoms: N3_17  and  C13_18 
ROOT
HETATM    1  C9  UNL     1      23.593   4.092  51.367  1.00  0.00     0.131 A 
HETATM    2  C10 UNL     1      22.992   2.857  51.273  1.00  0.00     0.068 A 
HETATM    3  C11 UNL     1      21.616   2.889  51.351  1.00  0.00     0.044 A 
HETATM    4  C12 UNL     1      21.012   1.658  51.240  1.00  0.00     0.142 A 
HETATM    5  N4  UNL     1      19.653   1.647  51.296  1.00  0.00    -0.224 NA
HETATM    6  C19 UNL     1      18.938   2.805  51.455  1.00  0.00     0.236 A 
HETATM    7  N5  UNL     1      19.566   3.987  51.559  1.00  0.00    -0.240 NA
HETATM    8  C20 UNL     1      20.914   4.058  51.508  1.00  0.00     0.089 A 
HETATM    9  C21 UNL     1      21.550   5.275  51.600  1.00  0.00     0.151 A 
HETATM   10  N6  UNL     1      22.882   5.246  51.525  1.00  0.00    -0.241 NA
ENDROOT
BRANCH   1  11
HETATM   11  N2  UNL     1      25.004   4.393  51.307  1.00  0.00    -0.301 N 
HETATM   12  C1  UNL     1      25.202   4.537  49.897  1.00  0.00     0.302 C 
HETATM   13  O1  UNL     1      24.179   4.371  49.175  1.00  0.00    -0.258 OA
HETATM   14  H11 UNL     1      25.858   4.534  51.886  1.00  0.00     0.171 HD
BRANCH  12  15
HETATM   15  C2  UNL     1      26.443   4.852  49.237  1.00  0.00    -0.004 C 
HETATM   16  C3  UNL     1      27.487   5.114  48.707  1.00  0.00    -0.066 C 
BRANCH  16  17
HETATM   17  C4  UNL     1      28.791   5.437  48.073  1.00  0.00     0.366 C 
BRANCH  17  18
HETATM   18  N1  UNL     1      28.793   6.839  47.697  1.00  0.00     0.103 N 
HETATM   19  C5  UNL     1      28.357   7.694  48.748  1.00  0.00     0.299 C 
HETATM   20  C6  UNL     1      29.225   8.915  48.965  1.00  0.00     0.198 C 
HETATM   21  O2  UNL     1      30.541   8.447  48.997  1.00  0.00    -0.388 OA
HETATM   22  C7  UNL     1      30.932   8.084  47.730  1.00  0.00     0.198 C 
HETATM   23  C8  UNL     1      29.949   7.251  46.974  1.00  0.00     0.299 C 
ENDBRANCH  17  18
ENDBRANCH  16  17
ENDBRANCH  12  15
ENDBRANCH   1  11
BRANCH   4  24
HETATM   24  N3  UNL     1      21.666   0.404  51.077  1.00  0.00    -0.340 N 
HETATM   25  H13 UNL     1      21.997  -0.060  50.205  1.00  0.00     0.167 HD
BRANCH  24  26
HETATM   26  C13 UNL     1      21.778  -0.103  52.423  1.00  0.00     0.035 A 
HETATM   27  C14 UNL     1      20.880  -0.522  53.383  1.00  0.00     0.032 A 
HETATM   28  C15 UNL     1      21.361  -0.988  54.571  1.00  0.00     0.046 A 
HETATM   29  C16 UNL     1      22.695  -1.076  54.897  1.00  0.00     0.138 A 
HETATM   30  F1  UNL     1      23.065  -1.571  56.120  1.00  0.00    -0.204 F 
HETATM   31  C17 UNL     1      23.622  -0.665  53.963  1.00  0.00     0.074 A 
HETATM   32 CL1  UNL     1      25.307  -0.776  54.367  1.00  0.00    -0.081 Cl
HETATM   33  C18 UNL     1      23.144  -0.184  52.741  1.00  0.00     0.056 A 
ENDBRANCH  24  26
ENDBRANCH   4  24
TORSDOF 6
ENDMDL
MODEL 6
REMARK VINA RESULT:      -8.3      1.985      2.414
REMARK  6 active torsions:
REMARK  status: ('A' for Active; 'I' for Inactive)
REMARK    1  A    between atoms: C1_2  and  C2_3 
REMARK       I    between atoms: C1_2  and  N2_12 
REMARK    2  A    between atoms: C3_4  and  C4_5 
REMARK    3  A    between atoms: C4_5  and  N1_6 
REMARK    4  A    between atoms: N2_12  and  C9_13 
REMARK    5  A    between atoms: C12_16  and  N3_17 
REMARK    6  A    between atoms: N3_17  and  C13_18 
ROOT
HETATM    1  C9  UNL     1      25.530   5.677  49.363  1.00  0.00     0.131 A 
HETATM    2  C10 UNL     1      25.321   4.958  50.518  1.00  0.00     0.068 A 
HETATM    3  C11 UNL     1      24.084   4.354  50.593  1.00  0.00     0.044 A 
HETATM    4  C12 UNL     1      23.878   3.621  51.739  1.00  0.00     0.142 A 
HETATM    5  N4  UNL     1      22.676   2.994  51.846  1.00  0.00    -0.224 NA
HETATM    6  C19 UNL     1      21.730   3.097  50.859  1.00  0.00     0.236 A 
HETATM    7  N5  UNL     1      21.971   3.823  49.755  1.00  0.00    -0.240 NA
HETATM    8  C20 UNL     1      23.148   4.464  49.595  1.00  0.00     0.089 A 
HETATM    9  C21 UNL     1      23.393   5.193  48.453  1.00  0.00     0.151 A 
HETATM   10  N6  UNL     1      24.590   5.779  48.380  1.00  0.00    -0.241 NA
ENDROOT
BRANCH   1  11
HETATM   11  N2  UNL     1      26.716   6.408  48.982  1.00  0.00    -0.301 N 
HETATM   12  C1  UNL     1      27.620   5.339  48.681  1.00  0.00     0.302 C 
HETATM   13  O1  UNL     1      27.163   4.171  48.826  1.00  0.00    -0.258 OA
HETATM   14  H11 UNL     1      27.110   7.362  48.856  1.00  0.00     0.171 HD
BRANCH  12  15
HETATM   15  C2  UNL     1      28.982   5.475  48.232  1.00  0.00    -0.004 C 
HETATM   16  C3  UNL     1      30.117   5.566  47.853  1.00  0.00    -0.066 C 
BRANCH  16  17
HETATM   17  C4  UNL     1      31.522   5.654  47.379  1.00  0.00     0.366 C 
BRANCH  17  18
HETATM   18  N1  UNL     1      31.974   7.028  47.513  1.00  0.00     0.103 N 
HETATM   19  C5  UNL     1      31.033   7.971  47.015  1.00  0.00     0.299 C 
HETATM   20  C6  UNL     1      30.785   9.153  47.927  1.00  0.00     0.198 C 
HETATM   21  O2  UNL     1      30.571   8.615  49.199  1.00  0.00    -0.388 OA
HETATM   22  C7  UNL     1      31.761   8.151  49.708  1.00  0.00     0.198 C 
HETATM   23  C8  UNL     1      32.579   7.327  48.767  1.00  0.00     0.299 C 
ENDBRANCH  17  18
ENDBRANCH  16  17
ENDBRANCH  12  15
ENDBRANCH   1  11
BRANCH   4  24
HETATM   24  N3  UNL     1      24.794   3.458  52.818  1.00  0.00    -0.340 N 
HETATM   25  H13 UNL     1      25.024   4.114  53.593  1.00  0.00     0.167 HD
BRANCH  24  26
HETATM   26  C13 UNL     1      25.352   2.146  52.599  1.00  0.00     0.035 A 
HETATM   27  C14 UNL     1      26.225   1.599  51.681  1.00  0.00     0.032 A 
HETATM   28  C15 UNL     1      26.568   0.286  51.806  1.00  0.00     0.046 A 
HETATM   29  C16 UNL     1      26.105  -0.557  52.790  1.00  0.00     0.138 A 
HETATM   30  F1  UNL     1      26.526  -1.861  52.823  1.00  0.00    -0.204 F 
HETATM   31  C17 UNL     1      25.229  -0.047  53.724  1.00  0.00     0.074 A 
HETATM   32 CL1  UNL     1      24.643  -1.104  54.970  1.00  0.00    -0.081 Cl
HETATM   33  C18 UNL     1      24.868   1.299  53.610  1.00  0.00     0.056 A 
ENDBRANCH  24  26
ENDBRANCH   4  24
TORSDOF 6
ENDMDL
MODEL 7
REMARK VINA RESULT:      -8.0      3.671      4.748
REMARK  6 active torsions:
REMARK  status: ('A' for Active; 'I' for Inactive)
REMARK    1  A    between atoms: C1_2  and  C2_3 
REMARK       I    between atoms: C1_2  and  N2_12 
REMARK    2  A    between atoms: C3_4  and  C4_5 
REMARK    3  A    between atoms: C4_5  and  N1_6 
REMARK    4  A    between atoms: N2_12  and  C9_13 
REMARK    5  A    between atoms: C12_16  and  N3_17 
REMARK    6  A    between atoms: N3_17  and  C13_18 
ROOT
HETATM    1  C9  UNL     1      26.103   7.846  49.811  1.00  0.00     0.131 A 
HETATM    2  C10 UNL     1      25.389   6.932  50.551  1.00  0.00     0.068 A 
HETATM    3  C11 UNL     1      24.022   7.099  50.493  1.00  0.00     0.044 A 
HETATM    4  C12 UNL     1      23.305   6.176  51.218  1.00  0.00     0.142 A 
HETATM    5  N4  UNL     1      21.950   6.295  51.175  1.00  0.00    -0.224 NA
HETATM    6  C19 UNL     1      21.347   7.287  50.445  1.00  0.00     0.236 A 
HETATM    7  N5  UNL     1      22.084   8.169  49.750  1.00  0.00    -0.240 NA
HETATM    8  C20 UNL     1      23.432   8.096  49.756  1.00  0.00     0.089 A 
HETATM    9  C21 UNL     1      24.179   8.994  49.028  1.00  0.00     0.151 A 
HETATM   10  N6  UNL     1      25.503   8.833  49.084  1.00  0.00    -0.241 NA
ENDROOT
BRANCH   1  11
HETATM   11  N2  UNL     1      27.537   7.929  49.657  1.00  0.00    -0.301 N 
HETATM   12  C1  UNL     1      27.768   6.948  48.641  1.00  0.00     0.302 C 
HETATM   13  O1  UNL     1      26.744   6.343  48.213  1.00  0.00    -0.258 OA
HETATM   14  H11 UNL     1      28.391   8.417  49.996  1.00  0.00     0.171 HD
BRANCH  12  15
HETATM   15  C2  UNL     1      29.041   6.595  48.069  1.00  0.00    -0.004 C 
HETATM   16  C3  UNL     1      30.113   6.313  47.607  1.00  0.00    -0.066 C 
BRANCH  16  17
HETATM   17  C4  UNL     1      31.450   5.981  47.052  1.00  0.00     0.366 C 
BRANCH  17  18
HETATM   18  N1  UNL     1      32.140   5.111  47.988  1.00  0.00     0.103 N 
HETATM   19  C5  UNL     1      32.599   3.906  47.387  1.00  0.00     0.299 C 
HETATM   20  C6  UNL     1      34.024   3.534  47.735  1.00  0.00     0.198 C 
HETATM   21  O2  UNL     1      34.779   4.695  47.547  1.00  0.00    -0.388 OA
HETATM   22  C7  UNL     1      34.501   5.592  48.551  1.00  0.00     0.198 C 
HETATM   23  C8  UNL     1      33.051   5.784  48.852  1.00  0.00     0.299 C 
ENDBRANCH  17  18
ENDBRANCH  16  17
ENDBRANCH  12  15
ENDBRANCH   1  11
BRANCH   4  24
HETATM   24  N3  UNL     1      23.839   5.117  52.007  1.00  0.00    -0.340 N 
HETATM   25  H13 UNL     1      24.443   5.165  52.854  1.00  0.00     0.167 HD
BRANCH  24  26
HETATM   26  C13 UNL     1      23.344   3.926  51.361  1.00  0.00     0.035 A 
HETATM   27  C14 UNL     1      23.379   3.430  50.074  1.00  0.00     0.032 A 
HETATM   28  C15 UNL     1      22.821   2.211  49.827  1.00  0.00     0.046 A 
HETATM   29  C16 UNL     1      22.212   1.419  50.774  1.00  0.00     0.138 A 
HETATM   30  F1  UNL     1      21.692   0.204  50.412  1.00  0.00    -0.204 F 
HETATM   31  C17 UNL     1      22.157   1.882  52.071  1.00  0.00     0.074 A 
HETATM   32 CL1  UNL     1      21.392   0.888  53.271  1.00  0.00    -0.081 Cl
HETATM   33  C18 UNL     1      22.725   3.131  52.340  1.00  0.00     0.056 A 
ENDBRANCH  24  26
ENDBRANCH   4  24
TORSDOF 6
ENDMDL
MODEL 8
REMARK VINA RESULT:      -7.9      3.333      4.040
REMARK  6 active torsions:
REMARK  status: ('A' for Active; 'I' for Inactive)
REMARK    1  A    between atoms: C1_2  and  C2_3 
REMARK       I    between atoms: C1_2  and  N2_12 
REMARK    2  A    between atoms: C3_4  and  C4_5 
REMARK    3  A    between atoms: C4_5  and  N1_6 
REMARK    4  A    between atoms: N2_12  and  C9_13 
REMARK    5  A    between atoms: C12_16  and  N3_17 
REMARK    6  A    between atoms: N3_17  and  C13_18 
ROOT
HETATM    1  C9  UNL     1      24.775   4.476  50.577  1.00  0.00     0.131 A 
HETATM    2  C10 UNL     1      23.887   3.436  50.422  1.00  0.00     0.068 A 
HETATM    3  C11 UNL     1      22.562   3.803  50.518  1.00  0.00     0.044 A 
HETATM    4  C12 UNL     1      21.672   2.768  50.346  1.00  0.00     0.142 A 
HETATM    5  N4  UNL     1      20.352   3.089  50.418  1.00  0.00    -0.224 NA
HETATM    6  C19 UNL     1      19.946   4.378  50.650  1.00  0.00     0.236 A 
HETATM    7  N5  UNL     1      20.847   5.360  50.812  1.00  0.00    -0.240 NA
HETATM    8  C20 UNL     1      22.171   5.098  50.748  1.00  0.00     0.089 A 
HETATM    9  C21 UNL     1      23.088   6.113  50.901  1.00  0.00     0.151 A 
HETATM   10  N6  UNL     1      24.371   5.759  50.808  1.00  0.00    -0.241 NA
ENDROOT
BRANCH   1  11
HETATM   11  N2  UNL     1      26.217   4.422  50.518  1.00  0.00    -0.301 N 
HETATM   12  C1  UNL     1      26.471   5.058  49.261  1.00  0.00     0.302 C 
HETATM   13  O1  UNL     1      25.453   5.446  48.622  1.00  0.00    -0.258 OA
HETATM   14  H11 UNL     1      27.067   4.109  51.030  1.00  0.00     0.171 HD
BRANCH  12  15
HETATM   15  C2  UNL     1      27.763   5.295  48.671  1.00  0.00    -0.004 C 
HETATM   16  C3  UNL     1      28.847   5.474  48.187  1.00  0.00    -0.066 C 
BRANCH  16  17
HETATM   17  C4  UNL     1      30.196   5.673  47.598  1.00  0.00     0.366 C 
BRANCH  17  18
HETATM   18  N1  UNL     1      31.164   5.778  48.676  1.00  0.00     0.103 N 
HETATM   19  C5  UNL     1      32.355   5.042  48.422  1.00  0.00     0.299 C 
HETATM   20  C6  UNL     1      33.634   5.796  48.715  1.00  0.00     0.198 C 
HETATM   21  O2  UNL     1      33.488   7.046  48.107  1.00  0.00    -0.388 OA
HETATM   22  C7  UNL     1      32.584   7.800  48.818  1.00  0.00     0.198 C 
HETATM   23  C8  UNL     1      31.323   7.094  49.196  1.00  0.00     0.299 C 
ENDBRANCH  17  18
ENDBRANCH  16  17
ENDBRANCH  12  15
ENDBRANCH   1  11
BRANCH   4  24
HETATM   24  N3  UNL     1      21.996   1.402  50.106  1.00  0.00    -0.340 N 
HETATM   25  H13 UNL     1      22.166   0.913  49.202  1.00  0.00     0.167 HD
BRANCH  24  26
HETATM   26  C13 UNL     1      22.040   0.822  51.426  1.00  0.00     0.035 A 
HETATM   27  C14 UNL     1      22.999   0.716  52.411  1.00  0.00     0.032 A 
HETATM   28  C15 UNL     1      22.665   0.112  53.588  1.00  0.00     0.046 A 
HETATM   29  C16 UNL     1      21.426  -0.410  53.878  1.00  0.00     0.138 A 
HETATM   30  F1  UNL     1      21.201  -0.987  55.101  1.00  0.00    -0.204 F 
HETATM   31  C17 UNL     1      20.442  -0.324  52.917  1.00  0.00     0.074 A 
HETATM   32 CL1  UNL     1      18.875  -0.979  53.278  1.00  0.00    -0.081 Cl
HETATM   33  C18 UNL     1      20.769   0.292  51.706  1.00  0.00     0.056 A 
ENDBRANCH  24  26
ENDBRANCH   4  24
TORSDOF 6
ENDMDL
MODEL 9
REMARK VINA RESULT:      -7.9      4.748      6.455
REMARK  6 active torsions:
REMARK  status: ('A' for Active; 'I' for Inactive)
REMARK    1  A    between atoms: C1_2  and  C2_3 
REMARK       I    between atoms: C1_2  and  N2_12 
REMARK    2  A    between atoms: C3_4  and  C4_5 
REMARK    3  A    between atoms: C4_5  and  N1_6 
REMARK    4  A    between atoms: N2_12  and  C9_13 
REMARK    5  A    between atoms: C12_16  and  N3_17 
REMARK    6  A    between atoms: N3_17  and  C13_18 
ROOT
HETATM    1  C9  UNL     1      26.657   2.179  51.177  1.00  0.00     0.131 A 
HETATM    2  C10 UNL     1      25.974   1.082  51.650  1.00  0.00     0.068 A 
HETATM    3  C11 UNL     1      26.379   0.655  52.896  1.00  0.00     0.044 A 
HETATM    4  C12 UNL     1      25.686  -0.431  53.378  1.00  0.00     0.142 A 
HETATM    5  N4  UNL     1      26.044  -0.874  54.614  1.00  0.00    -0.224 NA
HETATM    6  C19 UNL     1      27.042  -0.263  55.327  1.00  0.00     0.236 A 
HETATM    7  N5  UNL     1      27.694   0.796  54.820  1.00  0.00    -0.240 NA
HETATM    8  C20 UNL     1      27.379   1.280  53.600  1.00  0.00     0.089 A 
HETATM    9  C21 UNL     1      28.042   2.375  53.094  1.00  0.00     0.151 A 
HETATM   10  N6  UNL     1      27.651   2.788  51.887  1.00  0.00    -0.241 NA
ENDROOT
BRANCH   1  11
HETATM   11  N2  UNL     1      26.462   2.867  49.922  1.00  0.00    -0.301 N 
HETATM   12  C1  UNL     1      25.342   3.703  50.231  1.00  0.00     0.302 C 
HETATM   13  O1  UNL     1      24.886   3.604  51.405  1.00  0.00    -0.258 OA
HETATM   14  H11 UNL     1      26.824   2.962  48.951  1.00  0.00     0.171 HD
BRANCH  12  15
HETATM   15  C2  UNL     1      24.700   4.634  49.339  1.00  0.00    -0.004 C 
HETATM   16  C3  UNL     1      24.184   5.414  48.587  1.00  0.00    -0.066 C 
BRANCH  16  17
HETATM   17  C4  UNL     1      23.569   6.386  47.647  1.00  0.00     0.366 C 
BRANCH  17  18
HETATM   18  N1  UNL     1      22.897   7.418  48.416  1.00  0.00     0.103 N 
HETATM   19  C5  UNL     1      21.792   6.921  49.162  1.00  0.00     0.299 C 
HETATM   20  C6  UNL     1      21.737   7.398  50.597  1.00  0.00     0.198 C 
HETATM   21  O2  UNL     1      23.022   7.206  51.112  1.00  0.00    -0.388 OA
HETATM   22  C7  UNL     1      23.878   8.136  50.572  1.00  0.00     0.198 C 
HETATM   23  C8  UNL     1      23.776   8.312  49.092  1.00  0.00     0.299 C 
ENDBRANCH  17  18
ENDBRANCH  16  17
ENDBRANCH  12  15
ENDBRANCH   1  11
BRANCH   4  24
HETATM   24  N3  UNL     1      24.641  -1.133  52.713  1.00  0.00    -0.340 N 
HETATM   25  H13 UNL     1      24.687  -1.742  51.869  1.00  0.00     0.167 HD
BRANCH  24  26
HETATM   26  C13 UNL     1      23.466  -0.813  53.487  1.00  0.00     0.035 A 
HETATM   27  C14 UNL     1      22.919  -1.278  54.665  1.00  0.00     0.032 A 
HETATM   28  C15 UNL     1      21.778  -0.695  55.132  1.00  0.00     0.046 A 
HETATM   29  C16 UNL     1      21.114   0.338  54.512  1.00  0.00     0.138 A 
HETATM   30  F1  UNL     1      19.978   0.854  55.079  1.00  0.00    -0.204 F 
HETATM   31  C17 UNL     1      21.631   0.829  53.332  1.00  0.00     0.074 A 
HETATM   32 CL1  UNL     1      20.799   2.135  52.546  1.00  0.00    -0.081 Cl
HETATM   33  C18 UNL     1      22.800   0.241  52.841  1.00  0.00     0.056 A 
ENDBRANCH  24  26
ENDBRANCH   4  24
TORSDOF 6
ENDMDL
