MODEL 1
REMARK VINA RESULT:      -9.4      0.000      0.000
REMARK  3 active torsions:
REMARK  status: ('A' for Active; 'I' for Inactive)
REMARK    1  A    between atoms: C2_2  and  N1_3 
REMARK    2  A    between atoms: C13_16  and  N3_17 
REMARK    3  A    between atoms: N3_17  and  C14_18 
ROOT
HETATM    1  C1  UNL     1      23.431   6.808  48.441  1.00  0.00     0.058 C 
HETATM    2  C2  UNL     1      24.122   5.673  49.196  1.00  0.00     0.195 C 
HETATM    3  C3  UNL     1      23.736   5.691  50.591  1.00  0.00     0.015 C 
HETATM    4  C4  UNL     1      23.714   5.189  51.778  1.00  0.00     0.001 C 
HETATM    5  C5  UNL     1      23.644   4.709  53.097  1.00  0.00     0.034 C 
HETATM    6  C6  UNL     1      24.303   3.517  53.420  1.00  0.00    -0.002 C 
HETATM    7  C7  UNL     1      25.186   2.449  52.838  1.00  0.00    -0.024 C 
HETATM    8  C8  UNL     1      25.901   1.985  51.874  1.00  0.00     0.038 C 
HETATM    9  C9  UNL     1      26.238   2.559  50.586  1.00  0.00     0.204 A 
HETATM   10  O1  UNL     1      26.028   3.732  50.260  1.00  0.00     0.000 OA
HETATM   11  N2  UNL     1      26.579   3.104  49.314  1.00  0.00     0.142 N 
HETATM   12  C10 UNL     1      26.405   4.527  49.008  1.00  0.00     0.252 A 
HETATM   13  C11 UNL     1      27.751   4.835  48.682  1.00  0.00     0.040 A 
HETATM   14  C12 UNL     1      28.313   6.069  48.316  1.00  0.00     0.038 A 
HETATM   15  C13 UNL     1      29.615   6.322  48.018  1.00  0.00     0.141 A 
HETATM   16  N4  UNL     1      29.919   7.584  47.702  1.00  0.00    -0.224 NA
HETATM   17  C20 UNL     1      29.070   8.608  47.653  1.00  0.00     0.236 A 
HETATM   18  N5  UNL     1      27.783   8.369  47.945  1.00  0.00    -0.241 NA
HETATM   19  C21 UNL     1      27.396   7.107  48.276  1.00  0.00     0.072 A 
HETATM   20  C22 UNL     1      26.075   6.804  48.596  1.00  0.00     0.041 A 
HETATM   21  C23 UNL     1      25.550   5.588  48.953  1.00  0.00     0.009 A 
HETATM   22  H12 UNL     1      26.961   2.409  48.589  1.00  0.00     0.325 HD
ENDROOT
BRANCH  15  23
HETATM   23  N3  UNL     1      30.535   5.255  48.050  1.00  0.00    -0.340 N 
HETATM   24  H14 UNL     1      30.330   4.251  48.169  1.00  0.00     0.167 HD
BRANCH  23  25
HETATM   25  C14 UNL     1      31.948   5.299  47.924  1.00  0.00     0.035 A 
HETATM   26  C15 UNL     1      32.645   6.053  48.875  1.00  0.00     0.029 A 
HETATM   27  C16 UNL     1      34.040   6.177  48.854  1.00  0.00     0.004 A 
HETATM   28  C17 UNL     1      34.757   5.540  47.873  1.00  0.00     0.019 A 
HETATM   29  C18 UNL     1      34.106   4.794  46.928  1.00  0.00     0.013 A 
HETATM   30 BR1  UNL     1      34.948   3.824  45.493  1.00  0.00    -0.051 Br
HETATM   31  C19 UNL     1      32.734   4.674  46.950  1.00  0.00     0.048 A 
ENDBRANCH  23  25
ENDBRANCH  15  23
BRANCH   2  32
HETATM   32  N1  UNL     1      23.516   4.426  48.631  1.00  0.00     0.095 N 
HETATM   33  H4  UNL     1      24.256   3.971  48.098  1.00  0.00     0.314 HD
HETATM   34  H5  UNL     1      23.146   3.899  49.456  1.00  0.00     0.314 HD
ENDBRANCH   2  32
TORSDOF 3
ENDMDL
MODEL 2
REMARK VINA RESULT:      -9.3      4.114      6.114
REMARK  3 active torsions:
REMARK  status: ('A' for Active; 'I' for Inactive)
REMARK    1  A    between atoms: C2_2  and  N1_3 
REMARK    2  A    between atoms: C13_16  and  N3_17 
REMARK    3  A    between atoms: N3_17  and  C14_18 
ROOT
HETATM    1  C1  UNL     1      19.563   1.960  49.573  1.00  0.00     0.058 C 
HETATM    2  C2  UNL     1      20.808   1.641  50.399  1.00  0.00     0.195 C 
HETATM    3  C3  UNL     1      20.436   0.968  51.626  1.00  0.00     0.015 C 
HETATM    4  C4  UNL     1      20.717   0.339  52.715  1.00  0.00     0.001 C 
HETATM    5  C5  UNL     1      20.938  -0.352  53.919  1.00  0.00     0.034 C 
HETATM    6  C6  UNL     1      22.255  -0.609  54.319  1.00  0.00    -0.002 C 
HETATM    7  C7  UNL     1      23.687  -0.373  53.927  1.00  0.00    -0.024 C 
HETATM    8  C8  UNL     1      24.567   0.182  53.170  1.00  0.00     0.038 C 
HETATM    9  C9  UNL     1      24.416   1.125  52.079  1.00  0.00     0.204 A 
HETATM   10  O1  UNL     1      23.370   1.719  51.800  1.00  0.00     0.000 OA
HETATM   11  N2  UNL     1      24.289   2.049  51.002  1.00  0.00     0.142 N 
HETATM   12  C10 UNL     1      23.057   2.809  50.773  1.00  0.00     0.252 A 
HETATM   13  C11 UNL     1      23.599   4.117  50.865  1.00  0.00     0.040 A 
HETATM   14  C12 UNL     1      22.944   5.356  50.770  1.00  0.00     0.038 A 
HETATM   15  C13 UNL     1      23.504   6.591  50.873  1.00  0.00     0.141 A 
HETATM   16  N4  UNL     1      22.675   7.631  50.756  1.00  0.00    -0.224 NA
HETATM   17  C20 UNL     1      21.362   7.570  50.551  1.00  0.00     0.236 A 
HETATM   18  N5  UNL     1      20.798   6.357  50.448  1.00  0.00    -0.241 NA
HETATM   19  C21 UNL     1      21.580   5.247  50.556  1.00  0.00     0.072 A 
HETATM   20  C22 UNL     1      21.048   3.963  50.466  1.00  0.00     0.041 A 
HETATM   21  C23 UNL     1      21.711   2.766  50.563  1.00  0.00     0.009 A 
HETATM   22  H12 UNL     1      25.147   2.150  50.361  1.00  0.00     0.325 HD
ENDROOT
BRANCH  15  23
HETATM   23  N3  UNL     1      24.894   6.686  51.078  1.00  0.00    -0.340 N 
HETATM   24  H14 UNL     1      25.416   6.510  51.951  1.00  0.00     0.167 HD
BRANCH  23  25
HETATM   25  C14 UNL     1      25.905   7.040  50.147  1.00  0.00     0.035 A 
HETATM   26  C15 UNL     1      26.350   6.033  49.282  1.00  0.00     0.029 A 
HETATM   27  C16 UNL     1      27.345   6.258  48.323  1.00  0.00     0.004 A 
HETATM   28  C17 UNL     1      27.910   7.504  48.219  1.00  0.00     0.019 A 
HETATM   29  C18 UNL     1      27.498   8.511  49.049  1.00  0.00     0.013 A 
HETATM   30 BR1  UNL     1      28.167  10.317  49.035  1.00  0.00    -0.051 Br
HETATM   31  C19 UNL     1      26.519   8.288  49.992  1.00  0.00     0.048 A 
ENDBRANCH  23  25
ENDBRANCH  15  23
BRANCH   2  32
HETATM   32  N1  UNL     1      21.541   0.618  49.590  1.00  0.00     0.095 N 
HETATM   33  H4  UNL     1      22.362   1.092  49.214  1.00  0.00     0.314 HD
HETATM   34  H5  UNL     1      21.724  -0.176  50.247  1.00  0.00     0.314 HD
ENDBRANCH   2  32
TORSDOF 3
ENDMDL
MODEL 3
REMARK VINA RESULT:      -9.2      5.468      8.331
REMARK  3 active torsions:
REMARK  status: ('A' for Active; 'I' for Inactive)
REMARK    1  A    between atoms: C2_2  and  N1_3 
REMARK    2  A    between atoms: C13_16  and  N3_17 
REMARK    3  A    between atoms: N3_17  and  C14_18 
ROOT
HETATM    1  C1  UNL     1      21.768  -1.355  54.945  1.00  0.00     0.058 C 
HETATM    2  C2  UNL     1      21.172  -0.214  54.122  1.00  0.00     0.195 C 
HETATM    3  C3  UNL     1      20.127  -0.715  53.254  1.00  0.00     0.015 C 
HETATM    4  C4  UNL     1      19.162  -0.552  52.416  1.00  0.00     0.001 C 
HETATM    5  C5  UNL     1      18.100  -0.461  51.499  1.00  0.00     0.034 C 
HETATM    6  C6  UNL     1      17.706   0.803  51.043  1.00  0.00    -0.002 C 
HETATM    7  C7  UNL     1      18.044   2.264  51.144  1.00  0.00    -0.024 C 
HETATM    8  C8  UNL     1      18.813   3.213  51.548  1.00  0.00     0.038 C 
HETATM    9  C9  UNL     1      20.071   3.170  52.265  1.00  0.00     0.204 A 
HETATM   10  O1  UNL     1      20.738   2.148  52.459  1.00  0.00     0.000 OA
HETATM   11  N2  UNL     1      21.308   3.149  52.973  1.00  0.00     0.142 N 
HETATM   12  C10 UNL     1      22.116   1.931  53.088  1.00  0.00     0.252 A 
HETATM   13  C11 UNL     1      23.308   2.415  52.489  1.00  0.00     0.040 A 
HETATM   14  C12 UNL     1      24.513   1.737  52.243  1.00  0.00     0.038 A 
HETATM   15  C13 UNL     1      25.633   2.239  51.657  1.00  0.00     0.141 A 
HETATM   16  N4  UNL     1      26.661   1.398  51.520  1.00  0.00    -0.224 NA
HETATM   17  C20 UNL     1      26.689   0.123  51.902  1.00  0.00     0.236 A 
HETATM   18  N5  UNL     1      25.590  -0.383  52.481  1.00  0.00    -0.241 NA
HETATM   19  C21 UNL     1      24.500   0.415  52.655  1.00  0.00     0.072 A 
HETATM   20  C22 UNL     1      23.330  -0.059  53.242  1.00  0.00     0.041 A 
HETATM   21  C23 UNL     1      22.163   0.624  53.471  1.00  0.00     0.009 A 
HETATM   22  H12 UNL     1      21.611   4.077  53.425  1.00  0.00     0.325 HD
ENDROOT
BRANCH  15  23
HETATM   23  N3  UNL     1      25.636   3.589  51.253  1.00  0.00    -0.340 N 
HETATM   24  H14 UNL     1      26.176   4.367  51.663  1.00  0.00     0.167 HD
BRANCH  23  25
HETATM   25  C14 UNL     1      24.910   4.200  50.198  1.00  0.00     0.035 A 
HETATM   26  C15 UNL     1      25.172   5.552  49.949  1.00  0.00     0.029 A 
HETATM   27  C16 UNL     1      24.517   6.266  48.938  1.00  0.00     0.004 A 
HETATM   28  C17 UNL     1      23.586   5.628  48.158  1.00  0.00     0.019 A 
HETATM   29  C18 UNL     1      23.307   4.305  48.375  1.00  0.00     0.013 A 
HETATM   30 BR1  UNL     1      22.046   3.250  47.373  1.00  0.00    -0.051 Br
HETATM   31  C19 UNL     1      23.951   3.605  49.370  1.00  0.00     0.048 A 
ENDBRANCH  23  25
ENDBRANCH  15  23
BRANCH   2  32
HETATM   32  N1  UNL     1      20.476   0.648  55.128  1.00  0.00     0.095 N 
HETATM   33  H4  UNL     1      20.801   1.599  54.956  1.00  0.00     0.314 HD
HETATM   34  H5  UNL     1      19.454   0.473  54.983  1.00  0.00     0.314 HD
ENDBRANCH   2  32
TORSDOF 3
ENDMDL
MODEL 4
REMARK VINA RESULT:      -9.0      3.332      8.086
REMARK  3 active torsions:
REMARK  status: ('A' for Active; 'I' for Inactive)
REMARK    1  A    between atoms: C2_2  and  N1_3 
REMARK    2  A    between atoms: C13_16  and  N3_17 
REMARK    3  A    between atoms: N3_17  and  C14_18 
ROOT
HETATM    1  C1  UNL     1      30.389   9.870  47.053  1.00  0.00     0.058 C 
HETATM    2  C2  UNL     1      30.895   8.439  46.880  1.00  0.00     0.195 C 
HETATM    3  C3  UNL     1      31.323   8.221  45.513  1.00  0.00     0.015 C 
HETATM    4  C4  UNL     1      31.876   7.516  44.588  1.00  0.00     0.001 C 
HETATM    5  C5  UNL     1      32.463   6.811  43.522  1.00  0.00     0.034 C 
HETATM    6  C6  UNL     1      32.974   5.529  43.759  1.00  0.00    -0.002 C 
HETATM    7  C7  UNL     1      33.124   4.486  44.831  1.00  0.00    -0.024 C 
HETATM    8  C8  UNL     1      32.876   4.050  46.016  1.00  0.00     0.038 C 
HETATM    9  C9  UNL     1      32.051   4.601  47.073  1.00  0.00     0.204 A 
HETATM   10  O1  UNL     1      31.263   5.542  46.934  1.00  0.00     0.000 OA
HETATM   11  N2  UNL     1      31.248   5.127  48.126  1.00  0.00     0.142 N 
HETATM   12  C10 UNL     1      30.251   6.176  47.891  1.00  0.00     0.252 A 
HETATM   13  C11 UNL     1      29.104   5.480  48.352  1.00  0.00     0.040 A 
HETATM   14  C12 UNL     1      27.765   5.902  48.382  1.00  0.00     0.038 A 
HETATM   15  C13 UNL     1      26.691   5.196  48.827  1.00  0.00     0.141 A 
HETATM   16  N4  UNL     1      25.505   5.806  48.750  1.00  0.00    -0.224 NA
HETATM   17  C20 UNL     1      25.280   7.031  48.281  1.00  0.00     0.236 A 
HETATM   18  N5  UNL     1      26.332   7.736  47.839  1.00  0.00    -0.241 NA
HETATM   19  C21 UNL     1      27.575   7.181  47.886  1.00  0.00     0.072 A 
HETATM   20  C22 UNL     1      28.701   7.864  47.433  1.00  0.00     0.041 A 
HETATM   21  C23 UNL     1      30.001   7.428  47.413  1.00  0.00     0.009 A 
HETATM   22  H12 UNL     1      31.421   4.716  49.104  1.00  0.00     0.325 HD
ENDROOT
BRANCH  15  23
HETATM   23  N3  UNL     1      26.900   3.901  49.340  1.00  0.00    -0.340 N 
HETATM   24  H14 UNL     1      27.700   3.275  49.162  1.00  0.00     0.167 HD
BRANCH  23  25
HETATM   25  C14 UNL     1      26.076   3.153  50.221  1.00  0.00     0.035 A 
HETATM   26  C15 UNL     1      26.702   2.554  51.320  1.00  0.00     0.029 A 
HETATM   27  C16 UNL     1      25.996   1.788  52.256  1.00  0.00     0.004 A 
HETATM   28  C17 UNL     1      24.645   1.612  52.100  1.00  0.00     0.019 A 
HETATM   29  C18 UNL     1      24.001   2.185  51.036  1.00  0.00     0.013 A 
HETATM   30 BR1  UNL     1      22.115   2.056  50.668  1.00  0.00    -0.051 Br
HETATM   31  C19 UNL     1      24.697   2.938  50.116  1.00  0.00     0.048 A 
ENDBRANCH  23  25
ENDBRANCH  15  23
BRANCH   2  32
HETATM   32  N1  UNL     1      32.144   8.384  47.702  1.00  0.00     0.095 N 
HETATM   33  H4  UNL     1      32.609   9.281  47.568  1.00  0.00     0.314 HD
HETATM   34  H5  UNL     1      31.826   8.166  48.675  1.00  0.00     0.314 HD
ENDBRANCH   2  32
TORSDOF 3
ENDMDL
MODEL 5
REMARK VINA RESULT:      -9.0      3.979      7.682
REMARK  3 active torsions:
REMARK  status: ('A' for Active; 'I' for Inactive)
REMARK    1  A    between atoms: C2_2  and  N1_3 
REMARK    2  A    between atoms: C13_16  and  N3_17 
REMARK    3  A    between atoms: N3_17  and  C14_18 
ROOT
HETATM    1  C1  UNL     1      23.085   8.758  47.253  1.00  0.00     0.058 C 
HETATM    2  C2  UNL     1      24.554   8.389  47.452  1.00  0.00     0.195 C 
HETATM    3  C3  UNL     1      25.274   8.506  46.201  1.00  0.00     0.015 C 
HETATM    4  C4  UNL     1      26.355   8.503  45.499  1.00  0.00     0.001 C 
HETATM    5  C5  UNL     1      27.485   8.515  44.663  1.00  0.00     0.034 C 
HETATM    6  C6  UNL     1      28.744   8.268  45.225  1.00  0.00    -0.002 C 
HETATM    7  C7  UNL     1      29.424   7.922  46.520  1.00  0.00    -0.024 C 
HETATM    8  C8  UNL     1      29.370   7.585  47.761  1.00  0.00     0.038 C 
HETATM    9  C9  UNL     1      28.236   7.289  48.612  1.00  0.00     0.204 A 
HETATM   10  O1  UNL     1      27.077   7.130  48.214  1.00  0.00     0.000 OA
HETATM   11  N2  UNL     1      27.133   6.998  49.468  1.00  0.00     0.142 N 
HETATM   12  C10 UNL     1      25.796   6.714  48.939  1.00  0.00     0.252 A 
HETATM   13  C11 UNL     1      25.624   5.419  49.494  1.00  0.00     0.040 A 
HETATM   14  C12 UNL     1      24.544   4.532  49.354  1.00  0.00     0.038 A 
HETATM   15  C13 UNL     1      24.423   3.292  49.899  1.00  0.00     0.141 A 
HETATM   16  N4  UNL     1      23.300   2.626  49.619  1.00  0.00    -0.224 NA
HETATM   17  C20 UNL     1      22.297   3.060  48.861  1.00  0.00     0.236 A 
HETATM   18  N5  UNL     1      22.405   4.282  48.318  1.00  0.00    -0.241 NA
HETATM   19  C21 UNL     1      23.522   5.023  48.559  1.00  0.00     0.072 A 
HETATM   20  C22 UNL     1      23.691   6.294  48.014  1.00  0.00     0.041 A 
HETATM   21  C23 UNL     1      24.758   7.142  48.165  1.00  0.00     0.009 A 
HETATM   22  H12 UNL     1      27.337   7.007  50.523  1.00  0.00     0.325 HD
ENDROOT
BRANCH  15  23
HETATM   23  N3  UNL     1      25.465   2.810  50.716  1.00  0.00    -0.340 N 
HETATM   24  H14 UNL     1      26.403   3.220  50.848  1.00  0.00     0.167 HD
BRANCH  23  25
HETATM   25  C14 UNL     1      25.478   1.662  51.550  1.00  0.00     0.035 A 
HETATM   26  C15 UNL     1      26.697   0.986  51.678  1.00  0.00     0.029 A 
HETATM   27  C16 UNL     1      26.835  -0.162  52.468  1.00  0.00     0.004 A 
HETATM   28  C17 UNL     1      25.745  -0.649  53.144  1.00  0.00     0.019 A 
HETATM   29  C18 UNL     1      24.538  -0.011  53.041  1.00  0.00     0.013 A 
HETATM   30 BR1  UNL     1      22.913  -0.543  53.927  1.00  0.00    -0.051 Br
HETATM   31  C19 UNL     1      24.404   1.117  52.263  1.00  0.00     0.048 A 
ENDBRANCH  23  25
ENDBRANCH  15  23
BRANCH   2  32
HETATM   32  N1  UNL     1      25.097   9.476  48.326  1.00  0.00     0.095 N 
HETATM   33  H4  UNL     1      25.727  10.021  47.739  1.00  0.00     0.314 HD
HETATM   34  H5  UNL     1      24.257   9.979  48.697  1.00  0.00     0.314 HD
ENDBRANCH   2  32
TORSDOF 3
ENDMDL
MODEL 6
REMARK VINA RESULT:      -8.9      3.323      8.322
REMARK  3 active torsions:
REMARK  status: ('A' for Active; 'I' for Inactive)
REMARK    1  A    between atoms: C2_2  and  N1_3 
REMARK    2  A    between atoms: C13_16  and  N3_17 
REMARK    3  A    between atoms: N3_17  and  C14_18 
ROOT
HETATM    1  C1  UNL     1      32.173   9.499  46.803  1.00  0.00     0.058 C 
HETATM    2  C2  UNL     1      32.472   8.005  46.914  1.00  0.00     0.195 C 
HETATM    3  C3  UNL     1      33.059   7.518  45.683  1.00  0.00     0.015 C 
HETATM    4  C4  UNL     1      33.627   6.609  44.968  1.00  0.00     0.001 C 
HETATM    5  C5  UNL     1      34.248   5.672  44.124  1.00  0.00     0.034 C 
HETATM    6  C6  UNL     1      34.514   4.389  44.616  1.00  0.00    -0.002 C 
HETATM    7  C7  UNL     1      34.340   3.518  45.829  1.00  0.00    -0.024 C 
HETATM    8  C8  UNL     1      33.855   3.313  47.003  1.00  0.00     0.038 C 
HETATM    9  C9  UNL     1      32.978   4.128  47.819  1.00  0.00     0.204 A 
HETATM   10  O1  UNL     1      32.375   5.130  47.423  1.00  0.00     0.000 OA
HETATM   11  N2  UNL     1      32.118   4.915  48.640  1.00  0.00     0.142 N 
HETATM   12  C10 UNL     1      31.343   6.035  48.099  1.00  0.00     0.252 A 
HETATM   13  C11 UNL     1      30.045   5.577  48.450  1.00  0.00     0.040 A 
HETATM   14  C12 UNL     1      28.799   6.171  48.194  1.00  0.00     0.038 A 
HETATM   15  C13 UNL     1      27.575   5.692  48.543  1.00  0.00     0.141 A 
HETATM   16  N4  UNL     1      26.522   6.432  48.184  1.00  0.00    -0.224 NA
HETATM   17  C20 UNL     1      26.562   7.586  47.522  1.00  0.00     0.236 A 
HETATM   18  N5  UNL     1      27.764   8.068  47.173  1.00  0.00    -0.241 NA
HETATM   19  C21 UNL     1      28.885   7.369  47.504  1.00  0.00     0.072 A 
HETATM   20  C22 UNL     1      30.157   7.818  47.161  1.00  0.00     0.041 A 
HETATM   21  C23 UNL     1      31.363   7.217  47.421  1.00  0.00     0.009 A 
HETATM   22  H12 UNL     1      32.079   4.646  49.680  1.00  0.00     0.325 HD
ENDROOT
BRANCH  15  23
HETATM   23  N3  UNL     1      27.502   4.479  49.255  1.00  0.00    -0.340 N 
HETATM   24  H14 UNL     1      28.283   3.865  49.534  1.00  0.00     0.167 HD
BRANCH  23  25
HETATM   25  C14 UNL     1      26.354   3.815  49.760  1.00  0.00     0.035 A 
HETATM   26  C15 UNL     1      26.548   2.949  50.842  1.00  0.00     0.029 A 
HETATM   27  C16 UNL     1      25.494   2.234  51.424  1.00  0.00     0.004 A 
HETATM   28  C17 UNL     1      24.225   2.380  50.926  1.00  0.00     0.019 A 
HETATM   29  C18 UNL     1      24.000   3.220  49.868  1.00  0.00     0.013 A 
HETATM   30 BR1  UNL     1      22.290   3.558  49.051  1.00  0.00    -0.051 Br
HETATM   31  C19 UNL     1      25.038   3.922  49.296  1.00  0.00     0.048 A 
ENDBRANCH  23  25
ENDBRANCH  15  23
BRANCH   2  32
HETATM   32  N1  UNL     1      33.562   7.917  47.936  1.00  0.00     0.095 N 
HETATM   33  H4  UNL     1      33.788   8.879  48.189  1.00  0.00     0.314 HD
HETATM   34  H5  UNL     1      33.178   7.314  48.700  1.00  0.00     0.314 HD
ENDBRANCH   2  32
TORSDOF 3
ENDMDL
MODEL 7
REMARK VINA RESULT:      -8.9      3.235      5.377
REMARK  3 active torsions:
REMARK  status: ('A' for Active; 'I' for Inactive)
REMARK    1  A    between atoms: C2_2  and  N1_3 
REMARK    2  A    between atoms: C13_16  and  N3_17 
REMARK    3  A    between atoms: N3_17  and  C14_18 
ROOT
HETATM    1  C1  UNL     1      26.316   3.029  50.867  1.00  0.00     0.058 C 
HETATM    2  C2  UNL     1      25.400   3.987  50.107  1.00  0.00     0.195 C 
HETATM    3  C3  UNL     1      24.449   3.243  49.308  1.00  0.00     0.015 C 
HETATM    4  C4  UNL     1      23.415   3.161  48.544  1.00  0.00     0.001 C 
HETATM    5  C5  UNL     1      22.298   2.986  47.707  1.00  0.00     0.034 C 
HETATM    6  C6  UNL     1      21.574   4.113  47.301  1.00  0.00    -0.002 C 
HETATM    7  C7  UNL     1      21.549   5.613  47.402  1.00  0.00    -0.024 C 
HETATM    8  C8  UNL     1      22.089   6.723  47.765  1.00  0.00     0.038 C 
HETATM    9  C9  UNL     1      23.369   6.992  48.389  1.00  0.00     0.204 A 
HETATM   10  O1  UNL     1      24.278   6.166  48.518  1.00  0.00     0.000 OA
HETATM   11  N2  UNL     1      24.621   7.278  49.006  1.00  0.00     0.142 N 
HETATM   12  C10 UNL     1      25.709   6.296  49.043  1.00  0.00     0.252 A 
HETATM   13  C11 UNL     1      26.699   7.058  48.369  1.00  0.00     0.040 A 
HETATM   14  C12 UNL     1      28.012   6.697  48.025  1.00  0.00     0.038 A 
HETATM   15  C13 UNL     1      28.928   7.458  47.369  1.00  0.00     0.141 A 
HETATM   16  N4  UNL     1      30.119   6.895  47.146  1.00  0.00    -0.224 NA
HETATM   17  C20 UNL     1      30.487   5.667  47.503  1.00  0.00     0.236 A 
HETATM   18  N5  UNL     1      29.591   4.907  48.151  1.00  0.00    -0.241 NA
HETATM   19  C21 UNL     1      28.355   5.412  48.416  1.00  0.00     0.072 A 
HETATM   20  C22 UNL     1      27.384   4.666  49.078  1.00  0.00     0.041 A 
HETATM   21  C23 UNL     1      26.105   5.042  49.401  1.00  0.00     0.009 A 
HETATM   22  H12 UNL     1      24.719   8.252  49.451  1.00  0.00     0.325 HD
ENDROOT
BRANCH  15  23
HETATM   23  N3  UNL     1      28.570   8.766  46.989  1.00  0.00    -0.340 N 
HETATM   24  H14 UNL     1      28.014   9.053  46.169  1.00  0.00     0.167 HD
BRANCH  23  25
HETATM   25  C14 UNL     1      28.880   9.992  47.633  1.00  0.00     0.035 A 
HETATM   26  C15 UNL     1      30.098  10.058  48.318  1.00  0.00     0.029 A 
HETATM   27  C16 UNL     1      30.513  11.210  48.996  1.00  0.00     0.004 A 
HETATM   28  C17 UNL     1      29.705  12.319  48.996  1.00  0.00     0.019 A 
HETATM   29  C18 UNL     1      28.506  12.289  48.335  1.00  0.00     0.013 A 
HETATM   30 BR1  UNL     1      27.257  13.749  48.217  1.00  0.00    -0.051 Br
HETATM   31  C19 UNL     1      28.100  11.153  47.669  1.00  0.00     0.048 A 
ENDBRANCH  23  25
ENDBRANCH  15  23
BRANCH   2  32
HETATM   32  N1  UNL     1      24.589   4.653  51.174  1.00  0.00     0.095 N 
HETATM   33  H4  UNL     1      23.732   4.107  51.258  1.00  0.00     0.314 HD
HETATM   34  H5  UNL     1      25.208   4.678  52.018  1.00  0.00     0.314 HD
ENDBRANCH   2  32
TORSDOF 3
ENDMDL
MODEL 8
REMARK VINA RESULT:      -8.8      3.855      8.283
REMARK  3 active torsions:
REMARK  status: ('A' for Active; 'I' for Inactive)
REMARK    1  A    between atoms: C2_2  and  N1_3 
REMARK    2  A    between atoms: C13_16  and  N3_17 
REMARK    3  A    between atoms: N3_17  and  C14_18 
ROOT
HETATM    1  C1  UNL     1      29.037  12.796  48.608  1.00  0.00     0.058 C 
HETATM    2  C2  UNL     1      29.977  11.592  48.585  1.00  0.00     0.195 C 
HETATM    3  C3  UNL     1      31.000  11.774  47.576  1.00  0.00     0.015 C 
HETATM    4  C4  UNL     1      32.086  11.430  46.974  1.00  0.00     0.001 C 
HETATM    5  C5  UNL     1      33.261  11.123  46.266  1.00  0.00     0.034 C 
HETATM    6  C6  UNL     1      33.981   9.974  46.615  1.00  0.00    -0.002 C 
HETATM    7  C7  UNL     1      33.959   8.790  47.542  1.00  0.00    -0.024 C 
HETATM    8  C8  UNL     1      33.366   8.067  48.426  1.00  0.00     0.038 C 
HETATM    9  C9  UNL     1      32.040   8.175  49.000  1.00  0.00     0.204 A 
HETATM   10  O1  UNL     1      31.146   8.915  48.578  1.00  0.00     0.000 OA
HETATM   11  N2  UNL     1      30.741   8.264  49.580  1.00  0.00     0.142 N 
HETATM   12  C10 UNL     1      29.680   9.079  48.982  1.00  0.00     0.252 A 
HETATM   13  C11 UNL     1      28.718   8.055  48.783  1.00  0.00     0.040 A 
HETATM   14  C12 UNL     1      27.441   8.139  48.203  1.00  0.00     0.038 A 
HETATM   15  C13 UNL     1      26.552   7.126  48.024  1.00  0.00     0.141 A 
HETATM   16  N4  UNL     1      25.395   7.447  47.439  1.00  0.00    -0.224 NA
HETATM   17  C20 UNL     1      25.036   8.657  47.019  1.00  0.00     0.236 A 
HETATM   18  N5  UNL     1      25.906   9.664  47.190  1.00  0.00    -0.241 NA
HETATM   19  C21 UNL     1      27.107   9.415  47.780  1.00  0.00     0.072 A 
HETATM   20  C22 UNL     1      28.051  10.420  47.976  1.00  0.00     0.041 A 
HETATM   21  C23 UNL     1      29.294  10.312  48.545  1.00  0.00     0.009 A 
HETATM   22  H12 UNL     1      30.587   7.707  50.486  1.00  0.00     0.325 HD
ENDROOT
BRANCH  15  23
HETATM   23  N3  UNL     1      26.900   5.836  48.470  1.00  0.00    -0.340 N 
HETATM   24  H14 UNL     1      27.735   5.285  48.215  1.00  0.00     0.167 HD
BRANCH  23  25
HETATM   25  C14 UNL     1      26.200   4.991  49.370  1.00  0.00     0.035 A 
HETATM   26  C15 UNL     1      26.698   3.694  49.539  1.00  0.00     0.029 A 
HETATM   27  C16 UNL     1      26.093   2.767  50.396  1.00  0.00     0.004 A 
HETATM   28  C17 UNL     1      24.973   3.132  51.099  1.00  0.00     0.019 A 
HETATM   29  C18 UNL     1      24.460   4.393  50.958  1.00  0.00     0.013 A 
HETATM   30 BR1  UNL     1      22.912   5.080  51.873  1.00  0.00    -0.051 Br
HETATM   31  C19 UNL     1      25.057   5.304  50.114  1.00  0.00     0.048 A 
ENDBRANCH  23  25
ENDBRANCH  15  23
BRANCH   2  32
HETATM   32  N1  UNL     1      30.695  11.654  49.896  1.00  0.00     0.095 N 
HETATM   33  H4  UNL     1      31.045  12.607  49.981  1.00  0.00     0.314 HD
HETATM   34  H5  UNL     1      29.993  11.352  50.612  1.00  0.00     0.314 HD
ENDBRANCH   2  32
TORSDOF 3
ENDMDL
MODEL 9
REMARK VINA RESULT:      -8.8      3.888      6.240
REMARK  3 active torsions:
REMARK  status: ('A' for Active; 'I' for Inactive)
REMARK    1  A    between atoms: C2_2  and  N1_3 
REMARK    2  A    between atoms: C13_16  and  N3_17 
REMARK    3  A    between atoms: N3_17  and  C14_18 
ROOT
HETATM    1  C1  UNL     1      26.430   3.304  49.407  1.00  0.00     0.058 C 
HETATM    2  C2  UNL     1      25.447   4.441  49.682  1.00  0.00     0.195 C 
HETATM    3  C3  UNL     1      24.234   4.251  48.915  1.00  0.00     0.015 C 
HETATM    4  C4  UNL     1      23.023   4.556  48.596  1.00  0.00     0.001 C 
HETATM    5  C5  UNL     1      21.704   4.825  48.191  1.00  0.00     0.034 C 
HETATM    6  C6  UNL     1      21.022   5.899  48.776  1.00  0.00    -0.002 C 
HETATM    7  C7  UNL     1      21.191   7.024  49.759  1.00  0.00    -0.024 C 
HETATM    8  C8  UNL     1      21.929   7.731  50.541  1.00  0.00     0.038 C 
HETATM    9  C9  UNL     1      23.355   7.680  50.797  1.00  0.00     0.204 A 
HETATM   10  O1  UNL     1      24.168   7.028  50.133  1.00  0.00     0.000 OA
HETATM   11  N2  UNL     1      24.754   7.644  51.065  1.00  0.00     0.142 N 
HETATM   12  C10 UNL     1      25.694   6.940  50.188  1.00  0.00     0.252 A 
HETATM   13  C11 UNL     1      26.530   8.038  49.857  1.00  0.00     0.040 A 
HETATM   14  C12 UNL     1      27.645   8.075  49.004  1.00  0.00     0.038 A 
HETATM   15  C13 UNL     1      28.416   9.155  48.707  1.00  0.00     0.141 A 
HETATM   16  N4  UNL     1      29.426   8.949  47.857  1.00  0.00    -0.224 NA
HETATM   17  C20 UNL     1      29.744   7.793  47.280  1.00  0.00     0.236 A 
HETATM   18  N5  UNL     1      28.990   6.721  47.565  1.00  0.00    -0.241 NA
HETATM   19  C21 UNL     1      27.942   6.852  48.424  1.00  0.00     0.072 A 
HETATM   20  C22 UNL     1      27.121   5.776  48.749  1.00  0.00     0.041 A 
HETATM   21  C23 UNL     1      26.035   5.765  49.586  1.00  0.00     0.009 A 
HETATM   22  H12 UNL     1      25.079   8.155  51.954  1.00  0.00     0.325 HD
ENDROOT
BRANCH  15  23
HETATM   23  N3  UNL     1      28.111  10.389  49.313  1.00  0.00    -0.340 N 
HETATM   24  H14 UNL     1      28.328  10.688  50.276  1.00  0.00     0.167 HD
BRANCH  23  25
HETATM   25  C14 UNL     1      27.443  11.509  48.754  1.00  0.00     0.035 A 
HETATM   26  C15 UNL     1      28.175  12.697  48.650  1.00  0.00     0.029 A 
HETATM   27  C16 UNL     1      27.626  13.871  48.120  1.00  0.00     0.004 A 
HETATM   28  C17 UNL     1      26.325  13.867  47.684  1.00  0.00     0.019 A 
HETATM   29  C18 UNL     1      25.580  12.722  47.771  1.00  0.00     0.013 A 
HETATM   30 BR1  UNL     1      23.752  12.530  47.198  1.00  0.00    -0.051 Br
HETATM   31  C19 UNL     1      26.123  11.569  48.293  1.00  0.00     0.048 A 
ENDBRANCH  23  25
ENDBRANCH  15  23
BRANCH   2  32
HETATM   32  N1  UNL     1      25.048   4.252  51.112  1.00  0.00     0.095 N 
HETATM   33  H4  UNL     1      25.631   3.496  51.469  1.00  0.00     0.314 HD
HETATM   34  H5  UNL     1      25.176   5.189  51.562  1.00  0.00     0.314 HD
ENDBRANCH   2  32
TORSDOF 3
ENDMDL
