MODEL 1
REMARK VINA RESULT:      -7.6      0.000      0.000
REMARK  3 active torsions:
REMARK  status: ('A' for Active; 'I' for Inactive)
REMARK       I    between atoms: C3_3  and  N1_5 
REMARK    1  A    between atoms: N1_5  and  C4_6 
REMARK    2  A    between atoms: C5_7  and  C6_8 
REMARK    3  A    between atoms: C6_8  and  C7_9 
ROOT
HETATM    1  C1  UNL     1      30.165  -0.893  53.701  1.00  0.00     0.022 C 
HETATM    2  C2  UNL     1      28.986  -0.882  53.458  1.00  0.00    -0.016 C 
HETATM    3  C3  UNL     1      27.585  -0.857  53.190  1.00  0.00     0.299 C 
HETATM    4  O1  UNL     1      26.963  -1.972  53.301  1.00  0.00    -0.258 OA
HETATM    5  N1  UNL     1      26.841   0.311  52.808  1.00  0.00    -0.327 N 
HETATM    6  H2  UNL     1      27.506   1.143  52.768  1.00  0.00     0.169 HD
ENDROOT
BRANCH   5   7
HETATM    7  C4  UNL     1      25.460   0.450  52.517  1.00  0.00     0.088 C 
HETATM    8  C5  UNL     1      24.519   0.461  53.450  1.00  0.00     0.002 C 
BRANCH   8   9
HETATM    9  C6  UNL     1      23.310   0.614  52.728  1.00  0.00     0.073 C 
BRANCH   9  10
HETATM   10  C7  UNL     1      22.302   0.972  51.921  1.00  0.00     0.052 C 
HETATM   11  N2  UNL     1      22.136   1.004  50.459  1.00  0.00    -0.247 NA
HETATM   12  C8  UNL     1      20.988   0.822  49.817  1.00  0.00     0.235 C 
HETATM   13  N3  UNL     1      19.587   0.988  50.261  1.00  0.00    -0.228 NA
HETATM   14  C9  UNL     1      19.411   1.576  51.480  1.00  0.00     0.113 C 
HETATM   15  C10 UNL     1      20.235   2.563  52.362  1.00  0.00     0.190 C 
HETATM   16  N4  UNL     1      18.210   0.701  51.442  1.00  0.00    -0.354 N 
HETATM   17  C11 UNL     1      21.088   1.472  52.798  1.00  0.00     0.094 C 
HETATM   18  O2  UNL     1      20.982   0.680  54.052  1.00  0.00    -0.375 OA
HETATM   19  C12 UNL     1      20.858  -0.732  53.713  1.00  0.00     0.196 C 
HETATM   20  C13 UNL     1      19.418  -1.093  53.460  1.00  0.00    -0.001 C 
HETATM   21  C14 UNL     1      18.161  -1.503  53.339  1.00  0.00    -0.001 C 
HETATM   22  C15 UNL     1      17.082  -1.019  52.414  1.00  0.00     0.017 C 
HETATM   23  C16 UNL     1      17.061  -0.015  51.516  1.00  0.00     0.089 C 
HETATM   24  H14 UNL     1      17.962   1.398  52.176  1.00  0.00     0.166 HD
ENDBRANCH   9  10
ENDBRANCH   8   9
ENDBRANCH   5   7
TORSDOF 3
ENDMDL
MODEL 2
REMARK VINA RESULT:      -7.3      2.538      7.391
REMARK  3 active torsions:
REMARK  status: ('A' for Active; 'I' for Inactive)
REMARK       I    between atoms: C3_3  and  N1_5 
REMARK    1  A    between atoms: N1_5  and  C4_6 
REMARK    2  A    between atoms: C5_7  and  C6_8 
REMARK    3  A    between atoms: C6_8  and  C7_9 
ROOT
HETATM    1  C1  UNL     1      16.176  -1.015  52.753  1.00  0.00     0.022 C 
HETATM    2  C2  UNL     1      17.350  -0.786  52.625  1.00  0.00    -0.016 C 
HETATM    3  C3  UNL     1      18.740  -0.494  52.484  1.00  0.00     0.299 C 
HETATM    4  O1  UNL     1      19.136  -0.153  51.314  1.00  0.00    -0.258 OA
HETATM    5  N1  UNL     1      19.706  -0.559  53.546  1.00  0.00    -0.327 N 
HETATM    6  H2  UNL     1      19.209  -0.851  54.443  1.00  0.00     0.169 HD
ENDROOT
BRANCH   5   7
HETATM    7  C4  UNL     1      21.099  -0.297  53.520  1.00  0.00     0.088 C 
HETATM    8  C5  UNL     1      22.007  -1.225  53.258  1.00  0.00     0.002 C 
BRANCH   8   9
HETATM    9  C6  UNL     1      23.244  -0.539  53.339  1.00  0.00     0.073 C 
BRANCH   9  10
HETATM   10  C7  UNL     1      24.452   0.012  53.155  1.00  0.00     0.052 C 
HETATM   11  N2  UNL     1      25.799  -0.544  52.954  1.00  0.00    -0.247 NA
HETATM   12  C8  UNL     1      26.762   0.027  52.241  1.00  0.00     0.235 C 
HETATM   13  N3  UNL     1      26.983   1.439  51.858  1.00  0.00    -0.228 NA
HETATM   14  C9  UNL     1      26.163   2.355  52.450  1.00  0.00     0.113 C 
HETATM   15  C10 UNL     1      25.353   2.418  53.781  1.00  0.00     0.190 C 
HETATM   16  N4  UNL     1      26.421   3.041  51.157  1.00  0.00    -0.354 N 
HETATM   17  C11 UNL     1      24.317   1.584  53.198  1.00  0.00     0.094 C 
HETATM   18  O2  UNL     1      23.039   2.022  52.577  1.00  0.00    -0.375 OA
HETATM   19  C12 UNL     1      22.974   1.511  51.214  1.00  0.00     0.196 C 
HETATM   20  C13 UNL     1      23.664   2.453  50.262  1.00  0.00    -0.001 C 
HETATM   21  C14 UNL     1      24.151   3.293  49.356  1.00  0.00    -0.001 C 
HETATM   22  C15 UNL     1      25.526   3.884  49.242  1.00  0.00     0.017 C 
HETATM   23  C16 UNL     1      26.608   3.789  50.041  1.00  0.00     0.089 C 
HETATM   24  H14 UNL     1      26.084   3.817  51.764  1.00  0.00     0.166 HD
ENDBRANCH   9  10
ENDBRANCH   8   9
ENDBRANCH   5   7
TORSDOF 3
ENDMDL
MODEL 3
REMARK VINA RESULT:      -6.7      4.496      5.677
REMARK  3 active torsions:
REMARK  status: ('A' for Active; 'I' for Inactive)
REMARK       I    between atoms: C3_3  and  N1_5 
REMARK    1  A    between atoms: N1_5  and  C4_6 
REMARK    2  A    between atoms: C5_7  and  C6_8 
REMARK    3  A    between atoms: C6_8  and  C7_9 
ROOT
HETATM    1  C1  UNL     1      29.656   6.916  47.726  1.00  0.00     0.022 C 
HETATM    2  C2  UNL     1      28.710   6.263  48.081  1.00  0.00    -0.016 C 
HETATM    3  C3  UNL     1      27.588   5.500  48.523  1.00  0.00     0.299 C 
HETATM    4  O1  UNL     1      27.813   4.271  48.812  1.00  0.00    -0.258 OA
HETATM    5  N1  UNL     1      26.250   6.006  48.658  1.00  0.00    -0.327 N 
HETATM    6  H2  UNL     1      26.245   7.036  48.382  1.00  0.00     0.169 HD
ENDROOT
BRANCH   5   7
HETATM    7  C4  UNL     1      25.070   5.343  49.080  1.00  0.00     0.088 C 
HETATM    8  C5  UNL     1      24.167   5.904  49.870  1.00  0.00     0.002 C 
BRANCH   8   9
HETATM    9  C6  UNL     1      23.176   4.905  50.035  1.00  0.00     0.073 C 
BRANCH   9  10
HETATM   10  C7  UNL     1      22.446   3.785  50.118  1.00  0.00     0.052 C 
HETATM   11  N2  UNL     1      21.930   2.835  49.119  1.00  0.00    -0.247 NA
HETATM   12  C8  UNL     1      21.740   1.537  49.326  1.00  0.00     0.235 C 
HETATM   13  N3  UNL     1      21.533   0.771  50.573  1.00  0.00    -0.228 NA
HETATM   14  C9  UNL     1      21.343   1.508  51.706  1.00  0.00     0.113 C 
HETATM   15  C10 UNL     1      20.808   2.940  52.016  1.00  0.00     0.190 C 
HETATM   16  N4  UNL     1      21.987   0.304  52.291  1.00  0.00    -0.354 N 
HETATM   17  C11 UNL     1      22.088   3.509  51.631  1.00  0.00     0.094 C 
HETATM   18  O2  UNL     1      23.214   3.901  52.519  1.00  0.00    -0.375 OA
HETATM   19  C12 UNL     1      24.415   3.185  52.109  1.00  0.00     0.196 C 
HETATM   20  C13 UNL     1      24.475   1.831  52.766  1.00  0.00    -0.001 C 
HETATM   21  C14 UNL     1      24.650   0.678  53.401  1.00  0.00    -0.001 C 
HETATM   22  C15 UNL     1      23.755  -0.526  53.458  1.00  0.00     0.017 C 
HETATM   23  C16 UNL     1      22.525  -0.749  52.955  1.00  0.00     0.089 C 
HETATM   24  H14 UNL     1      21.531   0.744  53.118  1.00  0.00     0.166 HD
ENDBRANCH   9  10
ENDBRANCH   8   9
ENDBRANCH   5   7
TORSDOF 3
ENDMDL
MODEL 4
REMARK VINA RESULT:      -6.6     10.782     13.169
REMARK  3 active torsions:
REMARK  status: ('A' for Active; 'I' for Inactive)
REMARK       I    between atoms: C3_3  and  N1_5 
REMARK    1  A    between atoms: N1_5  and  C4_6 
REMARK    2  A    between atoms: C5_7  and  C6_8 
REMARK    3  A    between atoms: C6_8  and  C7_9 
ROOT
HETATM    1  C1  UNL     1      33.741   3.062  40.261  1.00  0.00     0.022 C 
HETATM    2  C2  UNL     1      33.484   3.820  41.159  1.00  0.00    -0.016 C 
HETATM    3  C3  UNL     1      33.157   4.708  42.227  1.00  0.00     0.299 C 
HETATM    4  O1  UNL     1      32.841   5.905  41.897  1.00  0.00    -0.258 OA
HETATM    5  N1  UNL     1      33.165   4.357  43.620  1.00  0.00    -0.327 N 
HETATM    6  H2  UNL     1      33.444   3.332  43.714  1.00  0.00     0.169 HD
ENDROOT
BRANCH   5   7
HETATM    7  C4  UNL     1      32.865   5.151  44.756  1.00  0.00     0.088 C 
HETATM    8  C5  UNL     1      33.101   4.759  45.999  1.00  0.00     0.002 C 
BRANCH   8   9
HETATM    9  C6  UNL     1      32.654   5.838  46.799  1.00  0.00     0.073 C 
BRANCH   9  10
HETATM   10  C7  UNL     1      32.247   7.006  47.317  1.00  0.00     0.052 C 
HETATM   11  N2  UNL     1      32.284   8.395  46.834  1.00  0.00    -0.247 NA
HETATM   12  C8  UNL     1      31.391   9.331  47.132  1.00  0.00     0.235 C 
HETATM   13  N3  UNL     1      30.453   9.455  48.270  1.00  0.00    -0.228 NA
HETATM   14  C9  UNL     1      30.617   8.554  49.282  1.00  0.00     0.113 C 
HETATM   15  C10 UNL     1      31.809   7.709  49.828  1.00  0.00     0.190 C 
HETATM   16  N4  UNL     1      29.154   8.793  49.387  1.00  0.00    -0.354 N 
HETATM   17  C11 UNL     1      31.634   6.753  48.749  1.00  0.00     0.094 C 
HETATM   18  O2  UNL     1      30.897   5.462  48.788  1.00  0.00    -0.375 OA
HETATM   19  C12 UNL     1      29.870   5.469  47.754  1.00  0.00     0.196 C 
HETATM   20  C13 UNL     1      28.607   6.111  48.267  1.00  0.00    -0.001 C 
HETATM   21  C14 UNL     1      27.430   6.556  48.689  1.00  0.00    -0.001 C 
HETATM   22  C15 UNL     1      27.069   7.886  49.286  1.00  0.00     0.017 C 
HETATM   23  C16 UNL     1      27.827   8.951  49.616  1.00  0.00     0.089 C 
HETATM   24  H14 UNL     1      29.386   8.384  50.316  1.00  0.00     0.166 HD
ENDBRANCH   9  10
ENDBRANCH   8   9
ENDBRANCH   5   7
TORSDOF 3
ENDMDL
MODEL 5
REMARK VINA RESULT:      -6.3      3.653      7.506
REMARK  3 active torsions:
REMARK  status: ('A' for Active; 'I' for Inactive)
REMARK       I    between atoms: C3_3  and  N1_5 
REMARK    1  A    between atoms: N1_5  and  C4_6 
REMARK    2  A    between atoms: C5_7  and  C6_8 
REMARK    3  A    between atoms: C6_8  and  C7_9 
ROOT
HETATM    1  C1  UNL     1      17.753  -2.385  53.530  1.00  0.00     0.022 C 
HETATM    2  C2  UNL     1      18.515  -1.477  53.322  1.00  0.00    -0.016 C 
HETATM    3  C3  UNL     1      19.422  -0.409  53.054  1.00  0.00     0.299 C 
HETATM    4  O1  UNL     1      20.539  -0.439  53.682  1.00  0.00    -0.258 OA
HETATM    5  N1  UNL     1      19.170   0.678  52.149  1.00  0.00    -0.327 N 
HETATM    6  H2  UNL     1      18.205   0.544  51.715  1.00  0.00     0.169 HD
ENDROOT
BRANCH   5   7
HETATM    7  C4  UNL     1      19.990   1.784  51.811  1.00  0.00     0.088 C 
HETATM    8  C5  UNL     1      19.991   2.921  52.492  1.00  0.00     0.002 C 
BRANCH   8   9
HETATM    9  C6  UNL     1      20.936   3.732  51.819  1.00  0.00     0.073 C 
BRANCH   9  10
HETATM   10  C7  UNL     1      21.603   4.635  51.086  1.00  0.00     0.052 C 
HETATM   11  N2  UNL     1      21.833   6.082  51.225  1.00  0.00    -0.247 NA
HETATM   12  C8  UNL     1      22.916   6.726  50.806  1.00  0.00     0.235 C 
HETATM   13  N3  UNL     1      23.913   6.383  49.770  1.00  0.00    -0.228 NA
HETATM   14  C9  UNL     1      23.616   5.307  48.985  1.00  0.00     0.113 C 
HETATM   15  C10 UNL     1      22.303   4.595  48.536  1.00  0.00     0.190 C 
HETATM   16  N4  UNL     1      25.100   5.229  48.973  1.00  0.00    -0.354 N 
HETATM   17  C11 UNL     1      22.220   3.922  49.820  1.00  0.00     0.094 C 
HETATM   18  O2  UNL     1      22.672   2.546  50.157  1.00  0.00    -0.375 OA
HETATM   19  C12 UNL     1      23.626   2.615  51.257  1.00  0.00     0.196 C 
HETATM   20  C13 UNL     1      25.018   2.856  50.737  1.00  0.00    -0.001 C 
HETATM   21  C14 UNL     1      26.282   2.950  50.341  1.00  0.00    -0.001 C 
HETATM   22  C15 UNL     1      26.942   3.996  49.489  1.00  0.00     0.017 C 
HETATM   23  C16 UNL     1      26.440   5.070  48.846  1.00  0.00     0.089 C 
HETATM   24  H14 UNL     1      24.834   4.653  48.146  1.00  0.00     0.166 HD
ENDBRANCH   9  10
ENDBRANCH   8   9
ENDBRANCH   5   7
TORSDOF 3
ENDMDL
MODEL 6
REMARK VINA RESULT:      -6.3      3.428      8.151
REMARK  3 active torsions:
REMARK  status: ('A' for Active; 'I' for Inactive)
REMARK       I    between atoms: C3_3  and  N1_5 
REMARK    1  A    between atoms: N1_5  and  C4_6 
REMARK    2  A    between atoms: C5_7  and  C6_8 
REMARK    3  A    between atoms: C6_8  and  C7_9 
ROOT
HETATM    1  C1  UNL     1      12.492   4.420  52.621  1.00  0.00     0.022 C 
HETATM    2  C2  UNL     1      13.614   3.992  52.533  1.00  0.00    -0.016 C 
HETATM    3  C3  UNL     1      14.941   3.485  52.404  1.00  0.00     0.299 C 
HETATM    4  O1  UNL     1      15.115   2.255  52.720  1.00  0.00    -0.258 OA
HETATM    5  N1  UNL     1      16.074   4.247  51.957  1.00  0.00    -0.327 N 
HETATM    6  H2  UNL     1      15.752   5.239  51.734  1.00  0.00     0.169 HD
ENDROOT
BRANCH   5   7
HETATM    7  C4  UNL     1      17.425   3.851  51.795  1.00  0.00     0.088 C 
HETATM    8  C5  UNL     1      18.093   3.996  50.661  1.00  0.00     0.002 C 
BRANCH   8   9
HETATM    9  C6  UNL     1      19.380   3.475  50.942  1.00  0.00     0.073 C 
BRANCH   9  10
HETATM   10  C7  UNL     1      20.685   3.241  51.140  1.00  0.00     0.052 C 
HETATM   11  N2  UNL     1      21.805   4.076  51.601  1.00  0.00    -0.247 NA
HETATM   12  C8  UNL     1      22.857   3.636  52.282  1.00  0.00     0.235 C 
HETATM   13  N3  UNL     1      23.453   2.286  52.386  1.00  0.00    -0.228 NA
HETATM   14  C9  UNL     1      22.959   1.345  51.529  1.00  0.00     0.113 C 
HETATM   15  C10 UNL     1      22.267   1.377  50.132  1.00  0.00     0.190 C 
HETATM   16  N4  UNL     1      23.340   0.475  52.671  1.00  0.00    -0.354 N 
HETATM   17  C11 UNL     1      21.008   1.744  50.756  1.00  0.00     0.094 C 
HETATM   18  O2  UNL     1      19.881   0.849  51.127  1.00  0.00    -0.375 OA
HETATM   19  C12 UNL     1      19.607   0.994  52.551  1.00  0.00     0.196 C 
HETATM   20  C13 UNL     1      20.490   0.079  53.357  1.00  0.00    -0.001 C 
HETATM   21  C14 UNL     1      21.153  -0.785  54.117  1.00  0.00    -0.001 C 
HETATM   22  C15 UNL     1      22.633  -0.995  54.258  1.00  0.00     0.017 C 
HETATM   23  C16 UNL     1      23.679  -0.432  53.621  1.00  0.00     0.089 C 
HETATM   24  H14 UNL     1      23.269  -0.202  51.882  1.00  0.00     0.166 HD
ENDBRANCH   9  10
ENDBRANCH   8   9
ENDBRANCH   5   7
TORSDOF 3
ENDMDL
MODEL 7
REMARK VINA RESULT:      -6.3      1.732      2.059
REMARK  3 active torsions:
REMARK  status: ('A' for Active; 'I' for Inactive)
REMARK       I    between atoms: C3_3  and  N1_5 
REMARK    1  A    between atoms: N1_5  and  C4_6 
REMARK    2  A    between atoms: C5_7  and  C6_8 
REMARK    3  A    between atoms: C6_8  and  C7_9 
ROOT
HETATM    1  C1  UNL     1      28.290  -0.391  54.026  1.00  0.00     0.022 C 
HETATM    2  C2  UNL     1      27.208  -0.087  53.596  1.00  0.00    -0.016 C 
HETATM    3  C3  UNL     1      25.920   0.286  53.107  1.00  0.00     0.299 C 
HETATM    4  O1  UNL     1      25.044  -0.647  53.038  1.00  0.00    -0.258 OA
HETATM    5  N1  UNL     1      25.550   1.611  52.692  1.00  0.00    -0.327 N 
HETATM    6  H2  UNL     1      26.389   2.256  52.818  1.00  0.00     0.169 HD
ENDROOT
BRANCH   5   7
HETATM    7  C4  UNL     1      24.313   2.090  52.191  1.00  0.00     0.088 C 
HETATM    8  C5  UNL     1      23.721   3.184  52.647  1.00  0.00     0.002 C 
BRANCH   8   9
HETATM    9  C6  UNL     1      22.533   3.285  51.882  1.00  0.00     0.073 C 
BRANCH   9  10
HETATM   10  C7  UNL     1      21.540   3.200  50.986  1.00  0.00     0.052 C 
HETATM   11  N2  UNL     1      21.506   3.077  49.520  1.00  0.00    -0.247 NA
HETATM   12  C8  UNL     1      20.562   2.449  48.828  1.00  0.00     0.235 C 
HETATM   13  N3  UNL     1      19.161   2.122  49.169  1.00  0.00    -0.228 NA
HETATM   14  C9  UNL     1      18.676   2.682  50.315  1.00  0.00     0.113 C 
HETATM   15  C10 UNL     1      19.011   3.956  51.151  1.00  0.00     0.190 C 
HETATM   16  N4  UNL     1      17.876   1.430  50.285  1.00  0.00    -0.354 N 
HETATM   17  C11 UNL     1      20.154   3.279  51.738  1.00  0.00     0.094 C 
HETATM   18  O2  UNL     1      20.225   2.584  53.050  1.00  0.00    -0.375 OA
HETATM   19  C12 UNL     1      20.646   1.205  52.835  1.00  0.00     0.196 C 
HETATM   20  C13 UNL     1      19.458   0.331  52.529  1.00  0.00    -0.001 C 
HETATM   21  C14 UNL     1      18.447  -0.515  52.371  1.00  0.00    -0.001 C 
HETATM   22  C15 UNL     1      17.355  -0.517  51.340  1.00  0.00     0.017 C 
HETATM   23  C16 UNL     1      17.057   0.352  50.354  1.00  0.00     0.089 C 
HETATM   24  H14 UNL     1      17.330   2.035  50.935  1.00  0.00     0.166 HD
ENDBRANCH   9  10
ENDBRANCH   8   9
ENDBRANCH   5   7
TORSDOF 3
ENDMDL
MODEL 8
REMARK VINA RESULT:      -6.2      2.725      4.215
REMARK  3 active torsions:
REMARK  status: ('A' for Active; 'I' for Inactive)
REMARK       I    between atoms: C3_3  and  N1_5 
REMARK    1  A    between atoms: N1_5  and  C4_6 
REMARK    2  A    between atoms: C5_7  and  C6_8 
REMARK    3  A    between atoms: C6_8  and  C7_9 
ROOT
HETATM    1  C1  UNL     1      29.122  -0.143  54.575  1.00  0.00     0.022 C 
HETATM    2  C2  UNL     1      27.966   0.100  54.346  1.00  0.00    -0.016 C 
HETATM    3  C3  UNL     1      26.597   0.409  54.087  1.00  0.00     0.299 C 
HETATM    4  O1  UNL     1      25.727  -0.266  54.742  1.00  0.00    -0.258 OA
HETATM    5  N1  UNL     1      26.140   1.404  53.157  1.00  0.00    -0.327 N 
HETATM    6  H2  UNL     1      26.988   1.868  52.708  1.00  0.00     0.169 HD
ENDROOT
BRANCH   5   7
HETATM    7  C4  UNL     1      24.818   1.789  52.820  1.00  0.00     0.088 C 
HETATM    8  C5  UNL     1      24.336   3.002  53.045  1.00  0.00     0.002 C 
BRANCH   8   9
HETATM    9  C6  UNL     1      23.004   2.946  52.566  1.00  0.00     0.073 C 
BRANCH   9  10
HETATM   10  C7  UNL     1      21.810   2.626  52.048  1.00  0.00     0.052 C 
HETATM   11  N2  UNL     1      20.423   2.876  52.470  1.00  0.00    -0.247 NA
HETATM   12  C8  UNL     1      19.390   3.027  51.650  1.00  0.00     0.235 C 
HETATM   13  N3  UNL     1      19.181   2.579  50.256  1.00  0.00    -0.228 NA
HETATM   14  C9  UNL     1      20.125   1.732  49.751  1.00  0.00     0.113 C 
HETATM   15  C10 UNL     1      21.130   0.707  50.360  1.00  0.00     0.190 C 
HETATM   16  N4  UNL     1      19.705   2.420  48.502  1.00  0.00    -0.354 N 
HETATM   17  C11 UNL     1      22.024   1.791  50.725  1.00  0.00     0.094 C 
HETATM   18  O2  UNL     1      23.212   2.283  49.978  1.00  0.00    -0.375 OA
HETATM   19  C12 UNL     1      23.044   3.703  49.699  1.00  0.00     0.196 C 
HETATM   20  C13 UNL     1      22.262   3.905  48.427  1.00  0.00    -0.001 C 
HETATM   21  C14 UNL     1      21.683   4.153  47.258  1.00  0.00    -0.001 C 
HETATM   22  C15 UNL     1      20.336   3.727  46.750  1.00  0.00     0.017 C 
HETATM   23  C16 UNL     1      19.386   2.938  47.290  1.00  0.00     0.089 C 
HETATM   24  H14 UNL     1      20.168   1.558  48.144  1.00  0.00     0.166 HD
ENDBRANCH   9  10
ENDBRANCH   8   9
ENDBRANCH   5   7
TORSDOF 3
ENDMDL
MODEL 9
REMARK VINA RESULT:      -6.0      3.707      8.787
REMARK  3 active torsions:
REMARK  status: ('A' for Active; 'I' for Inactive)
REMARK       I    between atoms: C3_3  and  N1_5 
REMARK    1  A    between atoms: N1_5  and  C4_6 
REMARK    2  A    between atoms: C5_7  and  C6_8 
REMARK    3  A    between atoms: C6_8  and  C7_9 
ROOT
HETATM    1  C1  UNL     1      12.150   4.687  54.132  1.00  0.00     0.022 C 
HETATM    2  C2  UNL     1      13.055   4.079  53.624  1.00  0.00    -0.016 C 
HETATM    3  C3  UNL     1      14.123   3.367  53.000  1.00  0.00     0.299 C 
HETATM    4  O1  UNL     1      13.963   2.103  52.865  1.00  0.00    -0.258 OA
HETATM    5  N1  UNL     1      15.343   3.962  52.528  1.00  0.00    -0.327 N 
HETATM    6  H2  UNL     1      15.307   5.011  52.715  1.00  0.00     0.169 HD
ENDROOT
BRANCH   5   7
HETATM    7  C4  UNL     1      16.462   3.356  51.902  1.00  0.00     0.088 C 
HETATM    8  C5  UNL     1      17.155   3.938  50.934  1.00  0.00     0.002 C 
BRANCH   8   9
HETATM    9  C6  UNL     1      18.161   2.997  50.608  1.00  0.00     0.073 C 
BRANCH   9  10
HETATM   10  C7  UNL     1      19.238   2.326  50.175  1.00  0.00     0.052 C 
HETATM   11  N2  UNL     1      19.780   2.034  48.839  1.00  0.00    -0.247 NA
HETATM   12  C8  UNL     1      21.068   1.885  48.553  1.00  0.00     0.235 C 
HETATM   13  N3  UNL     1      22.219   1.520  49.408  1.00  0.00    -0.228 NA
HETATM   14  C9  UNL     1      21.918   1.107  50.674  1.00  0.00     0.113 C 
HETATM   15  C10 UNL     1      20.680   0.450  51.358  1.00  0.00     0.190 C 
HETATM   16  N4  UNL     1      23.254   1.713  50.913  1.00  0.00    -0.354 N 
HETATM   17  C11 UNL     1      20.019   1.742  51.417  1.00  0.00     0.094 C 
HETATM   18  O2  UNL     1      19.964   2.685  52.565  1.00  0.00    -0.375 OA
HETATM   19  C12 UNL     1      20.500   3.975  52.148  1.00  0.00     0.196 C 
HETATM   20  C13 UNL     1      21.997   4.002  52.303  1.00  0.00    -0.001 C 
HETATM   21  C14 UNL     1      23.300   4.135  52.524  1.00  0.00    -0.001 C 
HETATM   22  C15 UNL     1      24.446   3.310  52.011  1.00  0.00     0.017 C 
HETATM   23  C16 UNL     1      24.474   2.193  51.258  1.00  0.00     0.089 C 
HETATM   24  H14 UNL     1      23.125   1.105  51.749  1.00  0.00     0.166 HD
ENDBRANCH   9  10
ENDBRANCH   8   9
ENDBRANCH   5   7
TORSDOF 3
ENDMDL
