MODEL 1
REMARK VINA RESULT:      -8.2      0.000      0.000
REMARK  5 active torsions:
REMARK  status: ('A' for Active; 'I' for Inactive)
REMARK    1  A    between atoms: C2_2  and  C17_25 
REMARK    2  A    between atoms: C3_3  and  P1_4 
REMARK    3  A    between atoms: P1_4  and  C4_6 
REMARK    4  A    between atoms: N2_10  and  C7_11 
REMARK    5  A    between atoms: C15_21  and  N5_22 
ROOT
HETATM    1  C4  UNL     1      22.193   1.368  51.814  1.00  0.00     0.174 C 
HETATM    2  C5  UNL     1      23.289   1.810  50.869  1.00  0.00     0.086 C 
HETATM    3  C6  UNL     1      24.657   1.634  51.343  1.00  0.00     0.114 C 
HETATM    4  N1  UNL     1      24.554   0.879  52.360  1.00  0.00    -0.193 NA
HETATM    5  N2  UNL     1      25.563   0.432  53.140  1.00  0.00    -0.297 N 
HETATM    6  C12 UNL     1      25.179  -0.469  54.199  1.00  0.00     0.183 C 
HETATM    7  C13 UNL     1      23.690  -0.546  54.289  1.00  0.00    -0.007 A 
HETATM    8  C14 UNL     1      23.272  -1.487  55.168  1.00  0.00     0.126 A 
HETATM    9  N4  UNL     1      21.852  -1.457  55.165  1.00  0.00    -0.245 NA
HETATM   10  C15 UNL     1      21.401  -0.569  54.353  1.00  0.00     0.131 A 
HETATM   11  C16 UNL     1      22.543   0.141  53.667  1.00  0.00     0.223 A 
HETATM   12  O1  UNL     1      22.425   0.086  52.308  1.00  0.00    -0.362 OA
ENDROOT
BRANCH   1  13
HETATM   13  P1  UNL     1      20.611   1.606  50.939  1.00  0.00     0.037 P 
HETATM   14 CL1  UNL     1      19.181   2.756  51.896  1.00  0.00    -0.089 Cl
BRANCH  13  15
HETATM   15  C3  UNL     1      20.891   2.040  49.201  1.00  0.00     0.030 C 
HETATM   16  C2  UNL     1      21.030   3.212  48.614  1.00  0.00    -0.054 C 
HETATM   17  C1  UNL     1      20.964   4.469  49.404  1.00  0.00     0.046 C 
BRANCH  16  18
HETATM   18  C17 UNL     1      21.253   3.235  47.147  1.00  0.00     0.256 C 
HETATM   19  F1  UNL     1      22.400   2.472  46.899  1.00  0.00    -0.251 F 
ENDBRANCH  16  18
ENDBRANCH  13  15
ENDBRANCH   1  13
BRANCH  10  20
HETATM   20  N5  UNL     1      19.968  -0.420  54.243  1.00  0.00    -0.385 N 
HETATM   21  H22 UNL     1      19.625  -0.958  53.399  1.00  0.00     0.157 HD
HETATM   22  H23 UNL     1      19.368   0.142  54.909  1.00  0.00     0.157 HD
ENDBRANCH  10  20
BRANCH   5  23
HETATM   23  C7  UNL     1      26.989   0.595  53.194  1.00  0.00     0.108 C 
HETATM   24  C8  UNL     1      27.641   0.170  54.462  1.00  0.00     0.057 C 
HETATM   25  C9  UNL     1      29.147   0.120  54.156  1.00  0.00     0.271 C 
HETATM   26  N3  UNL     1      29.608   1.459  53.998  1.00  0.00     0.083 N 
HETATM   27  C10 UNL     1      28.618   2.447  53.730  1.00  0.00     0.271 C 
HETATM   28  H14 UNL     1      30.173   1.722  54.835  1.00  0.00     0.315 HD
HETATM   29  C11 UNL     1      27.457   2.003  52.896  1.00  0.00     0.057 C 
ENDBRANCH   5  23
TORSDOF 5
ENDMDL
MODEL 2
REMARK VINA RESULT:      -8.2      3.521      7.253
REMARK  5 active torsions:
REMARK  status: ('A' for Active; 'I' for Inactive)
REMARK    1  A    between atoms: C2_2  and  C17_25 
REMARK    2  A    between atoms: C3_3  and  P1_4 
REMARK    3  A    between atoms: P1_4  and  C4_6 
REMARK    4  A    between atoms: N2_10  and  C7_11 
REMARK    5  A    between atoms: C15_21  and  N5_22 
ROOT
HETATM    1  C4  UNL     1      24.872   0.728  52.255  1.00  0.00     0.174 C 
HETATM    2  C5  UNL     1      24.486   1.707  51.168  1.00  0.00     0.086 C 
HETATM    3  C6  UNL     1      23.082   1.705  50.770  1.00  0.00     0.114 C 
HETATM    4  N1  UNL     1      22.490   1.035  51.672  1.00  0.00    -0.193 NA
HETATM    5  N2  UNL     1      21.169   0.761  51.739  1.00  0.00    -0.297 N 
HETATM    6  C12 UNL     1      20.741   0.031  52.907  1.00  0.00     0.183 C 
HETATM    7  C13 UNL     1      21.930  -0.414  53.694  1.00  0.00    -0.007 A 
HETATM    8  C14 UNL     1      21.588  -0.978  54.877  1.00  0.00     0.126 A 
HETATM    9  N4  UNL     1      22.796  -1.360  55.519  1.00  0.00    -0.245 NA
HETATM   10  C15 UNL     1      23.823  -1.067  54.805  1.00  0.00     0.131 A 
HETATM   11  C16 UNL     1      23.394  -0.404  53.518  1.00  0.00     0.223 A 
HETATM   12  O1  UNL     1      24.009   0.803  53.346  1.00  0.00    -0.362 OA
ENDROOT
BRANCH   1  13
HETATM   13  P1  UNL     1      26.637   1.011  52.620  1.00  0.00     0.037 P 
HETATM   14 CL1  UNL     1      27.073   2.441  54.051  1.00  0.00    -0.089 Cl
BRANCH  13  15
HETATM   15  C3  UNL     1      27.515  -0.561  52.830  1.00  0.00     0.030 C 
HETATM   16  C2  UNL     1      28.737  -0.820  53.252  1.00  0.00    -0.054 C 
HETATM   17  C1  UNL     1      29.650   0.282  53.656  1.00  0.00     0.046 C 
BRANCH  16  18
HETATM   18  C17 UNL     1      29.168  -2.239  53.313  1.00  0.00     0.256 C 
HETATM   19  F1  UNL     1      28.141  -3.000  52.744  1.00  0.00    -0.251 F 
ENDBRANCH  16  18
ENDBRANCH  13  15
ENDBRANCH   1  13
BRANCH  10  20
HETATM   20  N5  UNL     1      25.127  -1.399  55.331  1.00  0.00    -0.385 N 
HETATM   21  H22 UNL     1      25.521  -2.222  54.794  1.00  0.00     0.157 HD
HETATM   22  H23 UNL     1      25.603  -0.891  56.127  1.00  0.00     0.157 HD
ENDBRANCH  10  20
BRANCH   5  23
HETATM   23  C7  UNL     1      20.007   1.030  50.936  1.00  0.00     0.108 C 
HETATM   24  C8  UNL     1      19.520   2.436  50.955  1.00  0.00     0.057 C 
HETATM   25  C9  UNL     1      18.519   2.542  49.794  1.00  0.00     0.271 C 
HETATM   26  N3  UNL     1      17.355   1.800  50.148  1.00  0.00     0.083 N 
HETATM   27  C10 UNL     1      17.503   0.838  51.187  1.00  0.00     0.271 C 
HETATM   28  H14 UNL     1      16.584   2.467  50.372  1.00  0.00     0.315 HD
HETATM   29  C11 UNL     1      18.825   0.139  51.250  1.00  0.00     0.057 C 
ENDBRANCH   5  23
TORSDOF 5
ENDMDL
MODEL 3
REMARK VINA RESULT:      -8.1      2.275      2.580
REMARK  5 active torsions:
REMARK  status: ('A' for Active; 'I' for Inactive)
REMARK    1  A    between atoms: C2_2  and  C17_25 
REMARK    2  A    between atoms: C3_3  and  P1_4 
REMARK    3  A    between atoms: P1_4  and  C4_6 
REMARK    4  A    between atoms: N2_10  and  C7_11 
REMARK    5  A    between atoms: C15_21  and  N5_22 
ROOT
HETATM    1  C4  UNL     1      22.304   1.785  52.088  1.00  0.00     0.174 C 
HETATM    2  C5  UNL     1      23.344   2.224  51.082  1.00  0.00     0.086 C 
HETATM    3  C6  UNL     1      24.729   1.900  51.406  1.00  0.00     0.114 C 
HETATM    4  N1  UNL     1      24.653   1.067  52.362  1.00  0.00    -0.193 NA
HETATM    5  N2  UNL     1      25.685   0.473  53.001  1.00  0.00    -0.297 N 
HETATM    6  C12 UNL     1      25.321  -0.487  54.014  1.00  0.00     0.183 C 
HETATM    7  C13 UNL     1      23.845  -0.456  54.240  1.00  0.00    -0.007 A 
HETATM    8  C14 UNL     1      23.427  -1.438  55.074  1.00  0.00     0.126 A 
HETATM    9  N4  UNL     1      22.020  -1.297  55.211  1.00  0.00    -0.245 NA
HETATM   10  C15 UNL     1      21.577  -0.306  54.522  1.00  0.00     0.131 A 
HETATM   11  C16 UNL     1      22.711   0.372  53.791  1.00  0.00     0.223 A 
HETATM   12  O1  UNL     1      22.468   0.449  52.450  1.00  0.00    -0.362 OA
ENDROOT
BRANCH   1  13
HETATM   13  P1  UNL     1      20.675   2.224  51.392  1.00  0.00     0.037 P 
HETATM   14 CL1  UNL     1      20.678   3.268  49.605  1.00  0.00    -0.089 Cl
BRANCH  13  15
HETATM   15  C3  UNL     1      19.549   0.804  51.437  1.00  0.00     0.030 C 
HETATM   16  C2  UNL     1      18.234   0.742  51.373  1.00  0.00    -0.054 C 
HETATM   17  C1  UNL     1      17.420   1.979  51.240  1.00  0.00     0.046 C 
BRANCH  16  18
HETATM   18  C17 UNL     1      17.595  -0.597  51.436  1.00  0.00     0.256 C 
HETATM   19  F1  UNL     1      18.263  -1.319  52.430  1.00  0.00    -0.251 F 
ENDBRANCH  16  18
ENDBRANCH  13  15
ENDBRANCH   1  13
BRANCH  10  20
HETATM   20  N5  UNL     1      20.159  -0.037  54.563  1.00  0.00    -0.385 N 
HETATM   21  H22 UNL     1      19.873   0.467  53.678  1.00  0.00     0.157 HD
HETATM   22  H23 UNL     1      19.517  -0.307  55.359  1.00  0.00     0.157 HD
ENDBRANCH  10  20
BRANCH   5  23
HETATM   23  C7  UNL     1      27.119   0.520  52.931  1.00  0.00     0.108 C 
HETATM   24  C8  UNL     1      27.842  -0.372  53.878  1.00  0.00     0.057 C 
HETATM   25  C9  UNL     1      29.299  -0.399  53.390  1.00  0.00     0.271 C 
HETATM   26  N3  UNL     1      29.876   0.876  53.654  1.00  0.00     0.083 N 
HETATM   27  C10 UNL     1      28.970   1.952  53.875  1.00  0.00     0.271 C 
HETATM   28  H14 UNL     1      30.541   0.787  54.453  1.00  0.00     0.315 HD
HETATM   29  C11 UNL     1      27.697   1.910  53.090  1.00  0.00     0.057 C 
ENDBRANCH   5  23
TORSDOF 5
ENDMDL
MODEL 4
REMARK VINA RESULT:      -8.1      3.015      4.681
REMARK  5 active torsions:
REMARK  status: ('A' for Active; 'I' for Inactive)
REMARK    1  A    between atoms: C2_2  and  C17_25 
REMARK    2  A    between atoms: C3_3  and  P1_4 
REMARK    3  A    between atoms: P1_4  and  C4_6 
REMARK    4  A    between atoms: N2_10  and  C7_11 
REMARK    5  A    between atoms: C15_21  and  N5_22 
ROOT
HETATM    1  C4  UNL     1      21.810   0.651  51.928  1.00  0.00     0.174 C 
HETATM    2  C5  UNL     1      22.016  -0.239  53.133  1.00  0.00     0.086 C 
HETATM    3  C6  UNL     1      23.400  -0.449  53.548  1.00  0.00     0.114 C 
HETATM    4  N1  UNL     1      24.065   0.426  52.912  1.00  0.00    -0.193 NA
HETATM    5  N2  UNL     1      25.400   0.627  52.972  1.00  0.00    -0.297 N 
HETATM    6  C12 UNL     1      25.900   1.735  52.195  1.00  0.00     0.183 C 
HETATM    7  C13 UNL     1      24.807   2.296  51.345  1.00  0.00    -0.007 A 
HETATM    8  C14 UNL     1      25.179   3.428  50.704  1.00  0.00     0.126 A 
HETATM    9  N4  UNL     1      24.065   3.854  49.932  1.00  0.00    -0.245 NA
HETATM   10  C15 UNL     1      23.066   3.058  50.069  1.00  0.00     0.131 A 
HETATM   11  C16 UNL     1      23.416   1.935  51.015  1.00  0.00     0.223 A 
HETATM   12  O1  UNL     1      22.519   1.845  52.041  1.00  0.00    -0.362 OA
ENDROOT
BRANCH   1  13
HETATM   13  P1  UNL     1      20.008   0.819  51.696  1.00  0.00     0.037 P 
HETATM   14 CL1  UNL     1      19.343   1.130  49.761  1.00  0.00    -0.089 Cl
BRANCH  13  15
HETATM   15  C3  UNL     1      19.116  -0.471  52.605  1.00  0.00     0.030 C 
HETATM   16  C2  UNL     1      17.858  -0.862  52.541  1.00  0.00    -0.054 C 
HETATM   17  C1  UNL     1      16.908  -0.211  51.601  1.00  0.00     0.046 C 
BRANCH  16  18
HETATM   18  C17 UNL     1      17.425  -1.968  53.431  1.00  0.00     0.256 C 
HETATM   19  F1  UNL     1      18.586  -2.535  53.968  1.00  0.00    -0.251 F 
ENDBRANCH  16  18
ENDBRANCH  13  15
ENDBRANCH   1  13
BRANCH  10  20
HETATM   20  N5  UNL     1      21.856   3.362  49.340  1.00  0.00    -0.385 N 
HETATM   21  H22 UNL     1      21.590   4.372  49.510  1.00  0.00     0.157 HD
HETATM   22  H23 UNL     1      21.328   2.674  48.734  1.00  0.00     0.157 HD
ENDBRANCH  10  20
BRANCH   5  23
HETATM   23  C7  UNL     1      26.515   0.024  53.649  1.00  0.00     0.108 C 
HETATM   24  C8  UNL     1      27.688   0.910  53.879  1.00  0.00     0.057 C 
HETATM   25  C9  UNL     1      28.577   0.165  54.888  1.00  0.00     0.271 C 
HETATM   26  N3  UNL     1      29.154  -0.955  54.223  1.00  0.00     0.083 N 
HETATM   27  C10 UNL     1      28.515  -1.384  53.025  1.00  0.00     0.271 C 
HETATM   28  H14 UNL     1      30.165  -0.763  54.051  1.00  0.00     0.315 HD
HETATM   29  C11 UNL     1      27.026  -1.238  52.987  1.00  0.00     0.057 C 
ENDBRANCH   5  23
TORSDOF 5
ENDMDL
MODEL 5
REMARK VINA RESULT:      -8.0      3.674      7.833
REMARK  5 active torsions:
REMARK  status: ('A' for Active; 'I' for Inactive)
REMARK    1  A    between atoms: C2_2  and  C17_25 
REMARK    2  A    between atoms: C3_3  and  P1_4 
REMARK    3  A    between atoms: P1_4  and  C4_6 
REMARK    4  A    between atoms: N2_10  and  C7_11 
REMARK    5  A    between atoms: C15_21  and  N5_22 
ROOT
HETATM    1  C4  UNL     1      24.578   0.379  53.199  1.00  0.00     0.174 C 
HETATM    2  C5  UNL     1      23.492  -0.601  53.586  1.00  0.00     0.086 C 
HETATM    3  C6  UNL     1      22.121  -0.184  53.311  1.00  0.00     0.114 C 
HETATM    4  N1  UNL     1      22.236   0.823  52.545  1.00  0.00    -0.193 NA
HETATM    5  N2  UNL     1      21.230   1.555  52.018  1.00  0.00    -0.297 N 
HETATM    6  C12 UNL     1      21.633   2.614  51.124  1.00  0.00     0.183 C 
HETATM    7  C13 UNL     1      23.119   2.761  51.143  1.00  0.00    -0.007 A 
HETATM    8  C14 UNL     1      23.565   3.640  50.215  1.00  0.00     0.126 A 
HETATM    9  N4  UNL     1      24.979   3.694  50.340  1.00  0.00    -0.245 NA
HETATM   10  C15 UNL     1      25.400   2.914  51.271  1.00  0.00     0.131 A 
HETATM   11  C16 UNL     1      24.240   2.196  51.917  1.00  0.00     0.223 A 
HETATM   12  O1  UNL     1      24.413   0.842  51.895  1.00  0.00    -0.362 OA
ENDROOT
BRANCH   1  13
HETATM   13  P1  UNL     1      26.173  -0.430  53.557  1.00  0.00     0.037 P 
HETATM   14 CL1  UNL     1      26.793  -1.892  52.231  1.00  0.00    -0.089 Cl
BRANCH  13  15
HETATM   15  C3  UNL     1      27.440   0.796  53.978  1.00  0.00     0.030 C 
HETATM   16  C2  UNL     1      28.743   0.674  54.137  1.00  0.00    -0.054 C 
HETATM   17  C1  UNL     1      29.408  -0.644  53.969  1.00  0.00     0.046 C 
BRANCH  16  18
HETATM   18  C17 UNL     1      29.520   1.890  54.486  1.00  0.00     0.256 C 
HETATM   19  F1  UNL     1      28.960   2.950  53.766  1.00  0.00    -0.251 F 
ENDBRANCH  16  18
ENDBRANCH  13  15
ENDBRANCH   1  13
BRANCH  10  20
HETATM   20  N5  UNL     1      26.823   2.863  51.516  1.00  0.00    -0.385 N 
HETATM   21  H22 UNL     1      27.299   2.372  50.708  1.00  0.00     0.157 HD
HETATM   22  H23 UNL     1      27.301   3.259  52.372  1.00  0.00     0.157 HD
ENDBRANCH  10  20
BRANCH   5  23
HETATM   23  C7  UNL     1      19.795   1.556  52.086  1.00  0.00     0.108 C 
HETATM   24  C8  UNL     1      19.105   0.575  51.205  1.00  0.00     0.057 C 
HETATM   25  C9  UNL     1      17.650   0.531  51.696  1.00  0.00     0.271 C 
HETATM   26  N3  UNL     1      17.028   1.763  51.342  1.00  0.00     0.083 N 
HETATM   27  C10 UNL     1      17.896   2.852  51.044  1.00  0.00     0.271 C 
HETATM   28  H14 UNL     1      16.368   1.593  50.552  1.00  0.00     0.315 HD
HETATM   29  C11 UNL     1      19.169   2.910  51.829  1.00  0.00     0.057 C 
ENDBRANCH   5  23
TORSDOF 5
ENDMDL
MODEL 6
REMARK VINA RESULT:      -7.9      3.493      7.031
REMARK  5 active torsions:
REMARK  status: ('A' for Active; 'I' for Inactive)
REMARK    1  A    between atoms: C2_2  and  C17_25 
REMARK    2  A    between atoms: C3_3  and  P1_4 
REMARK    3  A    between atoms: P1_4  and  C4_6 
REMARK    4  A    between atoms: N2_10  and  C7_11 
REMARK    5  A    between atoms: C15_21  and  N5_22 
ROOT
HETATM    1  C4  UNL     1      24.857   0.124  52.787  1.00  0.00     0.174 C 
HETATM    2  C5  UNL     1      25.296   1.208  51.828  1.00  0.00     0.086 C 
HETATM    3  C6  UNL     1      24.229   1.961  51.177  1.00  0.00     0.114 C 
HETATM    4  N1  UNL     1      23.179   1.662  51.824  1.00  0.00    -0.193 NA
HETATM    5  N2  UNL     1      21.929   2.119  51.592  1.00  0.00    -0.297 N 
HETATM    6  C12 UNL     1      20.918   1.670  52.518  1.00  0.00     0.183 C 
HETATM    7  C13 UNL     1      21.487   0.632  53.429  1.00  0.00    -0.007 A 
HETATM    8  C14 UNL     1      20.627   0.279  54.414  1.00  0.00     0.126 A 
HETATM    9  N4  UNL     1      21.278  -0.709  55.200  1.00  0.00    -0.245 NA
HETATM   10  C15 UNL     1      22.455  -0.967  54.753  1.00  0.00     0.131 A 
HETATM   11  C16 UNL     1      22.751  -0.120  53.539  1.00  0.00     0.223 A 
HETATM   12  O1  UNL     1      23.906   0.592  53.692  1.00  0.00    -0.362 OA
ENDROOT
BRANCH   1  13
HETATM   13  P1  UNL     1      26.372  -0.577  53.523  1.00  0.00     0.037 P 
HETATM   14 CL1  UNL     1      27.196  -2.218  52.567  1.00  0.00    -0.089 Cl
BRANCH  13  15
HETATM   15  C3  UNL     1      27.557   0.731  53.936  1.00  0.00     0.030 C 
HETATM   16  C2  UNL     1      28.869   0.702  54.061  1.00  0.00    -0.054 C 
HETATM   17  C1  UNL     1      29.624  -0.561  53.852  1.00  0.00     0.046 C 
BRANCH  16  18
HETATM   18  C17 UNL     1      29.564   1.965  54.414  1.00  0.00     0.256 C 
HETATM   19  F1  UNL     1      29.044   2.962  53.582  1.00  0.00    -0.251 F 
ENDBRANCH  16  18
ENDBRANCH  13  15
ENDBRANCH   1  13
BRANCH  10  20
HETATM   20  N5  UNL     1      23.241  -1.957  55.452  1.00  0.00    -0.385 N 
HETATM   21  H22 UNL     1      24.143  -2.123  54.925  1.00  0.00     0.157 HD
HETATM   22  H23 UNL     1      22.949  -2.433  56.351  1.00  0.00     0.157 HD
ENDBRANCH  10  20
BRANCH   5  23
HETATM   23  C7  UNL     1      21.299   2.994  50.642  1.00  0.00     0.108 C 
HETATM   24  C8  UNL     1      20.229   3.874  51.183  1.00  0.00     0.057 C 
HETATM   25  C9  UNL     1      19.961   4.920  50.089  1.00  0.00     0.271 C 
HETATM   26  N3  UNL     1      19.311   4.266  49.004  1.00  0.00     0.083 N 
HETATM   27  C10 UNL     1      19.430   2.848  48.951  1.00  0.00     0.271 C 
HETATM   28  H14 UNL     1      18.307   4.550  48.990  1.00  0.00     0.315 HD
HETATM   29  C11 UNL     1      20.728   2.280  49.435  1.00  0.00     0.057 C 
ENDBRANCH   5  23
TORSDOF 5
ENDMDL
MODEL 7
REMARK VINA RESULT:      -7.9      3.321      3.740
REMARK  5 active torsions:
REMARK  status: ('A' for Active; 'I' for Inactive)
REMARK    1  A    between atoms: C2_2  and  C17_25 
REMARK    2  A    between atoms: C3_3  and  P1_4 
REMARK    3  A    between atoms: P1_4  and  C4_6 
REMARK    4  A    between atoms: N2_10  and  C7_11 
REMARK    5  A    between atoms: C15_21  and  N5_22 
ROOT
HETATM    1  C4  UNL     1      24.177   3.961  50.706  1.00  0.00     0.174 C 
HETATM    2  C5  UNL     1      25.579   3.831  50.152  1.00  0.00     0.086 C 
HETATM    3  C6  UNL     1      26.428   2.824  50.781  1.00  0.00     0.114 C 
HETATM    4  N1  UNL     1      25.634   2.119  51.477  1.00  0.00    -0.193 NA
HETATM    5  N2  UNL     1      25.959   1.055  52.244  1.00  0.00    -0.297 N 
HETATM    6  C12 UNL     1      24.852   0.388  52.886  1.00  0.00     0.183 C 
HETATM    7  C13 UNL     1      23.597   1.173  52.685  1.00  0.00    -0.007 A 
HETATM    8  C14 UNL     1      22.501   0.522  53.140  1.00  0.00     0.126 A 
HETATM    9  N4  UNL     1      21.385   1.368  52.898  1.00  0.00    -0.245 NA
HETATM   10  C15 UNL     1      21.741   2.467  52.336  1.00  0.00     0.131 A 
HETATM   11  C16 UNL     1      23.235   2.484  52.117  1.00  0.00     0.223 A 
HETATM   12  O1  UNL     1      23.547   2.722  50.809  1.00  0.00    -0.362 OA
ENDROOT
BRANCH   1  13
HETATM   13  P1  UNL     1      23.318   5.204  49.684  1.00  0.00     0.037 P 
HETATM   14 CL1  UNL     1      21.978   6.444  50.659  1.00  0.00    -0.089 Cl
BRANCH  13  15
HETATM   15  C3  UNL     1      24.483   6.060  48.590  1.00  0.00     0.030 C 
HETATM   16  C2  UNL     1      25.357   7.016  48.835  1.00  0.00    -0.054 C 
HETATM   17  C1  UNL     1      25.509   7.573  50.205  1.00  0.00     0.046 C 
BRANCH  16  18
HETATM   18  C17 UNL     1      26.181   7.515  47.706  1.00  0.00     0.256 C 
HETATM   19  F1  UNL     1      27.346   6.742  47.681  1.00  0.00    -0.251 F 
ENDBRANCH  16  18
ENDBRANCH  13  15
ENDBRANCH   1  13
BRANCH  10  20
HETATM   20  N5  UNL     1      20.711   3.432  52.029  1.00  0.00    -0.385 N 
HETATM   21  H22 UNL     1      21.137   4.400  51.994  1.00  0.00     0.157 HD
HETATM   22  H23 UNL     1      19.693   3.195  51.864  1.00  0.00     0.157 HD
ENDBRANCH  10  20
BRANCH   5  23
HETATM   23  C7  UNL     1      27.162   0.353  52.596  1.00  0.00     0.108 C 
HETATM   24  C8  UNL     1      26.988  -1.070  52.994  1.00  0.00     0.057 C 
HETATM   25  C9  UNL     1      28.400  -1.677  52.987  1.00  0.00     0.271 C 
HETATM   26  N3  UNL     1      29.120  -1.128  54.086  1.00  0.00     0.083 N 
HETATM   27  C10 UNL     1      28.609   0.078  54.645  1.00  0.00     0.271 C 
HETATM   28  H14 UNL     1      29.221  -1.861  54.823  1.00  0.00     0.315 HD
HETATM   29  C11 UNL     1      27.972   1.029  53.681  1.00  0.00     0.057 C 
ENDBRANCH   5  23
TORSDOF 5
ENDMDL
MODEL 8
REMARK VINA RESULT:      -7.9      3.866      7.883
REMARK  5 active torsions:
REMARK  status: ('A' for Active; 'I' for Inactive)
REMARK    1  A    between atoms: C2_2  and  C17_25 
REMARK    2  A    between atoms: C3_3  and  P1_4 
REMARK    3  A    between atoms: P1_4  and  C4_6 
REMARK    4  A    between atoms: N2_10  and  C7_11 
REMARK    5  A    between atoms: C15_21  and  N5_22 
ROOT
HETATM    1  C4  UNL     1      25.482   1.700  52.431  1.00  0.00     0.174 C 
HETATM    2  C5  UNL     1      24.756   0.548  53.089  1.00  0.00     0.086 C 
HETATM    3  C6  UNL     1      23.300   0.570  52.999  1.00  0.00     0.114 C 
HETATM    4  N1  UNL     1      23.042   1.454  52.123  1.00  0.00    -0.193 NA
HETATM    5  N2  UNL     1      21.819   1.831  51.693  1.00  0.00    -0.297 N 
HETATM    6  C12 UNL     1      21.805   2.817  50.639  1.00  0.00     0.183 C 
HETATM    7  C13 UNL     1      23.188   3.328  50.401  1.00  0.00    -0.007 A 
HETATM    8  C14 UNL     1      23.260   4.147  49.326  1.00  0.00     0.126 A 
HETATM    9  N4  UNL     1      24.613   4.566  49.212  1.00  0.00    -0.245 NA
HETATM   10  C15 UNL     1      25.343   4.057  50.139  1.00  0.00     0.131 A 
HETATM   11  C16 UNL     1      24.510   3.174  51.037  1.00  0.00     0.223 A 
HETATM   12  O1  UNL     1      25.033   1.916  51.130  1.00  0.00    -0.362 OA
ENDROOT
BRANCH   1  13
HETATM   13  P1  UNL     1      27.268   1.371  52.607  1.00  0.00     0.037 P 
HETATM   14 CL1  UNL     1      28.307   2.564  53.941  1.00  0.00    -0.089 Cl
BRANCH  13  15
HETATM   15  C3  UNL     1      27.585  -0.406  52.776  1.00  0.00     0.030 C 
HETATM   16  C2  UNL     1      28.661  -1.059  53.166  1.00  0.00    -0.054 C 
HETATM   17  C1  UNL     1      29.893  -0.327  53.562  1.00  0.00     0.046 C 
BRANCH  16  18
HETATM   18  C17 UNL     1      28.604  -2.542  53.199  1.00  0.00     0.256 C 
HETATM   19  F1  UNL     1      27.472  -2.921  52.470  1.00  0.00    -0.251 F 
ENDBRANCH  16  18
ENDBRANCH  13  15
ENDBRANCH   1  13
BRANCH  10  20
HETATM   20  N5  UNL     1      26.748   4.394  50.153  1.00  0.00    -0.385 N 
HETATM   21  H22 UNL     1      27.315   3.545  49.877  1.00  0.00     0.157 HD
HETATM   22  H23 UNL     1      27.136   5.346  50.402  1.00  0.00     0.157 HD
ENDBRANCH  10  20
BRANCH   5  23
HETATM   23  C7  UNL     1      20.456   1.487  51.993  1.00  0.00     0.108 C 
HETATM   24  C8  UNL     1      19.879   0.373  51.192  1.00  0.00     0.057 C 
HETATM   25  C9  UNL     1      18.579  -0.021  51.910  1.00  0.00     0.271 C 
HETATM   26  N3  UNL     1      17.634   1.027  51.718  1.00  0.00     0.083 N 
HETATM   27  C10 UNL     1      18.158   2.295  51.333  1.00  0.00     0.271 C 
HETATM   28  H14 UNL     1      16.909   0.708  51.039  1.00  0.00     0.315 HD
HETATM   29  C11 UNL     1      19.495   2.652  51.903  1.00  0.00     0.057 C 
ENDBRANCH   5  23
TORSDOF 5
ENDMDL
MODEL 9
REMARK VINA RESULT:      -7.8      2.431      2.834
REMARK  5 active torsions:
REMARK  status: ('A' for Active; 'I' for Inactive)
REMARK    1  A    between atoms: C2_2  and  C17_25 
REMARK    2  A    between atoms: C3_3  and  P1_4 
REMARK    3  A    between atoms: P1_4  and  C4_6 
REMARK    4  A    between atoms: N2_10  and  C7_11 
REMARK    5  A    between atoms: C15_21  and  N5_22 
ROOT
HETATM    1  C4  UNL     1      23.932   3.715  50.767  1.00  0.00     0.174 C 
HETATM    2  C5  UNL     1      25.328   3.655  50.188  1.00  0.00     0.086 C 
HETATM    3  C6  UNL     1      26.254   2.734  50.836  1.00  0.00     0.114 C 
HETATM    4  N1  UNL     1      25.524   2.007  51.578  1.00  0.00    -0.193 NA
HETATM    5  N2  UNL     1      25.935   0.999  52.379  1.00  0.00    -0.297 N 
HETATM    6  C12 UNL     1      24.889   0.287  53.072  1.00  0.00     0.183 C 
HETATM    7  C13 UNL     1      23.581   0.977  52.868  1.00  0.00    -0.007 A 
HETATM    8  C14 UNL     1      22.539   0.275  53.374  1.00  0.00     0.126 A 
HETATM    9  N4  UNL     1      21.365   1.034  53.124  1.00  0.00    -0.245 NA
HETATM   10  C15 UNL     1      21.635   2.131  52.511  1.00  0.00     0.131 A 
HETATM   11  C16 UNL     1      23.119   2.237  52.257  1.00  0.00     0.223 A 
HETATM   12  O1  UNL     1      23.389   2.442  50.934  1.00  0.00    -0.362 OA
ENDROOT
BRANCH   1  13
HETATM   13  P1  UNL     1      22.970   4.855  49.717  1.00  0.00     0.037 P 
HETATM   14 CL1  UNL     1      24.029   5.937  48.306  1.00  0.00    -0.089 Cl
BRANCH  13  15
HETATM   15  C3  UNL     1      21.475   4.048  49.085  1.00  0.00     0.030 C 
HETATM   16  C2  UNL     1      21.322   3.073  48.212  1.00  0.00    -0.054 C 
HETATM   17  C1  UNL     1      22.502   2.444  47.562  1.00  0.00     0.046 C 
BRANCH  16  18
HETATM   18  C17 UNL     1      19.942   2.625  47.900  1.00  0.00     0.256 C 
HETATM   19  F1  UNL     1      19.457   1.979  49.042  1.00  0.00    -0.251 F 
ENDBRANCH  16  18
ENDBRANCH  13  15
ENDBRANCH   1  13
BRANCH  10  20
HETATM   20  N5  UNL     1      20.536   3.011  52.189  1.00  0.00    -0.385 N 
HETATM   21  H22 UNL     1      20.852   3.714  51.463  1.00  0.00     0.157 HD
HETATM   22  H23 UNL     1      19.571   2.952  52.617  1.00  0.00     0.157 HD
ENDBRANCH  10  20
BRANCH   5  23
HETATM   23  C7  UNL     1      27.190   0.394  52.730  1.00  0.00     0.108 C 
HETATM   24  C8  UNL     1      27.138  -1.056  53.062  1.00  0.00     0.057 C 
HETATM   25  C9  UNL     1      28.599  -1.532  53.065  1.00  0.00     0.271 C 
HETATM   26  N3  UNL     1      29.243  -0.971  54.205  1.00  0.00     0.083 N 
HETATM   27  C10 UNL     1      28.612   0.158  54.802  1.00  0.00     0.271 C 
HETATM   28  H14 UNL     1      29.394  -1.723  54.912  1.00  0.00     0.315 HD
HETATM   29  C11 UNL     1      27.911   1.090  53.864  1.00  0.00     0.057 C 
ENDBRANCH   5  23
TORSDOF 5
ENDMDL
