MODEL 1
REMARK VINA RESULT:      -9.1      0.000      0.000
REMARK  3 active torsions:
REMARK  status: ('A' for Active; 'I' for Inactive)
REMARK    1  A    between atoms: C5_5  and  C6_6 
REMARK    2  A    between atoms: C11_11  and  C12_12 
REMARK    3  A    between atoms: C12_12  and  N1_13 
REMARK       I    between atoms: N1_13  and  C13_14 
ROOT
HETATM    1  C1  UNL     1      19.290   1.861  49.597  1.00  0.00     0.038 C 
HETATM    2  C2  UNL     1      20.119   1.007  50.478  1.00  0.00    -0.002 C 
HETATM    3  C3  UNL     1      21.408   0.993  50.877  1.00  0.00     0.028 C 
HETATM    4  C4  UNL     1      22.310   2.020  50.391  1.00  0.00     0.034 C 
HETATM    5  C5  UNL     1      23.572   2.286  50.567  1.00  0.00    -0.044 C 
HETATM    6  C16 UNL     1      24.424   1.370  51.390  1.00  0.00     0.185 C 
HETATM    7  N3  UNL     1      24.962   2.003  52.559  1.00  0.00    -0.279 NA
HETATM    8  C17 UNL     1      25.344   1.358  53.608  1.00  0.00     0.226 C 
HETATM    9  N4  UNL     1      25.228  -0.056  53.607  1.00  0.00    -0.254 NA
HETATM   10  C18 UNL     1      24.107  -0.594  53.865  1.00  0.00     0.131 C 
HETATM   11  C19 UNL     1      22.713  -0.388  54.204  1.00  0.00     0.008 A 
HETATM   12  C20 UNL     1      21.833  -0.290  55.176  1.00  0.00     0.017 A 
HETATM   13  C21 UNL     1      20.803  -0.086  54.170  1.00  0.00     0.031 A 
HETATM   14  C22 UNL     1      21.686  -0.184  53.197  1.00  0.00     0.044 A 
HETATM   15  N5  UNL     1      21.571  -0.107  51.760  1.00  0.00    -0.356 N 
HETATM   16  H29 UNL     1      21.611  -1.090  51.442  1.00  0.00     0.166 HD
ENDROOT
BRANCH   5  17
HETATM   17  C6  UNL     1      24.301   3.423  49.958  1.00  0.00     0.022 C 
HETATM   18  C7  UNL     1      23.785   3.610  48.569  1.00  0.00     0.027 C 
HETATM   19  C8  UNL     1      25.799   3.182  49.869  1.00  0.00     0.020 C 
HETATM   20  C9  UNL     1      26.456   4.316  49.181  1.00  0.00     0.002 C 
HETATM   21  C10 UNL     1      25.830   5.650  49.262  1.00  0.00     0.012 C 
HETATM   22  C11 UNL     1      24.618   5.808  50.103  1.00  0.00     0.052 C 
HETATM   23  C15 UNL     1      24.169   4.615  50.837  1.00  0.00     0.022 C 
HETATM   24  N2  UNL     1      23.770   4.778  52.043  1.00  0.00    -0.307 NA
HETATM   25  H22 UNL     1      23.455   4.019  52.625  1.00  0.00     0.186 HD
BRANCH  22  26
HETATM   26  C12 UNL     1      24.847   6.980  51.075  1.00  0.00     0.133 C 
BRANCH  26  27
HETATM   27  N1  UNL     1      26.122   7.598  50.882  1.00  0.00    -0.361 N 
HETATM   28  C13 UNL     1      26.356   8.785  50.118  1.00  0.00     0.213 C 
HETATM   29  C14 UNL     1      27.743   9.328  49.997  1.00  0.00     0.117 C 
HETATM   30  O1  UNL     1      25.405   9.366  49.552  1.00  0.00    -0.274 OA
HETATM   31  H18 UNL     1      26.986   7.182  51.321  1.00  0.00     0.162 HD
ENDBRANCH  26  27
ENDBRANCH  22  26
ENDBRANCH   5  17
TORSDOF 3
ENDMDL
MODEL 2
REMARK VINA RESULT:      -9.1      4.044      5.742
REMARK  3 active torsions:
REMARK  status: ('A' for Active; 'I' for Inactive)
REMARK    1  A    between atoms: C5_5  and  C6_6 
REMARK    2  A    between atoms: C11_11  and  C12_12 
REMARK    3  A    between atoms: C12_12  and  N1_13 
REMARK       I    between atoms: N1_13  and  C13_14 
ROOT
HETATM    1  C1  UNL     1      22.538   2.776  47.577  1.00  0.00     0.038 C 
HETATM    2  C2  UNL     1      21.653   1.901  48.378  1.00  0.00    -0.002 C 
HETATM    3  C3  UNL     1      21.687   1.363  49.615  1.00  0.00     0.028 C 
HETATM    4  C4  UNL     1      22.823   1.635  50.474  1.00  0.00     0.034 C 
HETATM    5  C5  UNL     1      23.164   1.280  51.679  1.00  0.00    -0.044 C 
HETATM    6  C16 UNL     1      22.306   0.327  52.451  1.00  0.00     0.185 C 
HETATM    7  N3  UNL     1      21.763   0.903  53.647  1.00  0.00    -0.279 NA
HETATM    8  C17 UNL     1      20.700   0.467  54.230  1.00  0.00     0.226 C 
HETATM    9  N4  UNL     1      20.028  -0.645  53.661  1.00  0.00    -0.254 NA
HETATM   10  C18 UNL     1      19.240  -0.467  52.681  1.00  0.00     0.131 C 
HETATM   11  C19 UNL     1      18.639   0.483  51.764  1.00  0.00     0.008 A 
HETATM   12  C20 UNL     1      17.608   1.262  51.527  1.00  0.00     0.017 A 
HETATM   13  C21 UNL     1      18.246   1.665  50.285  1.00  0.00     0.031 A 
HETATM   14  C22 UNL     1      19.281   0.884  50.524  1.00  0.00     0.044 A 
HETATM   15  N5  UNL     1      20.493   0.613  49.789  1.00  0.00    -0.356 N 
HETATM   16  H29 UNL     1      20.329  -0.305  49.344  1.00  0.00     0.166 HD
ENDROOT
BRANCH   5  17
HETATM   17  C6  UNL     1      24.404   1.695  52.376  1.00  0.00     0.022 C 
HETATM   18  C7  UNL     1      24.146   3.014  53.028  1.00  0.00     0.027 C 
HETATM   19  C8  UNL     1      25.582   1.865  51.432  1.00  0.00     0.020 C 
HETATM   20  C9  UNL     1      26.763   2.356  52.178  1.00  0.00     0.002 C 
HETATM   21  C10 UNL     1      26.884   2.021  53.610  1.00  0.00     0.012 C 
HETATM   22  C11 UNL     1      25.860   1.133  54.213  1.00  0.00     0.052 C 
HETATM   23  C15 UNL     1      24.826   0.613  53.305  1.00  0.00     0.022 C 
HETATM   24  N2  UNL     1      24.481  -0.613  53.442  1.00  0.00    -0.307 NA
HETATM   25  H22 UNL     1      23.791  -1.058  52.860  1.00  0.00     0.186 HD
BRANCH  22  26
HETATM   26  C12 UNL     1      26.578  -0.026  54.928  1.00  0.00     0.133 C 
BRANCH  26  27
HETATM   27  N1  UNL     1      27.973  -0.069  54.617  1.00  0.00    -0.361 N 
HETATM   28  C13 UNL     1      28.593  -1.008  53.733  1.00  0.00     0.213 C 
HETATM   29  C14 UNL     1      30.066  -0.941  53.495  1.00  0.00     0.117 C 
HETATM   30  O1  UNL     1      27.905  -1.882  53.162  1.00  0.00    -0.274 OA
HETATM   31  H18 UNL     1      28.636   0.628  55.050  1.00  0.00     0.162 HD
ENDBRANCH  26  27
ENDBRANCH  22  26
ENDBRANCH   5  17
TORSDOF 3
ENDMDL
MODEL 3
REMARK VINA RESULT:      -8.9      1.673      3.298
REMARK  3 active torsions:
REMARK  status: ('A' for Active; 'I' for Inactive)
REMARK    1  A    between atoms: C5_5  and  C6_6 
REMARK    2  A    between atoms: C11_11  and  C12_12 
REMARK    3  A    between atoms: C12_12  and  N1_13 
REMARK       I    between atoms: N1_13  and  C13_14 
ROOT
HETATM    1  C1  UNL     1      25.650  -0.562  53.259  1.00  0.00     0.038 C 
HETATM    2  C2  UNL     1      24.281  -0.018  53.400  1.00  0.00    -0.002 C 
HETATM    3  C3  UNL     1      23.592   1.016  52.875  1.00  0.00     0.028 C 
HETATM    4  C4  UNL     1      24.246   1.889  51.919  1.00  0.00     0.034 C 
HETATM    5  C5  UNL     1      23.886   2.945  51.250  1.00  0.00    -0.044 C 
HETATM    6  C16 UNL     1      22.528   3.540  51.462  1.00  0.00     0.185 C 
HETATM    7  N3  UNL     1      21.712   3.511  50.283  1.00  0.00    -0.279 NA
HETATM    8  C17 UNL     1      20.424   3.554  50.305  1.00  0.00     0.226 C 
HETATM    9  N4  UNL     1      19.775   3.636  51.564  1.00  0.00    -0.254 NA
HETATM   10  C18 UNL     1      19.605   2.583  52.252  1.00  0.00     0.131 C 
HETATM   11  C19 UNL     1      19.799   1.149  52.343  1.00  0.00     0.008 A 
HETATM   12  C20 UNL     1      19.275  -0.036  52.121  1.00  0.00     0.017 A 
HETATM   13  C21 UNL     1      20.491  -0.631  52.651  1.00  0.00     0.031 A 
HETATM   14  C22 UNL     1      21.016   0.558  52.874  1.00  0.00     0.044 A 
HETATM   15  N5  UNL     1      22.282   0.981  53.423  1.00  0.00    -0.356 N 
HETATM   16  H29 UNL     1      22.063   1.267  54.391  1.00  0.00     0.166 HD
ENDROOT
BRANCH   5  17
HETATM   17  C6  UNL     1      24.742   3.692  50.299  1.00  0.00     0.022 C 
HETATM   18  C7  UNL     1      24.222   3.445  48.920  1.00  0.00     0.027 C 
HETATM   19  C8  UNL     1      26.193   3.244  50.336  1.00  0.00     0.020 C 
HETATM   20  C9  UNL     1      26.975   3.969  49.309  1.00  0.00     0.002 C 
HETATM   21  C10 UNL     1      26.529   5.315  48.902  1.00  0.00     0.012 C 
HETATM   22  C11 UNL     1      25.368   5.914  49.605  1.00  0.00     0.052 C 
HETATM   23  C15 UNL     1      24.785   5.123  50.701  1.00  0.00     0.022 C 
HETATM   24  N2  UNL     1      24.438   5.748  51.763  1.00  0.00    -0.307 NA
HETATM   25  H22 UNL     1      24.042   5.290  52.566  1.00  0.00     0.186 HD
BRANCH  22  26
HETATM   26  C12 UNL     1      25.769   7.313  50.109  1.00  0.00     0.133 C 
BRANCH  26  27
HETATM   27  N1  UNL     1      27.096   7.667  49.714  1.00  0.00    -0.361 N 
HETATM   28  C13 UNL     1      27.666   8.976  49.815  1.00  0.00     0.213 C 
HETATM   29  C14 UNL     1      29.071   9.211  49.364  1.00  0.00     0.117 C 
HETATM   30  O1  UNL     1      26.991   9.920  50.279  1.00  0.00    -0.274 OA
HETATM   31  H18 UNL     1      27.744   6.938  49.310  1.00  0.00     0.162 HD
ENDBRANCH  26  27
ENDBRANCH  22  26
ENDBRANCH   5  17
TORSDOF 3
ENDMDL
MODEL 4
REMARK VINA RESULT:      -8.5      1.718      2.167
REMARK  3 active torsions:
REMARK  status: ('A' for Active; 'I' for Inactive)
REMARK    1  A    between atoms: C5_5  and  C6_6 
REMARK    2  A    between atoms: C11_11  and  C12_12 
REMARK    3  A    between atoms: C12_12  and  N1_13 
REMARK       I    between atoms: N1_13  and  C13_14 
ROOT
HETATM    1  C1  UNL     1      19.587   0.971  50.536  1.00  0.00     0.038 C 
HETATM    2  C2  UNL     1      20.622   0.226  51.286  1.00  0.00    -0.002 C 
HETATM    3  C3  UNL     1      21.941   0.380  51.528  1.00  0.00     0.028 C 
HETATM    4  C4  UNL     1      22.633   1.524  50.967  1.00  0.00     0.034 C 
HETATM    5  C5  UNL     1      23.861   1.955  50.998  1.00  0.00    -0.044 C 
HETATM    6  C16 UNL     1      24.920   1.152  51.687  1.00  0.00     0.185 C 
HETATM    7  N3  UNL     1      25.509   1.837  52.802  1.00  0.00    -0.279 NA
HETATM    8  C17 UNL     1      26.098   1.237  53.778  1.00  0.00     0.226 C 
HETATM    9  N4  UNL     1      26.171  -0.179  53.752  1.00  0.00    -0.254 NA
HETATM   10  C18 UNL     1      25.170  -0.866  54.127  1.00  0.00     0.131 C 
HETATM   11  C19 UNL     1      23.813  -0.854  54.635  1.00  0.00     0.008 A 
HETATM   12  C20 UNL     1      23.053  -0.886  55.707  1.00  0.00     0.017 A 
HETATM   13  C21 UNL     1      21.890  -0.810  54.838  1.00  0.00     0.031 A 
HETATM   14  C22 UNL     1      22.653  -0.777  53.764  1.00  0.00     0.044 A 
HETATM   15  N5  UNL     1      22.354  -0.699  52.354  1.00  0.00    -0.356 N 
HETATM   16  H29 UNL     1      22.484  -1.663  52.006  1.00  0.00     0.166 HD
ENDROOT
BRANCH   5  17
HETATM   17  C6  UNL     1      24.355   3.187  50.339  1.00  0.00     0.022 C 
HETATM   18  C7  UNL     1      23.853   3.188  48.932  1.00  0.00     0.027 C 
HETATM   19  C8  UNL     1      25.871   3.262  50.292  1.00  0.00     0.020 C 
HETATM   20  C9  UNL     1      26.297   4.472  49.552  1.00  0.00     0.002 C 
HETATM   21  C10 UNL     1      25.404   5.646  49.545  1.00  0.00     0.012 C 
HETATM   22  C11 UNL     1      24.161   5.590  50.353  1.00  0.00     0.052 C 
HETATM   23  C15 UNL     1      23.949   4.368  51.146  1.00  0.00     0.022 C 
HETATM   24  N2  UNL     1      23.488   4.506  52.333  1.00  0.00    -0.307 NA
HETATM   25  H22 UNL     1      23.322   3.730  52.952  1.00  0.00     0.186 HD
BRANCH  22  26
HETATM   26  C12 UNL     1      24.109   6.833  51.260  1.00  0.00     0.133 C 
BRANCH  26  27
HETATM   27  N1  UNL     1      23.099   7.757  50.849  1.00  0.00    -0.361 N 
HETATM   28  C13 UNL     1      21.702   7.463  50.751  1.00  0.00     0.213 C 
HETATM   29  C14 UNL     1      20.749   8.525  50.307  1.00  0.00     0.117 C 
HETATM   30  O1  UNL     1      21.279   6.321  51.035  1.00  0.00    -0.274 OA
HETATM   31  H18 UNL     1      23.357   8.746  50.589  1.00  0.00     0.162 HD
ENDBRANCH  26  27
ENDBRANCH  22  26
ENDBRANCH   5  17
TORSDOF 3
ENDMDL
MODEL 5
REMARK VINA RESULT:      -8.3      1.641      2.738
REMARK  3 active torsions:
REMARK  status: ('A' for Active; 'I' for Inactive)
REMARK    1  A    between atoms: C5_5  and  C6_6 
REMARK    2  A    between atoms: C11_11  and  C12_12 
REMARK    3  A    between atoms: C12_12  and  N1_13 
REMARK       I    between atoms: N1_13  and  C13_14 
ROOT
HETATM    1  C1  UNL     1      20.391   0.243  54.053  1.00  0.00     0.038 C 
HETATM    2  C2  UNL     1      21.797  -0.183  53.873  1.00  0.00    -0.002 C 
HETATM    3  C3  UNL     1      22.855   0.250  53.156  1.00  0.00     0.028 C 
HETATM    4  C4  UNL     1      22.706   1.418  52.310  1.00  0.00     0.034 C 
HETATM    5  C5  UNL     1      23.495   2.074  51.509  1.00  0.00    -0.044 C 
HETATM    6  C16 UNL     1      24.890   1.587  51.266  1.00  0.00     0.185 C 
HETATM    7  N3  UNL     1      25.893   2.516  51.701  1.00  0.00    -0.279 NA
HETATM    8  C17 UNL     1      27.101   2.176  51.996  1.00  0.00     0.226 C 
HETATM    9  N4  UNL     1      27.461   0.809  51.883  1.00  0.00    -0.254 NA
HETATM   10  C18 UNL     1      27.163   0.002  52.817  1.00  0.00     0.131 C 
HETATM   11  C19 UNL     1      26.541  -0.175  54.115  1.00  0.00     0.008 A 
HETATM   12  C20 UNL     1      26.728  -0.205  55.415  1.00  0.00     0.017 A 
HETATM   13  C21 UNL     1      25.307  -0.469  55.574  1.00  0.00     0.031 A 
HETATM   14  C22 UNL     1      25.120  -0.438  54.270  1.00  0.00     0.044 A 
HETATM   15  N5  UNL     1      23.949  -0.610  53.445  1.00  0.00    -0.356 N 
HETATM   16  H29 UNL     1      24.031  -1.570  53.072  1.00  0.00     0.166 HD
ENDROOT
BRANCH   5  17
HETATM   17  C6  UNL     1      23.119   3.276  50.729  1.00  0.00     0.022 C 
HETATM   18  C7  UNL     1      21.676   3.154  50.362  1.00  0.00     0.027 C 
HETATM   19  C8  UNL     1      23.916   3.417  49.443  1.00  0.00     0.020 C 
HETATM   20  C9  UNL     1      23.437   4.588  48.675  1.00  0.00     0.002 C 
HETATM   21  C10 UNL     1      22.835   5.717  49.410  1.00  0.00     0.012 C 
HETATM   22  C11 UNL     1      22.818   5.662  50.892  1.00  0.00     0.052 C 
HETATM   23  C15 UNL     1      23.460   4.493  51.513  1.00  0.00     0.022 C 
HETATM   24  N2  UNL     1      24.175   4.695  52.556  1.00  0.00    -0.307 NA
HETATM   25  H22 UNL     1      24.661   3.958  53.041  1.00  0.00     0.186 HD
BRANCH  22  26
HETATM   26  C12 UNL     1      23.434   6.964  51.437  1.00  0.00     0.133 C 
BRANCH  26  27
HETATM   27  N1  UNL     1      24.804   7.111  51.057  1.00  0.00    -0.361 N 
HETATM   28  C13 UNL     1      25.302   8.071  50.120  1.00  0.00     0.213 C 
HETATM   29  C14 UNL     1      26.764   8.118  49.811  1.00  0.00     0.117 C 
HETATM   30  O1  UNL     1      24.518   8.867  49.559  1.00  0.00    -0.274 OA
HETATM   31  H18 UNL     1      25.543   6.485  51.476  1.00  0.00     0.162 HD
ENDBRANCH  26  27
ENDBRANCH  22  26
ENDBRANCH   5  17
TORSDOF 3
ENDMDL
MODEL 6
REMARK VINA RESULT:      -8.3      1.953      3.496
REMARK  3 active torsions:
REMARK  status: ('A' for Active; 'I' for Inactive)
REMARK    1  A    between atoms: C5_5  and  C6_6 
REMARK    2  A    between atoms: C11_11  and  C12_12 
REMARK    3  A    between atoms: C12_12  and  N1_13 
REMARK       I    between atoms: N1_13  and  C13_14 
ROOT
HETATM    1  C1  UNL     1      27.079  -0.454  52.616  1.00  0.00     0.038 C 
HETATM    2  C2  UNL     1      25.731  -0.082  53.101  1.00  0.00    -0.002 C 
HETATM    3  C3  UNL     1      24.833   0.884  52.817  1.00  0.00     0.028 C 
HETATM    4  C4  UNL     1      25.149   1.866  51.798  1.00  0.00     0.034 C 
HETATM    5  C5  UNL     1      24.532   2.898  51.301  1.00  0.00    -0.044 C 
HETATM    6  C16 UNL     1      23.206   3.319  51.856  1.00  0.00     0.185 C 
HETATM    7  N3  UNL     1      22.144   3.241  50.894  1.00  0.00    -0.279 NA
HETATM    8  C17 UNL     1      20.901   3.130  51.213  1.00  0.00     0.226 C 
HETATM    9  N4  UNL     1      20.560   3.084  52.588  1.00  0.00    -0.254 NA
HETATM   10  C18 UNL     1      20.668   1.990  53.225  1.00  0.00     0.131 C 
HETATM   11  C19 UNL     1      21.029   0.587  53.174  1.00  0.00     0.008 A 
HETATM   12  C20 UNL     1      20.596  -0.641  52.998  1.00  0.00     0.017 A 
HETATM   13  C21 UNL     1      21.958  -1.109  53.197  1.00  0.00     0.031 A 
HETATM   14  C22 UNL     1      22.392   0.124  53.372  1.00  0.00     0.044 A 
HETATM   15  N5  UNL     1      23.699   0.671  53.646  1.00  0.00    -0.356 N 
HETATM   16  H29 UNL     1      23.684   0.890  54.655  1.00  0.00     0.166 HD
ENDROOT
BRANCH   5  17
HETATM   17  C6  UNL     1      25.058   3.779  50.232  1.00  0.00     0.022 C 
HETATM   18  C7  UNL     1      24.458   3.338  48.936  1.00  0.00     0.027 C 
HETATM   19  C8  UNL     1      26.569   3.701  50.095  1.00  0.00     0.020 C 
HETATM   20  C9  UNL     1      27.020   4.539  48.961  1.00  0.00     0.002 C 
HETATM   21  C10 UNL     1      26.208   5.712  48.582  1.00  0.00     0.012 C 
HETATM   22  C11 UNL     1      25.025   6.046  49.413  1.00  0.00     0.052 C 
HETATM   23  C15 UNL     1      24.790   5.197  50.591  1.00  0.00     0.022 C 
HETATM   24  N2  UNL     1      24.425   5.775  51.674  1.00  0.00    -0.307 NA
HETATM   25  H22 UNL     1      24.253   5.277  52.532  1.00  0.00     0.186 HD
BRANCH  22  26
HETATM   26  C12 UNL     1      25.121   7.525  49.829  1.00  0.00     0.133 C 
BRANCH  26  27
HETATM   27  N1  UNL     1      24.101   8.322  49.222  1.00  0.00    -0.361 N 
HETATM   28  C13 UNL     1      22.756   8.442  49.695  1.00  0.00     0.213 C 
HETATM   29  C14 UNL     1      21.787   9.313  48.963  1.00  0.00     0.117 C 
HETATM   30  O1  UNL     1      22.392   7.820  50.716  1.00  0.00    -0.274 OA
HETATM   31  H18 UNL     1      24.312   8.885  48.355  1.00  0.00     0.162 HD
ENDBRANCH  26  27
ENDBRANCH  22  26
ENDBRANCH   5  17
TORSDOF 3
ENDMDL
MODEL 7
REMARK VINA RESULT:      -8.2      2.659      4.221
REMARK  3 active torsions:
REMARK  status: ('A' for Active; 'I' for Inactive)
REMARK    1  A    between atoms: C5_5  and  C6_6 
REMARK    2  A    between atoms: C11_11  and  C12_12 
REMARK    3  A    between atoms: C12_12  and  N1_13 
REMARK       I    between atoms: N1_13  and  C13_14 
ROOT
HETATM    1  C1  UNL     1      27.017   0.808  51.946  1.00  0.00     0.038 C 
HETATM    2  C2  UNL     1      25.637   1.011  52.443  1.00  0.00    -0.002 C 
HETATM    3  C3  UNL     1      24.677   1.944  52.277  1.00  0.00     0.028 C 
HETATM    4  C4  UNL     1      24.938   3.083  51.418  1.00  0.00     0.034 C 
HETATM    5  C5  UNL     1      24.257   4.132  51.057  1.00  0.00    -0.044 C 
HETATM    6  C16 UNL     1      22.896   4.375  51.631  1.00  0.00     0.185 C 
HETATM    7  N3  UNL     1      21.858   4.364  50.640  1.00  0.00    -0.279 NA
HETATM    8  C17 UNL     1      20.620   4.123  50.906  1.00  0.00     0.226 C 
HETATM    9  N4  UNL     1      20.261   3.854  52.251  1.00  0.00    -0.254 NA
HETATM   10  C18 UNL     1      20.437   2.690  52.727  1.00  0.00     0.131 C 
HETATM   11  C19 UNL     1      20.899   1.337  52.484  1.00  0.00     0.008 A 
HETATM   12  C20 UNL     1      20.558   0.121  52.122  1.00  0.00     0.017 A 
HETATM   13  C21 UNL     1      21.947  -0.276  52.289  1.00  0.00     0.031 A 
HETATM   14  C22 UNL     1      22.288   0.945  52.651  1.00  0.00     0.044 A 
HETATM   15  N5  UNL     1      23.547   1.536  53.035  1.00  0.00    -0.356 N 
HETATM   16  H29 UNL     1      23.500   1.605  54.065  1.00  0.00     0.166 HD
ENDROOT
BRANCH   5  17
HETATM   17  C6  UNL     1      24.736   5.192  50.140  1.00  0.00     0.022 C 
HETATM   18  C7  UNL     1      24.559   6.508  50.826  1.00  0.00     0.027 C 
HETATM   19  C8  UNL     1      23.958   5.239  48.836  1.00  0.00     0.020 C 
HETATM   20  C9  UNL     1      24.431   6.367  48.003  1.00  0.00     0.002 C 
HETATM   21  C10 UNL     1      25.825   6.825  48.159  1.00  0.00     0.012 C 
HETATM   22  C11 UNL     1      26.713   6.074  49.080  1.00  0.00     0.052 C 
HETATM   23  C15 UNL     1      26.133   4.888  49.729  1.00  0.00     0.022 C 
HETATM   24  N2  UNL     1      26.869   3.845  49.824  1.00  0.00    -0.307 NA
HETATM   25  H22 UNL     1      26.554   2.985  50.241  1.00  0.00     0.186 HD
BRANCH  22  26
HETATM   26  C12 UNL     1      27.998   5.694  48.321  1.00  0.00     0.133 C 
BRANCH  26  27
HETATM   27  N1  UNL     1      29.165   6.261  48.921  1.00  0.00    -0.361 N 
HETATM   28  C13 UNL     1      30.508   5.833  48.680  1.00  0.00     0.213 C 
HETATM   29  C14 UNL     1      31.641   6.516  49.375  1.00  0.00     0.117 C 
HETATM   30  O1  UNL     1      30.735   4.890  47.891  1.00  0.00    -0.274 OA
HETATM   31  H18 UNL     1      29.077   7.063  49.602  1.00  0.00     0.162 HD
ENDBRANCH  26  27
ENDBRANCH  22  26
ENDBRANCH   5  17
TORSDOF 3
ENDMDL
MODEL 8
REMARK VINA RESULT:      -8.2      3.037      5.810
REMARK  3 active torsions:
REMARK  status: ('A' for Active; 'I' for Inactive)
REMARK    1  A    between atoms: C5_5  and  C6_6 
REMARK    2  A    between atoms: C11_11  and  C12_12 
REMARK    3  A    between atoms: C12_12  and  N1_13 
REMARK       I    between atoms: N1_13  and  C13_14 
ROOT
HETATM    1  C1  UNL     1      26.984   4.132  49.088  1.00  0.00     0.038 C 
HETATM    2  C2  UNL     1      26.598   3.383  50.304  1.00  0.00    -0.002 C 
HETATM    3  C3  UNL     1      25.452   2.874  50.804  1.00  0.00     0.028 C 
HETATM    4  C4  UNL     1      24.221   3.035  50.055  1.00  0.00     0.034 C 
HETATM    5  C5  UNL     1      22.982   2.686  50.245  1.00  0.00    -0.044 C 
HETATM    6  C16 UNL     1      22.583   2.003  51.517  1.00  0.00     0.185 C 
HETATM    7  N3  UNL     1      22.075   0.678  51.309  1.00  0.00    -0.279 NA
HETATM    8  C17 UNL     1      22.075  -0.237  52.216  1.00  0.00     0.226 C 
HETATM    9  N4  UNL     1      22.602   0.081  53.493  1.00  0.00    -0.254 NA
HETATM   10  C18 UNL     1      23.859   0.056  53.677  1.00  0.00     0.131 C 
HETATM   11  C19 UNL     1      25.165  -0.184  53.095  1.00  0.00     0.008 A 
HETATM   12  C20 UNL     1      26.119  -1.064  52.891  1.00  0.00     0.017 A 
HETATM   13  C21 UNL     1      26.868  -0.032  52.192  1.00  0.00     0.031 A 
HETATM   14  C22 UNL     1      25.910   0.850  52.397  1.00  0.00     0.044 A 
HETATM   15  N5  UNL     1      25.766   2.239  52.035  1.00  0.00    -0.356 N 
HETATM   16  H29 UNL     1      25.969   2.758  52.906  1.00  0.00     0.166 HD
ENDROOT
BRANCH   5  17
HETATM   17  C6  UNL     1      21.860   2.959  49.317  1.00  0.00     0.022 C 
HETATM   18  C7  UNL     1      21.258   1.649  48.924  1.00  0.00     0.027 C 
HETATM   19  C8  UNL     1      22.305   3.665  48.047  1.00  0.00     0.020 C 
HETATM   20  C9  UNL     1      21.155   3.835  47.131  1.00  0.00     0.002 C 
HETATM   21  C10 UNL     1      19.801   3.934  47.708  1.00  0.00     0.012 C 
HETATM   22  C11 UNL     1      19.665   3.946  49.185  1.00  0.00     0.052 C 
HETATM   23  C15 UNL     1      20.916   3.911  49.960  1.00  0.00     0.022 C 
HETATM   24  N2  UNL     1      20.994   4.664  50.992  1.00  0.00    -0.307 NA
HETATM   25  H22 UNL     1      21.813   4.715  51.575  1.00  0.00     0.186 HD
BRANCH  22  26
HETATM   26  C12 UNL     1      18.819   5.167  49.589  1.00  0.00     0.133 C 
BRANCH  26  27
HETATM   27  N1  UNL     1      17.501   4.796  50.002  1.00  0.00    -0.361 N 
HETATM   28  C13 UNL     1      17.171   4.174  51.247  1.00  0.00     0.213 C 
HETATM   29  C14 UNL     1      15.748   3.838  51.555  1.00  0.00     0.117 C 
HETATM   30  O1  UNL     1      18.070   3.910  52.075  1.00  0.00    -0.274 OA
HETATM   31  H18 UNL     1      16.675   4.978  49.371  1.00  0.00     0.162 HD
ENDBRANCH  26  27
ENDBRANCH  22  26
ENDBRANCH   5  17
TORSDOF 3
ENDMDL
MODEL 9
REMARK VINA RESULT:      -8.0      4.602      8.434
REMARK  3 active torsions:
REMARK  status: ('A' for Active; 'I' for Inactive)
REMARK    1  A    between atoms: C5_5  and  C6_6 
REMARK    2  A    between atoms: C11_11  and  C12_12 
REMARK    3  A    between atoms: C12_12  and  N1_13 
REMARK       I    between atoms: N1_13  and  C13_14 
ROOT
HETATM    1  C1  UNL     1      21.397  -0.259  54.652  1.00  0.00     0.038 C 
HETATM    2  C2  UNL     1      21.956   0.101  53.329  1.00  0.00    -0.002 C 
HETATM    3  C3  UNL     1      21.454   0.500  52.142  1.00  0.00     0.028 C 
HETATM    4  C4  UNL     1      20.020   0.654  51.998  1.00  0.00     0.034 C 
HETATM    5  C5  UNL     1      19.231   1.004  51.023  1.00  0.00    -0.044 C 
HETATM    6  C16 UNL     1      19.797   1.283  49.665  1.00  0.00     0.185 C 
HETATM    7  N3  UNL     1      19.591   2.637  49.237  1.00  0.00    -0.279 NA
HETATM    8  C17 UNL     1      20.320   3.225  48.352  1.00  0.00     0.226 C 
HETATM    9  N4  UNL     1      21.384   2.495  47.764  1.00  0.00    -0.254 NA
HETATM   10  C18 UNL     1      22.487   2.385  48.385  1.00  0.00     0.131 C 
HETATM   11  C19 UNL     1      23.246   2.711  49.577  1.00  0.00     0.008 A 
HETATM   12  C20 UNL     1      24.092   3.550  50.131  1.00  0.00     0.017 A 
HETATM   13  C21 UNL     1      24.044   2.741  51.338  1.00  0.00     0.031 A 
HETATM   14  C22 UNL     1      23.195   1.900  50.781  1.00  0.00     0.044 A 
HETATM   15  N5  UNL     1      22.549   0.702  51.260  1.00  0.00    -0.356 N 
HETATM   16  H29 UNL     1      23.080  -0.072  50.827  1.00  0.00     0.166 HD
ENDROOT
BRANCH   5  17
HETATM   17  C6  UNL     1      17.755   1.101  51.105  1.00  0.00     0.022 C 
HETATM   18  C7  UNL     1      17.261  -0.070  51.891  1.00  0.00     0.027 C 
HETATM   19  C8  UNL     1      17.086   1.063  49.742  1.00  0.00     0.020 C 
HETATM   20  C9  UNL     1      15.614   1.081  49.899  1.00  0.00     0.002 C 
HETATM   21  C10 UNL     1      15.038   1.731  51.093  1.00  0.00     0.012 C 
HETATM   22  C11 UNL     1      15.960   2.413  52.035  1.00  0.00     0.052 C 
HETATM   23  C15 UNL     1      17.384   2.427  51.665  1.00  0.00     0.022 C 
HETATM   24  N2  UNL     1      18.035   3.513  51.861  1.00  0.00    -0.307 NA
HETATM   25  H22 UNL     1      19.008   3.619  51.628  1.00  0.00     0.186 HD
BRANCH  22  26
HETATM   26  C12 UNL     1      15.451   3.848  52.265  1.00  0.00     0.133 C 
BRANCH  26  27
HETATM   27  N1  UNL     1      14.568   3.933  53.386  1.00  0.00    -0.361 N 
HETATM   28  C13 UNL     1      13.154   4.137  53.308  1.00  0.00     0.213 C 
HETATM   29  C14 UNL     1      12.344   4.205  54.562  1.00  0.00     0.117 C 
HETATM   30  O1  UNL     1      12.597   4.258  52.196  1.00  0.00    -0.274 OA
HETATM   31  H18 UNL     1      14.944   3.841  54.367  1.00  0.00     0.162 HD
ENDBRANCH  26  27
ENDBRANCH  22  26
ENDBRANCH   5  17
TORSDOF 3
ENDMDL
