MODEL 1
REMARK VINA RESULT:      -9.2      0.000      0.000
REMARK  7 active torsions:
REMARK  status: ('A' for Active; 'I' for Inactive)
REMARK    1  A    between atoms: C6_6  and  C7_7 
REMARK    2  A    between atoms: C7_7  and  N1_8 
REMARK    3  A    between atoms: N1_8  and  C8_9 
REMARK       I    between atoms: N1_8  and  C14_17 
REMARK    4  A    between atoms: C8_9  and  C9_10 
REMARK    5  A    between atoms: N2_13  and  O1_14 
REMARK       I    between atoms: C14_17  and  N3_19 
REMARK    6  A    between atoms: N3_19  and  C15_20 
REMARK    7  A    between atoms: C21_26  and  O3_27 
ROOT
HETATM    1  N1  UNL     1      24.480   1.701  52.110  1.00  0.00    -0.326 N 
HETATM    2  C14 UNL     1      24.989   2.656  51.143  1.00  0.00     0.323 C 
HETATM    3  O2  UNL     1      26.093   3.244  51.418  1.00  0.00    -0.247 OA
HETATM    4  N3  UNL     1      24.505   3.107  49.888  1.00  0.00    -0.309 N 
HETATM    5  H19 UNL     1      23.599   2.645  49.620  1.00  0.00     0.170 HD
ENDROOT
BRANCH   1   6
HETATM    6  C7  UNL     1      25.351   1.574  53.262  1.00  0.00     0.169 C 
BRANCH   6   7
HETATM    7  C6  UNL     1      26.363   0.522  53.173  1.00  0.00    -0.006 A 
HETATM    8  C5  UNL     1      26.097  -0.778  52.742  1.00  0.00     0.012 A 
HETATM    9  C4  UNL     1      27.002  -1.803  52.650  1.00  0.00     0.001 A 
HETATM   10  C3  UNL     1      28.306  -1.551  53.012  1.00  0.00     0.009 A 
HETATM   11  C2  UNL     1      28.670  -0.301  53.450  1.00  0.00    -0.028 A 
HETATM   12  C1  UNL     1      30.085   0.000  53.850  1.00  0.00     0.051 C 
HETATM   13  C21 UNL     1      27.690   0.679  53.513  1.00  0.00     0.079 A 
BRANCH  13  14
HETATM   14  O3  UNL     1      28.125   1.916  53.958  1.00  0.00    -0.360 OA
HETATM   15  H25 UNL     1      29.028   2.124  54.331  1.00  0.00     0.217 HD
ENDBRANCH  13  14
ENDBRANCH   6   7
ENDBRANCH   1   6
BRANCH   1  16
HETATM   16  C8  UNL     1      23.222   1.123  51.707  1.00  0.00     0.162 C 
BRANCH  16  17
HETATM   17  C9  UNL     1      22.539   0.323  52.757  1.00  0.00    -0.063 C 
HETATM   18  C10 UNL     1      21.640   0.903  53.588  1.00  0.00    -0.006 C 
HETATM   19  C11 UNL     1      20.805   0.360  54.725  1.00  0.00     0.147 C 
HETATM   20  N2  UNL     1      21.256  -0.974  55.082  1.00  0.00    -0.196 NA
HETATM   21  C12 UNL     1      22.607  -1.219  54.613  1.00  0.00     0.125 C 
HETATM   22  C13 UNL     1      22.686  -1.121  53.083  1.00  0.00     0.052 C 
BRANCH  20  23
HETATM   23  O1  UNL     1      20.434  -1.886  54.546  1.00  0.00    -0.313 OA
HETATM   24  H14 UNL     1      20.778  -2.823  54.694  1.00  0.00     0.237 HD
ENDBRANCH  20  23
ENDBRANCH  16  17
ENDBRANCH   1  16
BRANCH   4  25
HETATM   25  C15 UNL     1      25.474   4.059  49.435  1.00  0.00     0.036 A 
HETATM   26  C16 UNL     1      24.979   5.339  49.336  1.00  0.00     0.029 A 
HETATM   27  C17 UNL     1      25.814   6.375  48.905  1.00  0.00     0.002 A 
HETATM   28  C18 UNL     1      27.111   6.013  48.605  1.00  0.00     0.000 A 
HETATM   29  C19 UNL     1      27.606   4.731  48.705  1.00  0.00     0.002 A 
HETATM   30  C20 UNL     1      26.753   3.715  49.137  1.00  0.00     0.029 A 
ENDBRANCH   4  25
TORSDOF 7
ENDMDL
MODEL 2
REMARK VINA RESULT:      -8.8      2.360      6.070
REMARK  7 active torsions:
REMARK  status: ('A' for Active; 'I' for Inactive)
REMARK    1  A    between atoms: C6_6  and  C7_7 
REMARK    2  A    between atoms: C7_7  and  N1_8 
REMARK    3  A    between atoms: N1_8  and  C8_9 
REMARK       I    between atoms: N1_8  and  C14_17 
REMARK    4  A    between atoms: C8_9  and  C9_10 
REMARK    5  A    between atoms: N2_13  and  O1_14 
REMARK       I    between atoms: C14_17  and  N3_19 
REMARK    6  A    between atoms: N3_19  and  C15_20 
REMARK    7  A    between atoms: C21_26  and  O3_27 
ROOT
HETATM    1  N1  UNL     1      24.867   2.887  51.652  1.00  0.00    -0.326 N 
HETATM    2  C14 UNL     1      25.931   2.117  52.270  1.00  0.00     0.323 C 
HETATM    3  O2  UNL     1      26.769   1.538  51.493  1.00  0.00    -0.247 OA
HETATM    4  N3  UNL     1      26.266   1.850  53.622  1.00  0.00    -0.309 N 
HETATM    5  H19 UNL     1      25.604   2.311  54.296  1.00  0.00     0.170 HD
ENDROOT
BRANCH   1   6
HETATM    6  C7  UNL     1      24.948   2.867  50.205  1.00  0.00     0.169 C 
BRANCH   6   7
HETATM    7  C6  UNL     1      25.143   4.168  49.567  1.00  0.00    -0.006 A 
HETATM    8  C5  UNL     1      24.099   4.989  49.141  1.00  0.00     0.012 A 
HETATM    9  C4  UNL     1      24.225   6.210  48.529  1.00  0.00     0.001 A 
HETATM   10  C3  UNL     1      25.494   6.694  48.303  1.00  0.00     0.009 A 
HETATM   11  C2  UNL     1      26.590   5.959  48.687  1.00  0.00    -0.028 A 
HETATM   12  C1  UNL     1      27.984   6.465  48.452  1.00  0.00     0.051 C 
HETATM   13  C21 UNL     1      26.372   4.735  49.299  1.00  0.00     0.079 A 
BRANCH  13  14
HETATM   14  O3  UNL     1      27.519   4.049  49.664  1.00  0.00    -0.360 OA
HETATM   15  H25 UNL     1      28.316   3.885  49.086  1.00  0.00     0.217 HD
ENDBRANCH  13  14
ENDBRANCH   6   7
ENDBRANCH   1   6
BRANCH   1  16
HETATM   16  C8  UNL     1      23.972   3.471  52.621  1.00  0.00     0.162 C 
BRANCH  16  17
HETATM   17  C9  UNL     1      22.532   3.395  52.263  1.00  0.00    -0.063 C 
HETATM   18  C10 UNL     1      21.881   2.207  52.274  1.00  0.00    -0.006 C 
HETATM   19  C11 UNL     1      20.452   1.825  51.965  1.00  0.00     0.147 C 
HETATM   20  N2  UNL     1      19.762   2.940  51.339  1.00  0.00    -0.196 NA
HETATM   21  C12 UNL     1      20.699   3.890  50.771  1.00  0.00     0.125 C 
HETATM   22  C13 UNL     1      21.605   4.487  51.858  1.00  0.00     0.052 C 
BRANCH  20  23
HETATM   23  O1  UNL     1      18.999   3.564  52.246  1.00  0.00    -0.313 OA
HETATM   24  H14 UNL     1      18.264   2.961  52.586  1.00  0.00     0.237 HD
ENDBRANCH  20  23
ENDBRANCH  16  17
ENDBRANCH   1  16
BRANCH   4  25
HETATM   25  C15 UNL     1      27.432   1.020  53.559  1.00  0.00     0.036 A 
HETATM   26  C16 UNL     1      27.148  -0.306  53.323  1.00  0.00     0.029 A 
HETATM   27  C17 UNL     1      28.190  -1.234  53.237  1.00  0.00     0.002 A 
HETATM   28  C18 UNL     1      29.461  -0.724  53.402  1.00  0.00     0.000 A 
HETATM   29  C19 UNL     1      29.745   0.604  53.638  1.00  0.00     0.002 A 
HETATM   30  C20 UNL     1      28.688   1.510  53.719  1.00  0.00     0.029 A 
ENDBRANCH   4  25
TORSDOF 7
ENDMDL
MODEL 3
REMARK VINA RESULT:      -8.6      2.210      5.580
REMARK  7 active torsions:
REMARK  status: ('A' for Active; 'I' for Inactive)
REMARK    1  A    between atoms: C6_6  and  C7_7 
REMARK    2  A    between atoms: C7_7  and  N1_8 
REMARK    3  A    between atoms: N1_8  and  C8_9 
REMARK       I    between atoms: N1_8  and  C14_17 
REMARK    4  A    between atoms: C8_9  and  C9_10 
REMARK    5  A    between atoms: N2_13  and  O1_14 
REMARK       I    between atoms: C14_17  and  N3_19 
REMARK    6  A    between atoms: N3_19  and  C15_20 
REMARK    7  A    between atoms: C21_26  and  O3_27 
ROOT
HETATM    1  N1  UNL     1      24.816   1.921  52.654  1.00  0.00    -0.326 N 
HETATM    2  C14 UNL     1      24.379   2.982  51.765  1.00  0.00     0.323 C 
HETATM    3  O2  UNL     1      23.679   2.648  50.746  1.00  0.00    -0.247 OA
HETATM    4  N3  UNL     1      24.567   4.388  51.778  1.00  0.00    -0.309 N 
HETATM    5  H19 UNL     1      25.136   4.707  52.603  1.00  0.00     0.170 HD
ENDROOT
BRANCH   1   6
HETATM    6  C7  UNL     1      24.360   0.617  52.214  1.00  0.00     0.169 C 
BRANCH   6   7
HETATM    7  C6  UNL     1      23.306   0.012  53.028  1.00  0.00    -0.006 A 
HETATM    8  C5  UNL     1      23.544  -0.697  54.205  1.00  0.00     0.012 A 
HETATM    9  C4  UNL     1      22.598  -1.293  54.998  1.00  0.00     0.001 A 
HETATM   10  C3  UNL     1      21.279  -1.196  54.618  1.00  0.00     0.009 A 
HETATM   11  C2  UNL     1      20.940  -0.517  53.473  1.00  0.00    -0.028 A 
HETATM   12  C1  UNL     1      19.509  -0.396  53.037  1.00  0.00     0.051 C 
HETATM   13  C21 UNL     1      21.960   0.056  52.729  1.00  0.00     0.079 A 
BRANCH  13  14
HETATM   14  O3  UNL     1      21.549   0.729  51.590  1.00  0.00    -0.360 OA
HETATM   15  H25 UNL     1      20.605   0.902  51.316  1.00  0.00     0.217 HD
ENDBRANCH  13  14
ENDBRANCH   6   7
ENDBRANCH   1   6
BRANCH   1  16
HETATM   16  C8  UNL     1      25.616   2.412  53.749  1.00  0.00     0.162 C 
BRANCH  16  17
HETATM   17  C9  UNL     1      26.985   1.837  53.825  1.00  0.00    -0.063 C 
HETATM   18  C10 UNL     1      27.195   0.637  54.416  1.00  0.00    -0.006 C 
HETATM   19  C11 UNL     1      28.444  -0.185  54.640  1.00  0.00     0.147 C 
HETATM   20  N2  UNL     1      29.623   0.610  54.341  1.00  0.00    -0.196 NA
HETATM   21  C12 UNL     1      29.327   2.030  54.377  1.00  0.00     0.125 C 
HETATM   22  C13 UNL     1      28.269   2.398  53.327  1.00  0.00     0.052 C 
BRANCH  20  23
HETATM   23  O1  UNL     1      30.087   0.289  53.126  1.00  0.00    -0.313 OA
HETATM   24  H14 UNL     1      31.097   0.283  53.108  1.00  0.00     0.237 HD
ENDBRANCH  20  23
ENDBRANCH  16  17
ENDBRANCH   1  16
BRANCH   4  25
HETATM   25  C15 UNL     1      23.881   4.866  50.616  1.00  0.00     0.036 A 
HETATM   26  C16 UNL     1      22.583   5.251  50.865  1.00  0.00     0.029 A 
HETATM   27  C17 UNL     1      21.790   5.738  49.821  1.00  0.00     0.002 A 
HETATM   28  C18 UNL     1      22.398   5.795  48.585  1.00  0.00     0.000 A 
HETATM   29  C19 UNL     1      23.698   5.410  48.334  1.00  0.00     0.002 A 
HETATM   30  C20 UNL     1      24.468   4.927  49.393  1.00  0.00     0.029 A 
ENDBRANCH   4  25
TORSDOF 7
ENDMDL
MODEL 4
REMARK VINA RESULT:      -8.5      2.336      6.228
REMARK  7 active torsions:
REMARK  status: ('A' for Active; 'I' for Inactive)
REMARK    1  A    between atoms: C6_6  and  C7_7 
REMARK    2  A    between atoms: C7_7  and  N1_8 
REMARK    3  A    between atoms: N1_8  and  C8_9 
REMARK       I    between atoms: N1_8  and  C14_17 
REMARK    4  A    between atoms: C8_9  and  C9_10 
REMARK    5  A    between atoms: N2_13  and  O1_14 
REMARK       I    between atoms: C14_17  and  N3_19 
REMARK    6  A    between atoms: N3_19  and  C15_20 
REMARK    7  A    between atoms: C21_26  and  O3_27 
ROOT
HETATM    1  N1  UNL     1      24.935   3.193  51.321  1.00  0.00    -0.326 N 
HETATM    2  C14 UNL     1      25.842   2.285  51.999  1.00  0.00     0.323 C 
HETATM    3  O2  UNL     1      26.648   1.604  51.272  1.00  0.00    -0.247 OA
HETATM    4  N3  UNL     1      26.045   1.969  53.367  1.00  0.00    -0.309 N 
HETATM    5  H19 UNL     1      25.405   2.510  54.001  1.00  0.00     0.170 HD
ENDROOT
BRANCH   1   6
HETATM    6  C7  UNL     1      25.111   3.169  49.883  1.00  0.00     0.169 C 
BRANCH   6   7
HETATM    7  C6  UNL     1      25.833   4.309  49.318  1.00  0.00    -0.006 A 
HETATM    8  C5  UNL     1      27.203   4.311  49.059  1.00  0.00     0.012 A 
HETATM    9  C4  UNL     1      27.929   5.352  48.542  1.00  0.00     0.001 A 
HETATM   10  C3  UNL     1      27.265   6.520  48.243  1.00  0.00     0.009 A 
HETATM   11  C2  UNL     1      25.913   6.620  48.463  1.00  0.00    -0.028 A 
HETATM   12  C1  UNL     1      25.165   7.881  48.144  1.00  0.00     0.051 C 
HETATM   13  C21 UNL     1      25.255   5.517  48.988  1.00  0.00     0.079 A 
BRANCH  13  14
HETATM   14  O3  UNL     1      23.893   5.683  49.180  1.00  0.00    -0.360 OA
HETATM   15  H25 UNL     1      23.167   5.173  48.723  1.00  0.00     0.217 HD
ENDBRANCH  13  14
ENDBRANCH   6   7
ENDBRANCH   1   6
BRANCH   1  16
HETATM   16  C8  UNL     1      24.060   3.885  52.236  1.00  0.00     0.162 C 
BRANCH  16  17
HETATM   17  C9  UNL     1      22.611   3.628  52.026  1.00  0.00    -0.063 C 
HETATM   18  C10 UNL     1      22.084   2.409  52.291  1.00  0.00    -0.006 C 
HETATM   19  C11 UNL     1      20.679   1.861  52.179  1.00  0.00     0.147 C 
HETATM   20  N2  UNL     1      19.838   2.790  51.443  1.00  0.00    -0.196 NA
HETATM   21  C12 UNL     1      20.633   3.704  50.645  1.00  0.00     0.125 C 
HETATM   22  C13 UNL     1      21.555   4.552  51.534  1.00  0.00     0.052 C 
BRANCH  20  23
HETATM   23  O1  UNL     1      19.088   3.494  52.300  1.00  0.00    -0.313 OA
HETATM   24  H14 UNL     1      18.423   4.077  51.814  1.00  0.00     0.237 HD
ENDBRANCH  20  23
ENDBRANCH  16  17
ENDBRANCH   1  16
BRANCH   4  25
HETATM   25  C15 UNL     1      27.093   0.992  53.371  1.00  0.00     0.036 A 
HETATM   26  C16 UNL     1      28.329   1.516  53.676  1.00  0.00     0.029 A 
HETATM   27  C17 UNL     1      29.448   0.678  53.717  1.00  0.00     0.002 A 
HETATM   28  C18 UNL     1      29.209  -0.652  53.439  1.00  0.00     0.000 A 
HETATM   29  C19 UNL     1      27.972  -1.177  53.133  1.00  0.00     0.002 A 
HETATM   30  C20 UNL     1      26.871  -0.319  53.099  1.00  0.00     0.029 A 
ENDBRANCH   4  25
TORSDOF 7
ENDMDL
MODEL 5
REMARK VINA RESULT:      -8.5      2.415      5.038
REMARK  7 active torsions:
REMARK  status: ('A' for Active; 'I' for Inactive)
REMARK    1  A    between atoms: C6_6  and  C7_7 
REMARK    2  A    between atoms: C7_7  and  N1_8 
REMARK    3  A    between atoms: N1_8  and  C8_9 
REMARK       I    between atoms: N1_8  and  C14_17 
REMARK    4  A    between atoms: C8_9  and  C9_10 
REMARK    5  A    between atoms: N2_13  and  O1_14 
REMARK       I    between atoms: C14_17  and  N3_19 
REMARK    6  A    between atoms: N3_19  and  C15_20 
REMARK    7  A    between atoms: C21_26  and  O3_27 
ROOT
HETATM    1  N1  UNL     1      25.326   2.940  51.689  1.00  0.00    -0.326 N 
HETATM    2  C14 UNL     1      25.143   4.134  50.886  1.00  0.00     0.323 C 
HETATM    3  O2  UNL     1      24.184   4.921  51.208  1.00  0.00    -0.247 OA
HETATM    4  N3  UNL     1      25.831   4.653  49.759  1.00  0.00    -0.309 N 
HETATM    5  H19 UNL     1      26.631   4.039  49.463  1.00  0.00     0.170 HD
ENDROOT
BRANCH   1   6
HETATM    6  C7  UNL     1      24.353   2.846  52.759  1.00  0.00     0.169 C 
BRANCH   6   7
HETATM    7  C6  UNL     1      23.446   1.701  52.687  1.00  0.00    -0.006 A 
HETATM    8  C5  UNL     1      23.610   0.532  53.429  1.00  0.00     0.012 A 
HETATM    9  C4  UNL     1      22.799  -0.573  53.392  1.00  0.00     0.001 A 
HETATM   10  C3  UNL     1      21.711  -0.550  52.548  1.00  0.00     0.009 A 
HETATM   11  C2  UNL     1      21.462   0.557  51.774  1.00  0.00    -0.028 A 
HETATM   12  C1  UNL     1      20.283   0.607  50.848  1.00  0.00     0.051 C 
HETATM   13  C21 UNL     1      22.334   1.631  51.874  1.00  0.00     0.079 A 
BRANCH  13  14
HETATM   14  O3  UNL     1      22.023   2.716  51.070  1.00  0.00    -0.360 OA
HETATM   15  H25 UNL     1      21.261   3.347  51.202  1.00  0.00     0.217 HD
ENDBRANCH  13  14
ENDBRANCH   6   7
ENDBRANCH   1   6
BRANCH   1  16
HETATM   16  C8  UNL     1      26.416   2.120  51.219  1.00  0.00     0.162 C 
BRANCH  16  17
HETATM   17  C9  UNL     1      26.960   1.171  52.225  1.00  0.00    -0.063 C 
HETATM   18  C10 UNL     1      26.791  -0.164  52.075  1.00  0.00    -0.006 C 
HETATM   19  C11 UNL     1      27.222  -1.346  52.912  1.00  0.00     0.147 C 
HETATM   20  N2  UNL     1      27.705  -0.893  54.205  1.00  0.00    -0.196 NA
HETATM   21  C12 UNL     1      27.223   0.441  54.511  1.00  0.00     0.125 C 
HETATM   22  C13 UNL     1      27.718   1.458  53.473  1.00  0.00     0.052 C 
BRANCH  20  23
HETATM   23  O1  UNL     1      29.044  -0.887  54.208  1.00  0.00    -0.313 OA
HETATM   24  H14 UNL     1      29.416  -1.546  53.541  1.00  0.00     0.237 HD
ENDBRANCH  20  23
ENDBRANCH  16  17
ENDBRANCH   1  16
BRANCH   4  25
HETATM   25  C15 UNL     1      25.152   5.872  49.437  1.00  0.00     0.036 A 
HETATM   26  C16 UNL     1      25.668   6.973  50.081  1.00  0.00     0.029 A 
HETATM   27  C17 UNL     1      25.102   8.234  49.863  1.00  0.00     0.002 A 
HETATM   28  C18 UNL     1      24.037   8.268  48.987  1.00  0.00     0.000 A 
HETATM   29  C19 UNL     1      23.521   7.165  48.342  1.00  0.00     0.002 A 
HETATM   30  C20 UNL     1      24.102   5.919  48.577  1.00  0.00     0.029 A 
ENDBRANCH   4  25
TORSDOF 7
ENDMDL
MODEL 6
REMARK VINA RESULT:      -8.2      2.172      6.885
REMARK  7 active torsions:
REMARK  status: ('A' for Active; 'I' for Inactive)
REMARK    1  A    between atoms: C6_6  and  C7_7 
REMARK    2  A    between atoms: C7_7  and  N1_8 
REMARK    3  A    between atoms: N1_8  and  C8_9 
REMARK       I    between atoms: N1_8  and  C14_17 
REMARK    4  A    between atoms: C8_9  and  C9_10 
REMARK    5  A    between atoms: N2_13  and  O1_14 
REMARK       I    between atoms: C14_17  and  N3_19 
REMARK    6  A    between atoms: N3_19  and  C15_20 
REMARK    7  A    between atoms: C21_26  and  O3_27 
ROOT
HETATM    1  N1  UNL     1      23.690   2.516  51.742  1.00  0.00    -0.326 N 
HETATM    2  C14 UNL     1      24.883   2.144  52.479  1.00  0.00     0.323 C 
HETATM    3  O2  UNL     1      25.264   0.923  52.409  1.00  0.00    -0.247 OA
HETATM    4  N3  UNL     1      25.771   2.878  53.307  1.00  0.00    -0.309 N 
HETATM    5  H19 UNL     1      25.497   3.889  53.389  1.00  0.00     0.170 HD
ENDROOT
BRANCH   1   6
HETATM    6  C7  UNL     1      23.119   1.393  51.024  1.00  0.00     0.169 C 
BRANCH   6   7
HETATM    7  C6  UNL     1      21.891   0.840  51.595  1.00  0.00    -0.006 A 
HETATM    8  C5  UNL     1      20.610   1.202  51.180  1.00  0.00     0.012 A 
HETATM    9  C4  UNL     1      19.428   0.726  51.685  1.00  0.00     0.001 A 
HETATM   10  C3  UNL     1      19.485  -0.200  52.702  1.00  0.00     0.009 A 
HETATM   11  C2  UNL     1      20.701  -0.623  53.182  1.00  0.00    -0.028 A 
HETATM   12  C1  UNL     1      20.791  -1.633  54.289  1.00  0.00     0.051 C 
HETATM   13  C21 UNL     1      21.848  -0.089  52.613  1.00  0.00     0.079 A 
BRANCH  13  14
HETATM   14  O3  UNL     1      23.039  -0.560  53.140  1.00  0.00    -0.360 OA
HETATM   15  H25 UNL     1      23.478  -0.243  53.978  1.00  0.00     0.217 HD
ENDBRANCH  13  14
ENDBRANCH   6   7
ENDBRANCH   1   6
BRANCH   1  16
HETATM   16  C8  UNL     1      23.343   3.905  51.915  1.00  0.00     0.162 C 
BRANCH  16  17
HETATM   17  C9  UNL     1      24.155   4.854  51.109  1.00  0.00    -0.063 C 
HETATM   18  C10 UNL     1      24.072   6.188  51.327  1.00  0.00    -0.006 C 
HETATM   19  C11 UNL     1      24.759   7.371  50.683  1.00  0.00     0.147 C 
HETATM   20  N2  UNL     1      25.451   6.950  49.477  1.00  0.00    -0.196 NA
HETATM   21  C12 UNL     1      24.930   5.690  48.981  1.00  0.00     0.125 C 
HETATM   22  C13 UNL     1      25.121   4.570  50.013  1.00  0.00     0.052 C 
BRANCH  20  23
HETATM   23  O1  UNL     1      26.759   6.813  49.733  1.00  0.00    -0.313 OA
HETATM   24  H14 UNL     1      27.123   7.615  50.227  1.00  0.00     0.237 HD
ENDBRANCH  20  23
ENDBRANCH  16  17
ENDBRANCH   1  16
BRANCH   4  25
HETATM   25  C15 UNL     1      26.752   1.926  53.735  1.00  0.00     0.036 A 
HETATM   26  C16 UNL     1      27.996   2.137  53.187  1.00  0.00     0.029 A 
HETATM   27  C17 UNL     1      29.054   1.282  53.515  1.00  0.00     0.002 A 
HETATM   28  C18 UNL     1      28.750   0.264  54.394  1.00  0.00     0.000 A 
HETATM   29  C19 UNL     1      27.503   0.053  54.944  1.00  0.00     0.002 A 
HETATM   30  C20 UNL     1      26.465   0.919  54.600  1.00  0.00     0.029 A 
ENDBRANCH   4  25
TORSDOF 7
ENDMDL
MODEL 7
REMARK VINA RESULT:      -8.0      2.783      7.361
REMARK  7 active torsions:
REMARK  status: ('A' for Active; 'I' for Inactive)
REMARK    1  A    between atoms: C6_6  and  C7_7 
REMARK    2  A    between atoms: C7_7  and  N1_8 
REMARK    3  A    between atoms: N1_8  and  C8_9 
REMARK       I    between atoms: N1_8  and  C14_17 
REMARK    4  A    between atoms: C8_9  and  C9_10 
REMARK    5  A    between atoms: N2_13  and  O1_14 
REMARK       I    between atoms: C14_17  and  N3_19 
REMARK    6  A    between atoms: N3_19  and  C15_20 
REMARK    7  A    between atoms: C21_26  and  O3_27 
ROOT
HETATM    1  N1  UNL     1      23.872   2.983  52.144  1.00  0.00    -0.326 N 
HETATM    2  C14 UNL     1      22.767   2.043  52.106  1.00  0.00     0.323 C 
HETATM    3  O2  UNL     1      21.654   2.419  52.619  1.00  0.00    -0.247 OA
HETATM    4  N3  UNL     1      22.639   0.726  51.596  1.00  0.00    -0.309 N 
HETATM    5  H19 UNL     1      23.531   0.378  51.161  1.00  0.00     0.170 HD
ENDROOT
BRANCH   1   6
HETATM    6  C7  UNL     1      23.505   4.233  52.779  1.00  0.00     0.169 C 
BRANCH   6   7
HETATM    7  C6  UNL     1      23.314   5.366  51.874  1.00  0.00    -0.006 A 
HETATM    8  C5  UNL     1      24.331   6.247  51.508  1.00  0.00     0.012 A 
HETATM    9  C4  UNL     1      24.206   7.329  50.675  1.00  0.00     0.001 A 
HETATM   10  C3  UNL     1      22.967   7.592  50.135  1.00  0.00     0.009 A 
HETATM   11  C2  UNL     1      21.899   6.781  50.436  1.00  0.00    -0.028 A 
HETATM   12  C1  UNL     1      20.538   7.046  49.860  1.00  0.00     0.051 C 
HETATM   13  C21 UNL     1      22.114   5.708  51.287  1.00  0.00     0.079 A 
BRANCH  13  14
HETATM   14  O3  UNL     1      20.997   4.930  51.544  1.00  0.00    -0.360 OA
HETATM   15  H25 UNL     1      20.218   4.798  50.934  1.00  0.00     0.217 HD
ENDBRANCH  13  14
ENDBRANCH   6   7
ENDBRANCH   1   6
BRANCH   1  16
HETATM   16  C8  UNL     1      25.076   2.443  51.562  1.00  0.00     0.162 C 
BRANCH  16  17
HETATM   17  C9  UNL     1      25.863   1.562  52.465  1.00  0.00    -0.063 C 
HETATM   18  C10 UNL     1      26.388   0.401  52.007  1.00  0.00    -0.006 C 
HETATM   19  C11 UNL     1      27.215  -0.676  52.672  1.00  0.00     0.147 C 
HETATM   20  N2  UNL     1      27.226  -0.478  54.112  1.00  0.00    -0.196 NA
HETATM   21  C12 UNL     1      26.118   0.355  54.540  1.00  0.00     0.125 C 
HETATM   22  C13 UNL     1      26.199   1.749  53.902  1.00  0.00     0.052 C 
BRANCH  20  23
HETATM   23  O1  UNL     1      28.377   0.100  54.478  1.00  0.00    -0.313 OA
HETATM   24  H14 UNL     1      28.618  -0.130  55.431  1.00  0.00     0.237 HD
ENDBRANCH  20  23
ENDBRANCH  16  17
ENDBRANCH   1  16
BRANCH   4  25
HETATM   25  C15 UNL     1      21.286   0.349  51.874  1.00  0.00     0.036 A 
HETATM   26  C16 UNL     1      21.128  -0.265  53.096  1.00  0.00     0.029 A 
HETATM   27  C17 UNL     1      19.859  -0.690  53.502  1.00  0.00     0.002 A 
HETATM   28  C18 UNL     1      18.834  -0.448  52.611  1.00  0.00     0.000 A 
HETATM   29  C19 UNL     1      18.992   0.167  51.387  1.00  0.00     0.002 A 
HETATM   30  C20 UNL     1      20.269   0.581  51.006  1.00  0.00     0.029 A 
ENDBRANCH   4  25
TORSDOF 7
ENDMDL
MODEL 8
REMARK VINA RESULT:      -8.0      2.353      7.385
REMARK  7 active torsions:
REMARK  status: ('A' for Active; 'I' for Inactive)
REMARK    1  A    between atoms: C6_6  and  C7_7 
REMARK    2  A    between atoms: C7_7  and  N1_8 
REMARK    3  A    between atoms: N1_8  and  C8_9 
REMARK       I    between atoms: N1_8  and  C14_17 
REMARK    4  A    between atoms: C8_9  and  C9_10 
REMARK    5  A    between atoms: N2_13  and  O1_14 
REMARK       I    between atoms: C14_17  and  N3_19 
REMARK    6  A    between atoms: N3_19  and  C15_20 
REMARK    7  A    between atoms: C21_26  and  O3_27 
ROOT
HETATM    1  N1  UNL     1      24.458   3.236  51.319  1.00  0.00    -0.326 N 
HETATM    2  C14 UNL     1      25.566   2.467  51.855  1.00  0.00     0.323 C 
HETATM    3  O2  UNL     1      25.580   2.252  53.118  1.00  0.00    -0.247 OA
HETATM    4  N3  UNL     1      26.703   1.868  51.253  1.00  0.00    -0.309 N 
HETATM    5  H19 UNL     1      26.730   2.018  50.213  1.00  0.00     0.170 HD
ENDROOT
BRANCH   1   6
HETATM    6  C7  UNL     1      23.522   3.636  52.350  1.00  0.00     0.169 C 
BRANCH   6   7
HETATM    7  C6  UNL     1      22.168   3.097  52.216  1.00  0.00    -0.006 A 
HETATM    8  C5  UNL     1      21.091   3.821  51.706  1.00  0.00     0.012 A 
HETATM    9  C4  UNL     1      19.804   3.371  51.568  1.00  0.00     0.001 A 
HETATM   10  C3  UNL     1      19.522   2.083  51.963  1.00  0.00     0.009 A 
HETATM   11  C2  UNL     1      20.516   1.287  52.479  1.00  0.00    -0.028 A 
HETATM   12  C1  UNL     1      20.235  -0.121  52.917  1.00  0.00     0.051 C 
HETATM   13  C21 UNL     1      21.791   1.823  52.584  1.00  0.00     0.079 A 
BRANCH  13  14
HETATM   14  O3  UNL     1      22.746   0.967  53.108  1.00  0.00    -0.360 OA
HETATM   15  H25 UNL     1      23.340   0.357  52.586  1.00  0.00     0.217 HD
ENDBRANCH  13  14
ENDBRANCH   6   7
ENDBRANCH   1   6
BRANCH   1  16
HETATM   16  C8  UNL     1      24.562   3.437  49.894  1.00  0.00     0.162 C 
BRANCH  16  17
HETATM   17  C9  UNL     1      25.220   4.707  49.492  1.00  0.00    -0.063 C 
HETATM   18  C10 UNL     1      26.501   4.709  49.051  1.00  0.00    -0.006 C 
HETATM   19  C11 UNL     1      27.416   5.817  48.582  1.00  0.00     0.147 C 
HETATM   20  N2  UNL     1      26.831   7.111  48.891  1.00  0.00    -0.196 NA
HETATM   21  C12 UNL     1      25.826   7.002  49.932  1.00  0.00     0.125 C 
HETATM   22  C13 UNL     1      24.672   6.090  49.490  1.00  0.00     0.052 C 
BRANCH  20  23
HETATM   23  O1  UNL     1      26.268   7.625  47.790  1.00  0.00    -0.313 OA
HETATM   24  H14 UNL     1      26.845   8.349  47.386  1.00  0.00     0.237 HD
ENDBRANCH  20  23
ENDBRANCH  16  17
ENDBRANCH   1  16
BRANCH   4  25
HETATM   25  C15 UNL     1      27.416   1.255  52.334  1.00  0.00     0.036 A 
HETATM   26  C16 UNL     1      27.171  -0.094  52.455  1.00  0.00     0.029 A 
HETATM   27  C17 UNL     1      27.799  -0.825  53.469  1.00  0.00     0.002 A 
HETATM   28  C18 UNL     1      28.642  -0.106  54.291  1.00  0.00     0.000 A 
HETATM   29  C19 UNL     1      28.887   1.245  54.169  1.00  0.00     0.002 A 
HETATM   30  C20 UNL     1      28.248   1.952  53.149  1.00  0.00     0.029 A 
ENDBRANCH   4  25
TORSDOF 7
ENDMDL
MODEL 9
REMARK VINA RESULT:      -8.0      2.290      6.714
REMARK  7 active torsions:
REMARK  status: ('A' for Active; 'I' for Inactive)
REMARK    1  A    between atoms: C6_6  and  C7_7 
REMARK    2  A    between atoms: C7_7  and  N1_8 
REMARK    3  A    between atoms: N1_8  and  C8_9 
REMARK       I    between atoms: N1_8  and  C14_17 
REMARK    4  A    between atoms: C8_9  and  C9_10 
REMARK    5  A    between atoms: N2_13  and  O1_14 
REMARK       I    between atoms: C14_17  and  N3_19 
REMARK    6  A    between atoms: N3_19  and  C15_20 
REMARK    7  A    between atoms: C21_26  and  O3_27 
ROOT
HETATM    1  N1  UNL     1      24.170   2.488  51.296  1.00  0.00    -0.326 N 
HETATM    2  C14 UNL     1      22.784   2.118  51.514  1.00  0.00     0.323 C 
HETATM    3  O2  UNL     1      22.064   1.891  50.479  1.00  0.00    -0.247 OA
HETATM    4  N3  UNL     1      22.006   1.944  52.687  1.00  0.00    -0.309 N 
HETATM    5  H19 UNL     1      22.561   2.118  53.563  1.00  0.00     0.170 HD
ENDROOT
BRANCH   1   6
HETATM    6  C7  UNL     1      24.509   2.532  49.887  1.00  0.00     0.169 C 
BRANCH   6   7
HETATM    7  C6  UNL     1      25.294   3.692  49.465  1.00  0.00    -0.006 A 
HETATM    8  C5  UNL     1      26.680   3.679  49.314  1.00  0.00     0.012 A 
HETATM    9  C4  UNL     1      27.465   4.736  48.933  1.00  0.00     0.001 A 
HETATM   10  C3  UNL     1      26.849   5.938  48.668  1.00  0.00     0.009 A 
HETATM   11  C2  UNL     1      25.485   6.054  48.787  1.00  0.00    -0.028 A 
HETATM   12  C1  UNL     1      24.789   7.353  48.503  1.00  0.00     0.051 C 
HETATM   13  C21 UNL     1      24.767   4.934  49.178  1.00  0.00     0.079 A 
BRANCH  13  14
HETATM   14  O3  UNL     1      23.398   5.118  49.275  1.00  0.00    -0.360 OA
HETATM   15  H25 UNL     1      22.707   4.729  48.669  1.00  0.00     0.217 HD
ENDBRANCH  13  14
ENDBRANCH   6   7
ENDBRANCH   1   6
BRANCH   1  16
HETATM   16  C8  UNL     1      24.874   2.745  52.529  1.00  0.00     0.162 C 
BRANCH  16  17
HETATM   17  C9  UNL     1      25.919   1.744  52.869  1.00  0.00    -0.063 C 
HETATM   18  C10 UNL     1      27.212   2.120  53.010  1.00  0.00    -0.006 C 
HETATM   19  C11 UNL     1      28.467   1.348  53.345  1.00  0.00     0.147 C 
HETATM   20  N2  UNL     1      28.208  -0.080  53.274  1.00  0.00    -0.196 NA
HETATM   21  C12 UNL     1      27.028  -0.365  52.480  1.00  0.00     0.125 C 
HETATM   22  C13 UNL     1      25.779   0.280  53.098  1.00  0.00     0.052 C 
BRANCH  20  23
HETATM   23  O1  UNL     1      28.034  -0.569  54.509  1.00  0.00    -0.313 OA
HETATM   24  H14 UNL     1      28.028  -1.578  54.508  1.00  0.00     0.237 HD
ENDBRANCH  20  23
ENDBRANCH  16  17
ENDBRANCH   1  16
BRANCH   4  25
HETATM   25  C15 UNL     1      20.704   1.577  52.219  1.00  0.00     0.036 A 
HETATM   26  C16 UNL     1      19.860   2.652  52.048  1.00  0.00     0.029 A 
HETATM   27  C17 UNL     1      18.553   2.444  51.596  1.00  0.00     0.002 A 
HETATM   28  C18 UNL     1      18.207   1.132  51.349  1.00  0.00     0.000 A 
HETATM   29  C19 UNL     1      19.051   0.056  51.520  1.00  0.00     0.002 A 
HETATM   30  C20 UNL     1      20.350   0.290  51.972  1.00  0.00     0.029 A 
ENDBRANCH   4  25
TORSDOF 7
ENDMDL
