MODEL 1
REMARK VINA RESULT:      -9.6      0.000      0.000
REMARK  0 active torsions:
REMARK  status: ('A' for Active; 'I' for Inactive)
ROOT
HETATM    1  F1  UNL     1      21.109   1.044  52.653  1.00  0.00    -0.211 F 
HETATM    2  C1  UNL     1      22.441   0.716  52.767  1.00  0.00     0.092 C 
HETATM    3  C2  UNL     1      22.789  -0.005  53.869  1.00  0.00     0.019 C 
HETATM    4  C3  UNL     1      24.255  -0.184  53.695  1.00  0.00     0.113 C 
HETATM    5  C4  UNL     1      25.117  -0.836  54.509  1.00  0.00     0.117 C 
HETATM    6  O1  UNL     1      26.477  -0.890  54.166  1.00  0.00    -0.333 OA
HETATM    7  C5  UNL     1      27.058   0.318  53.759  1.00  0.00     0.169 A 
HETATM    8  C6  UNL     1      26.539   0.481  52.501  1.00  0.00     0.108 A 
HETATM    9  C7  UNL     1      26.865   1.578  51.751  1.00  0.00     0.133 A 
HETATM   10  N1  UNL     1      27.703   2.507  52.237  1.00  0.00    -0.224 NA
HETATM   11  C8  UNL     1      28.215   2.325  53.494  1.00  0.00     0.238 A 
HETATM   12  N2  UNL     1      27.894   1.251  54.233  1.00  0.00    -0.218 NA
HETATM   13  N3  UNL     1      26.494   2.060  50.471  1.00  0.00    -0.339 N 
HETATM   14  C9  UNL     1      25.821   3.228  50.024  1.00  0.00     0.060 A 
HETATM   15  C10 UNL     1      26.905   3.928  49.476  1.00  0.00     0.032 A 
HETATM   16  C11 UNL     1      26.807   5.198  48.885  1.00  0.00     0.002 A 
HETATM   17  C12 UNL     1      25.586   5.833  48.820  1.00  0.00     0.002 A 
HETATM   18  C13 UNL     1      24.543   5.092  49.381  1.00  0.00     0.031 A 
HETATM   19  C14 UNL     1      24.610   3.825  49.976  1.00  0.00     0.055 A 
HETATM   20  N4  UNL     1      23.311   3.473  50.407  1.00  0.00    -0.388 N 
HETATM   21  C15 UNL     1      22.764   2.805  51.568  1.00  0.00     0.126 C 
HETATM   22  C16 UNL     1      23.012   1.318  51.543  1.00  0.00     0.089 C 
HETATM   23  H6  UNL     1      26.892   1.298  49.904  1.00  0.00     0.167 HD
HETATM   24  H11 UNL     1      22.471   3.702  49.784  1.00  0.00     0.159 HD
ENDROOT
TORSDOF 0
ENDMDL
MODEL 2
REMARK VINA RESULT:      -9.2      2.824      4.816
REMARK  0 active torsions:
REMARK  status: ('A' for Active; 'I' for Inactive)
ROOT
HETATM    1  F1  UNL     1      22.292   4.253  51.706  1.00  0.00    -0.211 F 
HETATM    2  C1  UNL     1      22.236   2.937  52.103  1.00  0.00     0.092 C 
HETATM    3  C2  UNL     1      21.022   2.489  52.529  1.00  0.00     0.019 C 
HETATM    4  C3  UNL     1      21.299   1.070  52.878  1.00  0.00     0.113 C 
HETATM    5  C4  UNL     1      20.435   0.146  53.357  1.00  0.00     0.117 C 
HETATM    6  O1  UNL     1      20.897  -1.151  53.628  1.00  0.00    -0.333 OA
HETATM    7  C5  UNL     1      22.100  -1.239  54.340  1.00  0.00     0.169 A 
HETATM    8  C6  UNL     1      23.026  -0.889  53.392  1.00  0.00     0.108 A 
HETATM    9  C7  UNL     1      24.357  -0.843  53.703  1.00  0.00     0.133 A 
HETATM   10  N1  UNL     1      24.775  -1.147  54.942  1.00  0.00    -0.224 NA
HETATM   11  C8  UNL     1      23.836  -1.498  55.875  1.00  0.00     0.238 A 
HETATM   12  N2  UNL     1      22.529  -1.541  55.573  1.00  0.00    -0.218 NA
HETATM   13  N3  UNL     1      25.538  -0.499  52.998  1.00  0.00    -0.339 N 
HETATM   14  C9  UNL     1      26.513   0.519  53.164  1.00  0.00     0.060 A 
HETATM   15  C10 UNL     1      27.574  -0.250  53.660  1.00  0.00     0.032 A 
HETATM   16  C11 UNL     1      28.827   0.271  54.020  1.00  0.00     0.002 A 
HETATM   17  C12 UNL     1      29.071   1.621  53.893  1.00  0.00     0.002 A 
HETATM   18  C13 UNL     1      27.981   2.339  53.394  1.00  0.00     0.031 A 
HETATM   19  C14 UNL     1      26.721   1.847  53.028  1.00  0.00     0.055 A 
HETATM   20  N4  UNL     1      25.936   2.936  52.585  1.00  0.00    -0.388 N 
HETATM   21  C15 UNL     1      24.551   3.325  52.732  1.00  0.00     0.126 C 
HETATM   22  C16 UNL     1      23.629   2.489  51.881  1.00  0.00     0.089 C 
HETATM   23  H6  UNL     1      25.516  -1.253  52.296  1.00  0.00     0.167 HD
HETATM   24  H11 UNL     1      26.387   3.695  51.979  1.00  0.00     0.159 HD
ENDROOT
TORSDOF 0
ENDMDL
MODEL 3
REMARK VINA RESULT:      -8.8      2.259      5.033
REMARK  0 active torsions:
REMARK  status: ('A' for Active; 'I' for Inactive)
ROOT
HETATM    1  F1  UNL     1      21.826  -1.568  53.446  1.00  0.00    -0.211 F 
HETATM    2  C1  UNL     1      22.103  -0.357  52.854  1.00  0.00     0.092 C 
HETATM    3  C2  UNL     1      21.295   0.005  51.819  1.00  0.00     0.019 C 
HETATM    4  C3  UNL     1      21.850   1.324  51.413  1.00  0.00     0.113 C 
HETATM    5  C4  UNL     1      21.421   2.139  50.423  1.00  0.00     0.117 C 
HETATM    6  O1  UNL     1      22.088   3.353  50.196  1.00  0.00    -0.333 OA
HETATM    7  C5  UNL     1      23.487   3.290  50.161  1.00  0.00     0.169 A 
HETATM    8  C6  UNL     1      23.803   3.129  51.485  1.00  0.00     0.108 A 
HETATM    9  C7  UNL     1      25.109   3.014  51.879  1.00  0.00     0.133 A 
HETATM   10  N1  UNL     1      26.098   3.061  50.972  1.00  0.00    -0.224 NA
HETATM   11  C8  UNL     1      25.762   3.226  49.654  1.00  0.00     0.238 A 
HETATM   12  N2  UNL     1      24.482   3.336  49.265  1.00  0.00    -0.218 NA
HETATM   13  N3  UNL     1      25.765   2.810  53.119  1.00  0.00    -0.339 N 
HETATM   14  C9  UNL     1      26.589   1.773  53.628  1.00  0.00     0.060 A 
HETATM   15  C10 UNL     1      27.832   2.421  53.592  1.00  0.00     0.032 A 
HETATM   16  C11 UNL     1      29.042   1.830  53.987  1.00  0.00     0.002 A 
HETATM   17  C12 UNL     1      29.055   0.531  54.446  1.00  0.00     0.002 A 
HETATM   18  C13 UNL     1      27.792  -0.066  54.462  1.00  0.00     0.031 A 
HETATM   19  C14 UNL     1      26.569   0.498  54.074  1.00  0.00     0.055 A 
HETATM   20  N4  UNL     1      25.560  -0.476  54.254  1.00  0.00    -0.388 N 
HETATM   21  C15 UNL     1      24.382  -0.877  53.517  1.00  0.00     0.126 C 
HETATM   22  C16 UNL     1      23.257   0.117  53.649  1.00  0.00     0.089 C 
HETATM   23  H6  UNL     1      25.488   3.689  53.579  1.00  0.00     0.167 HD
HETATM   24  H11 UNL     1      25.584  -1.101  55.123  1.00  0.00     0.159 HD
ENDROOT
TORSDOF 0
ENDMDL
MODEL 4
REMARK VINA RESULT:      -8.2      2.190      4.279
REMARK  0 active torsions:
REMARK  status: ('A' for Active; 'I' for Inactive)
ROOT
HETATM    1  F1  UNL     1      27.398   0.230  53.691  1.00  0.00    -0.211 F 
HETATM    2  C1  UNL     1      26.050   0.371  53.452  1.00  0.00     0.092 C 
HETATM    3  C2  UNL     1      25.276  -0.718  53.714  1.00  0.00     0.019 C 
HETATM    4  C3  UNL     1      23.912  -0.246  53.356  1.00  0.00     0.113 C 
HETATM    5  C4  UNL     1      22.748  -0.932  53.426  1.00  0.00     0.117 C 
HETATM    6  O1  UNL     1      21.556  -0.303  53.036  1.00  0.00    -0.333 OA
HETATM    7  C5  UNL     1      21.599   0.401  51.826  1.00  0.00     0.169 A 
HETATM    8  C6  UNL     1      22.316   1.519  52.165  1.00  0.00     0.108 A 
HETATM    9  C7  UNL     1      22.591   2.479  51.230  1.00  0.00     0.133 A 
HETATM   10  N1  UNL     1      22.157   2.340  49.967  1.00  0.00    -0.224 NA
HETATM   11  C8  UNL     1      21.438   1.218  49.648  1.00  0.00     0.238 A 
HETATM   12  N2  UNL     1      21.170   0.273  50.563  1.00  0.00    -0.218 NA
HETATM   13  N3  UNL     1      23.312   3.700  51.231  1.00  0.00    -0.339 N 
HETATM   14  C9  UNL     1      24.468   4.152  50.543  1.00  0.00     0.060 A 
HETATM   15  C10 UNL     1      23.868   5.030  49.629  1.00  0.00     0.032 A 
HETATM   16  C11 UNL     1      24.573   5.766  48.663  1.00  0.00     0.002 A 
HETATM   17  C12 UNL     1      25.942   5.648  48.574  1.00  0.00     0.002 A 
HETATM   18  C13 UNL     1      26.487   4.762  49.507  1.00  0.00     0.031 A 
HETATM   19  C14 UNL     1      25.810   4.014  50.480  1.00  0.00     0.055 A 
HETATM   20  N4  UNL     1      26.766   3.253  51.191  1.00  0.00    -0.388 N 
HETATM   21  C15 UNL     1      26.808   1.912  51.732  1.00  0.00     0.126 C 
HETATM   22  C16 UNL     1      25.968   1.769  52.976  1.00  0.00     0.089 C 
HETATM   23  H6  UNL     1      22.718   4.221  51.893  1.00  0.00     0.167 HD
HETATM   24  H11 UNL     1      27.705   3.697  51.447  1.00  0.00     0.159 HD
ENDROOT
TORSDOF 0
ENDMDL
MODEL 5
REMARK VINA RESULT:      -8.2      1.638      2.039
REMARK  0 active torsions:
REMARK  status: ('A' for Active; 'I' for Inactive)
ROOT
HETATM    1  F1  UNL     1      19.826  -0.367  53.792  1.00  0.00    -0.211 F 
HETATM    2  C1  UNL     1      21.201  -0.430  53.784  1.00  0.00     0.092 C 
HETATM    3  C2  UNL     1      21.783  -1.008  54.871  1.00  0.00     0.019 C 
HETATM    4  C3  UNL     1      23.233  -0.916  54.556  1.00  0.00     0.113 C 
HETATM    5  C4  UNL     1      24.277  -1.346  55.302  1.00  0.00     0.117 C 
HETATM    6  O1  UNL     1      25.583  -1.161  54.825  1.00  0.00    -0.333 OA
HETATM    7  C5  UNL     1      25.879   0.109  54.315  1.00  0.00     0.169 A 
HETATM    8  C6  UNL     1      25.224   0.099  53.111  1.00  0.00     0.108 A 
HETATM    9  C7  UNL     1      25.261   1.194  52.291  1.00  0.00     0.133 A 
HETATM   10  N1  UNL     1      25.945   2.291  52.653  1.00  0.00    -0.224 NA
HETATM   11  C8  UNL     1      26.596   2.281  53.858  1.00  0.00     0.238 A 
HETATM   12  N2  UNL     1      26.559   1.209  54.666  1.00  0.00    -0.218 NA
HETATM   13  N3  UNL     1      24.687   1.523  51.037  1.00  0.00    -0.339 N 
HETATM   14  C9  UNL     1      23.763   2.515  50.617  1.00  0.00     0.060 A 
HETATM   15  C10 UNL     1      24.634   3.375  49.935  1.00  0.00     0.032 A 
HETATM   16  C11 UNL     1      24.238   4.568  49.309  1.00  0.00     0.002 A 
HETATM   17  C12 UNL     1      22.917   4.956  49.344  1.00  0.00     0.002 A 
HETATM   18  C13 UNL     1      22.093   4.064  50.036  1.00  0.00     0.031 A 
HETATM   19  C14 UNL     1      22.460   2.868  50.669  1.00  0.00     0.055 A 
HETATM   20  N4  UNL     1      21.298   2.302  51.243  1.00  0.00    -0.388 N 
HETATM   21  C15 UNL     1      21.001   1.610  52.478  1.00  0.00     0.126 C 
HETATM   22  C16 UNL     1      21.529   0.198  52.485  1.00  0.00     0.089 C 
HETATM   23  H6  UNL     1      25.172   0.819  50.462  1.00  0.00     0.167 HD
HETATM   24  H11 UNL     1      20.376   2.333  50.700  1.00  0.00     0.159 HD
ENDROOT
TORSDOF 0
ENDMDL
MODEL 6
REMARK VINA RESULT:      -8.2      2.693      5.294
REMARK  0 active torsions:
REMARK  status: ('A' for Active; 'I' for Inactive)
ROOT
HETATM    1  F1  UNL     1      19.862  -0.363  53.121  1.00  0.00    -0.211 F 
HETATM    2  C1  UNL     1      20.417   0.868  52.858  1.00  0.00     0.092 C 
HETATM    3  C2  UNL     1      19.633   1.748  52.176  1.00  0.00     0.019 C 
HETATM    4  C3  UNL     1      20.507   2.945  52.057  1.00  0.00     0.113 C 
HETATM    5  C4  UNL     1      20.224   4.127  51.464  1.00  0.00     0.117 C 
HETATM    6  O1  UNL     1      21.196   5.140  51.456  1.00  0.00    -0.333 OA
HETATM    7  C5  UNL     1      22.491   4.748  51.097  1.00  0.00     0.169 A 
HETATM    8  C6  UNL     1      22.911   4.074  52.214  1.00  0.00     0.108 A 
HETATM    9  C7  UNL     1      24.158   3.512  52.260  1.00  0.00     0.133 A 
HETATM   10  N1  UNL     1      24.989   3.618  51.210  1.00  0.00    -0.224 NA
HETATM   11  C8  UNL     1      24.553   4.299  50.104  1.00  0.00     0.238 A 
HETATM   12  N2  UNL     1      23.329   4.848  50.056  1.00  0.00    -0.218 NA
HETATM   13  N3  UNL     1      24.874   2.744  53.211  1.00  0.00    -0.339 N 
HETATM   14  C9  UNL     1      25.400   1.425  53.204  1.00  0.00     0.060 A 
HETATM   15  C10 UNL     1      26.766   1.718  53.083  1.00  0.00     0.032 A 
HETATM   16  C11 UNL     1      27.778   0.747  53.013  1.00  0.00     0.002 A 
HETATM   17  C12 UNL     1      27.452  -0.591  53.064  1.00  0.00     0.002 A 
HETATM   18  C13 UNL     1      26.080  -0.824  53.184  1.00  0.00     0.031 A 
HETATM   19  C14 UNL     1      25.048   0.122  53.256  1.00  0.00     0.055 A 
HETATM   20  N4  UNL     1      23.822  -0.573  53.365  1.00  0.00    -0.388 N 
HETATM   21  C15 UNL     1      22.493  -0.395  52.822  1.00  0.00     0.126 C 
HETATM   22  C16 UNL     1      21.753   0.741  53.481  1.00  0.00     0.089 C 
HETATM   23  H6  UNL     1      24.941   3.453  53.955  1.00  0.00     0.167 HD
HETATM   24  H11 UNL     1      23.765  -1.442  53.989  1.00  0.00     0.159 HD
ENDROOT
TORSDOF 0
ENDMDL
MODEL 7
REMARK VINA RESULT:      -8.0      2.455      5.508
REMARK  0 active torsions:
REMARK  status: ('A' for Active; 'I' for Inactive)
ROOT
HETATM    1  F1  UNL     1      22.116   4.025  48.973  1.00  0.00    -0.211 F 
HETATM    2  C1  UNL     1      23.152   3.596  49.770  1.00  0.00     0.092 C 
HETATM    3  C2  UNL     1      24.407   3.786  49.278  1.00  0.00     0.019 C 
HETATM    4  C3  UNL     1      25.270   3.225  50.351  1.00  0.00     0.113 C 
HETATM    5  C4  UNL     1      26.621   3.157  50.384  1.00  0.00     0.117 C 
HETATM    6  O1  UNL     1      27.252   2.582  51.497  1.00  0.00    -0.333 OA
HETATM    7  C5  UNL     1      26.723   1.365  51.945  1.00  0.00     0.169 A 
HETATM    8  C6  UNL     1      25.560   1.760  52.554  1.00  0.00     0.108 A 
HETATM    9  C7  UNL     1      24.726   0.838  53.126  1.00  0.00     0.133 A 
HETATM   10  N1  UNL     1      25.041  -0.467  53.103  1.00  0.00    -0.224 NA
HETATM   11  C8  UNL     1      26.209  -0.842  52.494  1.00  0.00     0.238 A 
HETATM   12  N2  UNL     1      27.026   0.060  51.929  1.00  0.00    -0.218 NA
HETATM   13  N3  UNL     1      23.473   0.897  53.785  1.00  0.00    -0.339 N 
HETATM   14  C9  UNL     1      22.191   0.360  53.494  1.00  0.00     0.060 A 
HETATM   15  C10 UNL     1      22.140  -0.659  54.455  1.00  0.00     0.032 A 
HETATM   16  C11 UNL     1      21.060  -1.543  54.611  1.00  0.00     0.002 A 
HETATM   17  C12 UNL     1      19.960  -1.437  53.788  1.00  0.00     0.002 A 
HETATM   18  C13 UNL     1      20.065  -0.406  52.851  1.00  0.00     0.031 A 
HETATM   19  C14 UNL     1      21.127   0.490  52.672  1.00  0.00     0.055 A 
HETATM   20  N4  UNL     1      20.797   1.354  51.603  1.00  0.00    -0.388 N 
HETATM   21  C15 UNL     1      21.526   1.944  50.501  1.00  0.00     0.126 C 
HETATM   22  C16 UNL     1      22.433   3.062  50.948  1.00  0.00     0.089 C 
HETATM   23  H6  UNL     1      23.762   1.450  54.605  1.00  0.00     0.167 HD
HETATM   24  H11 UNL     1      19.796   1.723  51.517  1.00  0.00     0.159 HD
ENDROOT
TORSDOF 0
ENDMDL
MODEL 8
REMARK VINA RESULT:      -8.0      2.986      6.320
REMARK  0 active torsions:
REMARK  status: ('A' for Active; 'I' for Inactive)
ROOT
HETATM    1  F1  UNL     1      27.310   0.433  53.262  1.00  0.00    -0.211 F 
HETATM    2  C1  UNL     1      26.615   1.149  52.314  1.00  0.00     0.092 C 
HETATM    3  C2  UNL     1      27.223   2.275  51.847  1.00  0.00     0.019 C 
HETATM    4  C3  UNL     1      26.234   2.799  50.867  1.00  0.00     0.113 C 
HETATM    5  C4  UNL     1      26.330   3.910  50.101  1.00  0.00     0.117 C 
HETATM    6  O1  UNL     1      25.277   4.238  49.233  1.00  0.00    -0.333 OA
HETATM    7  C5  UNL     1      23.988   4.167  49.775  1.00  0.00     0.169 A 
HETATM    8  C6  UNL     1      23.776   2.815  49.848  1.00  0.00     0.108 A 
HETATM    9  C7  UNL     1      22.602   2.320  50.347  1.00  0.00     0.133 A 
HETATM   10  N1  UNL     1      21.639   3.155  50.768  1.00  0.00    -0.224 NA
HETATM   11  C8  UNL     1      21.866   4.503  50.684  1.00  0.00     0.238 A 
HETATM   12  N2  UNL     1      23.019   4.991  50.198  1.00  0.00    -0.218 NA
HETATM   13  N3  UNL     1      22.086   1.022  50.588  1.00  0.00    -0.339 N 
HETATM   14  C9  UNL     1      21.687   0.333  51.763  1.00  0.00     0.060 A 
HETATM   15  C10 UNL     1      20.296   0.362  51.591  1.00  0.00     0.032 A 
HETATM   16  C11 UNL     1      19.376  -0.185  52.500  1.00  0.00     0.002 A 
HETATM   17  C12 UNL     1      19.827  -0.801  53.647  1.00  0.00     0.002 A 
HETATM   18  C13 UNL     1      21.219  -0.801  53.767  1.00  0.00     0.031 A 
HETATM   19  C14 UNL     1      22.160  -0.264  52.879  1.00  0.00     0.055 A 
HETATM   20  N4  UNL     1      23.449  -0.491  53.414  1.00  0.00    -0.388 N 
HETATM   21  C15 UNL     1      24.676   0.271  53.486  1.00  0.00     0.126 C 
HETATM   22  C16 UNL     1      25.386   0.340  52.158  1.00  0.00     0.089 C 
HETATM   23  H6  UNL     1      22.050   0.694  49.612  1.00  0.00     0.167 HD
HETATM   24  H11 UNL     1      23.664  -1.430  53.881  1.00  0.00     0.159 HD
ENDROOT
TORSDOF 0
ENDMDL
MODEL 9
REMARK VINA RESULT:      -7.9      3.073      6.704
REMARK  0 active torsions:
REMARK  status: ('A' for Active; 'I' for Inactive)
ROOT
HETATM    1  F1  UNL     1      27.910   4.368  49.230  1.00  0.00    -0.211 F 
HETATM    2  C1  UNL     1      26.535   4.421  49.223  1.00  0.00     0.092 C 
HETATM    3  C2  UNL     1      25.981   5.592  48.802  1.00  0.00     0.019 C 
HETATM    4  C3  UNL     1      24.522   5.325  48.915  1.00  0.00     0.113 C 
HETATM    5  C4  UNL     1      23.498   6.158  48.620  1.00  0.00     0.117 C 
HETATM    6  O1  UNL     1      22.179   5.714  48.800  1.00  0.00    -0.333 OA
HETATM    7  C5  UNL     1      21.907   5.067  50.013  1.00  0.00     0.169 A 
HETATM    8  C6  UNL     1      22.508   3.848  49.833  1.00  0.00     0.108 A 
HETATM    9  C7  UNL     1      22.475   2.904  50.823  1.00  0.00     0.133 A 
HETATM   10  N1  UNL     1      21.848   3.159  51.983  1.00  0.00    -0.224 NA
HETATM   11  C8  UNL     1      21.250   4.380  52.142  1.00  0.00     0.238 A 
HETATM   12  N2  UNL     1      21.284   5.310  51.174  1.00  0.00    -0.218 NA
HETATM   13  N3  UNL     1      23.005   1.599  50.978  1.00  0.00    -0.339 N 
HETATM   14  C9  UNL     1      23.945   1.027  51.874  1.00  0.00     0.060 A 
HETATM   15  C10 UNL     1      23.076   0.281  52.682  1.00  0.00     0.032 A 
HETATM   16  C11 UNL     1      23.488  -0.499  53.775  1.00  0.00     0.002 A 
HETATM   17  C12 UNL     1      24.822  -0.563  54.110  1.00  0.00     0.002 A 
HETATM   18  C13 UNL     1      25.643   0.199  53.273  1.00  0.00     0.031 A 
HETATM   19  C14 UNL     1      25.261   0.985  52.177  1.00  0.00     0.055 A 
HETATM   20  N4  UNL     1      26.425   1.577  51.636  1.00  0.00    -0.388 N 
HETATM   21  C15 UNL     1      26.751   2.874  51.084  1.00  0.00     0.126 C 
HETATM   22  C16 UNL     1      26.173   3.070  49.705  1.00  0.00     0.089 C 
HETATM   23  H6  UNL     1      22.471   1.132  50.231  1.00  0.00     0.167 HD
HETATM   24  H11 UNL     1      27.323   0.998  51.564  1.00  0.00     0.159 HD
ENDROOT
TORSDOF 0
ENDMDL
