MODEL 1
REMARK VINA RESULT:      -8.6      0.000      0.000
REMARK  5 active torsions:
REMARK  status: ('A' for Active; 'I' for Inactive)
REMARK    1  A    between atoms: C2_2  and  C3_3 
REMARK       I    between atoms: C3_3  and  N1_5 
REMARK    2  A    between atoms: N1_5  and  C4_6 
REMARK    3  A    between atoms: C7_9  and  N2_10 
REMARK    4  A    between atoms: N2_10  and  C8_11 
REMARK    5  A    between atoms: C18_25  and  O3_26 
ROOT
HETATM    1  C4  UNL     1      24.130   3.195  50.089  1.00  0.00     0.069 A 
HETATM    2  C5  UNL     1      24.393   2.553  51.285  1.00  0.00     0.048 A 
HETATM    3  C6  UNL     1      23.525   1.570  51.700  1.00  0.00     0.023 A 
HETATM    4  C7  UNL     1      23.710   0.877  52.881  1.00  0.00     0.067 A 
HETATM    5  C13 UNL     1      22.837  -0.103  53.284  1.00  0.00     0.089 A 
HETATM    6  C14 UNL     1      22.965  -0.862  54.493  1.00  0.00     0.103 C 
HETATM    7  N3  UNL     1      23.063  -1.465  55.476  1.00  0.00    -0.191 NA
HETATM    8  C15 UNL     1      21.728  -0.420  52.493  1.00  0.00     0.142 A 
HETATM    9  N4  UNL     1      21.538   0.254  51.333  1.00  0.00    -0.259 NA
HETATM   10  C16 UNL     1      22.417   1.219  50.957  1.00  0.00     0.071 A 
HETATM   11  C17 UNL     1      22.184   1.877  49.772  1.00  0.00     0.071 A 
HETATM   12  C18 UNL     1      23.028   2.870  49.317  1.00  0.00     0.097 A 
ENDROOT
BRANCH   4  13
HETATM   13  N2  UNL     1      24.793   1.139  53.717  1.00  0.00    -0.354 N 
HETATM   14  H6  UNL     1      24.856   1.498  54.696  1.00  0.00     0.166 HD
BRANCH  13  15
HETATM   15  C8  UNL     1      26.189   1.044  53.627  1.00  0.00     0.034 A 
HETATM   16  C9  UNL     1      27.031   2.093  53.668  1.00  0.00     0.029 A 
HETATM   17  C10 UNL     1      28.529   2.118  53.582  1.00  0.00     0.206 A 
HETATM   18  O2  UNL     1      29.057   0.822  53.439  1.00  0.00    -0.340 OA
HETATM   19  C11 UNL     1      28.252  -0.297  53.391  1.00  0.00     0.117 A 
HETATM   20 BR1  UNL     1      29.104  -2.000  53.194  1.00  0.00    -0.024 Br
HETATM   21  C12 UNL     1      26.923  -0.233  53.475  1.00  0.00     0.074 A 
ENDBRANCH  13  15
ENDBRANCH   4  13
BRANCH   1  22
HETATM   22  N1  UNL     1      25.052   4.223  49.670  1.00  0.00    -0.321 N 
HETATM   23  C3  UNL     1      26.383   3.867  49.351  1.00  0.00     0.245 C 
HETATM   24  O1  UNL     1      26.939   2.741  49.370  1.00  0.00    -0.268 OA
HETATM   25  H4  UNL     1      24.802   5.234  49.581  1.00  0.00     0.169 HD
BRANCH  23  26
HETATM   26  C2  UNL     1      27.337   4.889  48.923  1.00  0.00     0.064 C 
HETATM   27  C1  UNL     1      26.837   6.043  48.564  1.00  0.00     0.017 C 
ENDBRANCH  23  26
ENDBRANCH   1  22
BRANCH  12  28
HETATM   28  O3  UNL     1      22.885   3.593  48.140  1.00  0.00    -0.354 OA
HETATM   29  C19 UNL     1      22.026   3.248  47.084  1.00  0.00     0.210 C 
ENDBRANCH  12  28
TORSDOF 5
ENDMDL
MODEL 2
REMARK VINA RESULT:      -8.4      3.142      5.729
REMARK  5 active torsions:
REMARK  status: ('A' for Active; 'I' for Inactive)
REMARK    1  A    between atoms: C2_2  and  C3_3 
REMARK       I    between atoms: C3_3  and  N1_5 
REMARK    2  A    between atoms: N1_5  and  C4_6 
REMARK    3  A    between atoms: C7_9  and  N2_10 
REMARK    4  A    between atoms: N2_10  and  C8_11 
REMARK    5  A    between atoms: C18_25  and  O3_26 
ROOT
HETATM    1  C4  UNL     1      26.274   1.751  51.977  1.00  0.00     0.069 A 
HETATM    2  C5  UNL     1      24.992   1.236  52.039  1.00  0.00     0.048 A 
HETATM    3  C6  UNL     1      24.671   0.417  53.097  1.00  0.00     0.023 A 
HETATM    4  C7  UNL     1      23.415  -0.140  53.239  1.00  0.00     0.067 A 
HETATM    5  C13 UNL     1      23.106  -0.955  54.300  1.00  0.00     0.089 A 
HETATM    6  C14 UNL     1      21.827  -1.568  54.512  1.00  0.00     0.103 C 
HETATM    7  N3  UNL     1      20.797  -2.071  54.675  1.00  0.00    -0.191 NA
HETATM    8  C15 UNL     1      24.073  -1.239  55.269  1.00  0.00     0.142 A 
HETATM    9  N4  UNL     1      25.308  -0.696  55.139  1.00  0.00    -0.259 NA
HETATM   10  C16 UNL     1      25.587   0.107  54.080  1.00  0.00     0.071 A 
HETATM   11  C17 UNL     1      26.854   0.635  53.988  1.00  0.00     0.071 A 
HETATM   12  C18 UNL     1      27.221   1.461  52.944  1.00  0.00     0.097 A 
ENDROOT
BRANCH   4  13
HETATM   13  N2  UNL     1      22.402   0.099  52.312  1.00  0.00    -0.354 N 
HETATM   14  H6  UNL     1      22.168  -0.342  51.396  1.00  0.00     0.166 HD
BRANCH  13  15
HETATM   15  C8  UNL     1      21.317   0.981  52.203  1.00  0.00     0.034 A 
HETATM   16  C9  UNL     1      21.399   2.316  52.346  1.00  0.00     0.029 A 
HETATM   17  C10 UNL     1      20.319   3.354  52.253  1.00  0.00     0.206 A 
HETATM   18  O2  UNL     1      19.069   2.770  51.974  1.00  0.00    -0.340 OA
HETATM   19  C11 UNL     1      18.913   1.410  51.815  1.00  0.00     0.117 A 
HETATM   20 BR1  UNL     1      17.156   0.751  51.439  1.00  0.00    -0.024 Br
HETATM   21  C12 UNL     1      19.930   0.552  51.914  1.00  0.00     0.074 A 
ENDBRANCH  13  15
ENDBRANCH   4  13
BRANCH   1  22
HETATM   22  N1  UNL     1      26.593   2.607  50.861  1.00  0.00    -0.321 N 
HETATM   23  C3  UNL     1      25.757   3.712  50.578  1.00  0.00     0.245 C 
HETATM   24  O1  UNL     1      24.718   4.104  51.167  1.00  0.00    -0.268 OA
HETATM   25  H4  UNL     1      27.417   2.469  50.231  1.00  0.00     0.169 HD
BRANCH  23  26
HETATM   26  C2  UNL     1      26.057   4.597  49.453  1.00  0.00     0.064 C 
HETATM   27  C1  UNL     1      27.256   4.504  48.941  1.00  0.00     0.017 C 
ENDBRANCH  23  26
ENDBRANCH   1  22
BRANCH  12  28
HETATM   28  O3  UNL     1      28.467   2.044  52.758  1.00  0.00    -0.354 OA
HETATM   29  C19 UNL     1      29.326   2.452  53.792  1.00  0.00     0.210 C 
ENDBRANCH  12  28
TORSDOF 5
ENDMDL
MODEL 3
REMARK VINA RESULT:      -8.4      2.693      6.027
REMARK  5 active torsions:
REMARK  status: ('A' for Active; 'I' for Inactive)
REMARK    1  A    between atoms: C2_2  and  C3_3 
REMARK       I    between atoms: C3_3  and  N1_5 
REMARK    2  A    between atoms: N1_5  and  C4_6 
REMARK    3  A    between atoms: C7_9  and  N2_10 
REMARK    4  A    between atoms: N2_10  and  C8_11 
REMARK    5  A    between atoms: C18_25  and  O3_26 
ROOT
HETATM    1  C4  UNL     1      25.816   0.486  52.687  1.00  0.00     0.069 A 
HETATM    2  C5  UNL     1      25.449   1.359  51.679  1.00  0.00     0.048 A 
HETATM    3  C6  UNL     1      24.119   1.687  51.554  1.00  0.00     0.023 A 
HETATM    4  C7  UNL     1      23.664   2.551  50.576  1.00  0.00     0.067 A 
HETATM    5  C13 UNL     1      22.334   2.870  50.462  1.00  0.00     0.089 A 
HETATM    6  C14 UNL     1      21.790   3.757  49.475  1.00  0.00     0.103 C 
HETATM    7  N3  UNL     1      21.352   4.464  48.670  1.00  0.00    -0.191 NA
HETATM    8  C15 UNL     1      21.403   2.318  51.347  1.00  0.00     0.142 A 
HETATM    9  N4  UNL     1      21.840   1.469  52.310  1.00  0.00    -0.259 NA
HETATM   10  C16 UNL     1      23.162   1.170  52.401  1.00  0.00     0.071 A 
HETATM   11  C17 UNL     1      23.558   0.304  53.393  1.00  0.00     0.071 A 
HETATM   12  C18 UNL     1      24.882  -0.053  53.556  1.00  0.00     0.097 A 
ENDROOT
BRANCH   4  13
HETATM   13  N2  UNL     1      24.535   3.139  49.661  1.00  0.00    -0.354 N 
HETATM   14  H6  UNL     1      24.911   2.819  48.741  1.00  0.00     0.166 HD
BRANCH  13  15
HETATM   15  C8  UNL     1      25.248   4.343  49.571  1.00  0.00     0.034 A 
HETATM   16  C9  UNL     1      24.786   5.537  49.985  1.00  0.00     0.029 A 
HETATM   17  C10 UNL     1      25.448   6.883  49.941  1.00  0.00     0.206 A 
HETATM   18  O2  UNL     1      26.734   6.805  49.374  1.00  0.00    -0.340 OA
HETATM   19  C11 UNL     1      27.269   5.614  48.930  1.00  0.00     0.117 A 
HETATM   20 BR1  UNL     1      29.029   5.652  48.179  1.00  0.00    -0.024 Br
HETATM   21  C12 UNL     1      26.611   4.457  49.005  1.00  0.00     0.074 A 
ENDBRANCH  13  15
ENDBRANCH   4  13
BRANCH   1  22
HETATM   22  N1  UNL     1      27.215   0.154  52.803  1.00  0.00    -0.321 N 
HETATM   23  C3  UNL     1      28.058   0.982  53.582  1.00  0.00     0.245 C 
HETATM   24  O1  UNL     1      27.783   2.021  54.232  1.00  0.00    -0.268 OA
HETATM   25  H4  UNL     1      27.662  -0.672  52.345  1.00  0.00     0.169 HD
BRANCH  23  26
HETATM   26  C2  UNL     1      29.479   0.668  53.717  1.00  0.00     0.064 C 
HETATM   27  C1  UNL     1      29.814  -0.591  53.605  1.00  0.00     0.017 C 
ENDBRANCH  23  26
ENDBRANCH   1  22
BRANCH  12  28
HETATM   28  O3  UNL     1      25.388  -0.915  54.520  1.00  0.00    -0.354 OA
HETATM   29  C19 UNL     1      24.726  -1.267  55.708  1.00  0.00     0.210 C 
ENDBRANCH  12  28
TORSDOF 5
ENDMDL
MODEL 4
REMARK VINA RESULT:      -8.3      3.274      5.866
REMARK  5 active torsions:
REMARK  status: ('A' for Active; 'I' for Inactive)
REMARK    1  A    between atoms: C2_2  and  C3_3 
REMARK       I    between atoms: C3_3  and  N1_5 
REMARK    2  A    between atoms: N1_5  and  C4_6 
REMARK    3  A    between atoms: C7_9  and  N2_10 
REMARK    4  A    between atoms: N2_10  and  C8_11 
REMARK    5  A    between atoms: C18_25  and  O3_26 
ROOT
HETATM    1  C4  UNL     1      20.326   0.065  52.440  1.00  0.00     0.069 A 
HETATM    2  C5  UNL     1      21.683   0.328  52.403  1.00  0.00     0.048 A 
HETATM    3  C6  UNL     1      22.477  -0.209  53.389  1.00  0.00     0.023 A 
HETATM    4  C7  UNL     1      23.842   0.002  53.429  1.00  0.00     0.067 A 
HETATM    5  C13 UNL     1      24.624  -0.540  54.418  1.00  0.00     0.089 A 
HETATM    6  C14 UNL     1      26.043  -0.365  54.524  1.00  0.00     0.103 C 
HETATM    7  N3  UNL     1      27.187  -0.211  54.614  1.00  0.00    -0.191 NA
HETATM    8  C15 UNL     1      24.043  -1.327  55.418  1.00  0.00     0.142 A 
HETATM    9  N4  UNL     1      22.704  -1.540  55.387  1.00  0.00    -0.259 NA
HETATM   10  C16 UNL     1      21.954  -0.992  54.396  1.00  0.00     0.071 A 
HETATM   11  C17 UNL     1      20.600  -1.235  54.406  1.00  0.00     0.071 A 
HETATM   12  C18 UNL     1      19.764  -0.716  53.436  1.00  0.00     0.097 A 
ENDROOT
BRANCH   4  13
HETATM   13  N2  UNL     1      24.488   0.774  52.466  1.00  0.00    -0.354 N 
HETATM   14  H6  UNL     1      25.195   0.541  51.734  1.00  0.00     0.166 HD
BRANCH  13  15
HETATM   15  C8  UNL     1      24.479   2.121  52.074  1.00  0.00     0.034 A 
HETATM   16  C9  UNL     1      23.712   3.075  52.633  1.00  0.00     0.029 A 
HETATM   17  C10 UNL     1      23.614   4.535  52.303  1.00  0.00     0.206 A 
HETATM   18  O2  UNL     1      24.479   4.882  51.248  1.00  0.00    -0.340 OA
HETATM   19  C11 UNL     1      25.292   3.956  50.631  1.00  0.00     0.117 A 
HETATM   20 BR1  UNL     1      26.419   4.565  49.209  1.00  0.00    -0.024 Br
HETATM   21  C12 UNL     1      25.319   2.671  50.986  1.00  0.00     0.074 A 
ENDBRANCH  13  15
ENDBRANCH   4  13
BRANCH   1  22
HETATM   22  N1  UNL     1      19.509   0.636  51.398  1.00  0.00    -0.321 N 
HETATM   23  C3  UNL     1      19.111   1.990  51.497  1.00  0.00     0.245 C 
HETATM   24  O1  UNL     1      19.362   2.836  52.391  1.00  0.00    -0.268 OA
HETATM   25  H4  UNL     1      19.181   0.112  50.554  1.00  0.00     0.169 HD
BRANCH  23  26
HETATM   26  C2  UNL     1      18.284   2.595  50.454  1.00  0.00     0.064 C 
HETATM   27  C1  UNL     1      18.538   2.235  49.223  1.00  0.00     0.017 C 
ENDBRANCH  23  26
ENDBRANCH   1  22
BRANCH  12  28
HETATM   28  O3  UNL     1      18.391  -0.899  53.353  1.00  0.00    -0.354 OA
HETATM   29  C19 UNL     1      17.733  -2.128  53.522  1.00  0.00     0.210 C 
ENDBRANCH  12  28
TORSDOF 5
ENDMDL
MODEL 5
REMARK VINA RESULT:      -8.2      2.669      5.887
REMARK  5 active torsions:
REMARK  status: ('A' for Active; 'I' for Inactive)
REMARK    1  A    between atoms: C2_2  and  C3_3 
REMARK       I    between atoms: C3_3  and  N1_5 
REMARK    2  A    between atoms: N1_5  and  C4_6 
REMARK    3  A    between atoms: C7_9  and  N2_10 
REMARK    4  A    between atoms: N2_10  and  C8_11 
REMARK    5  A    between atoms: C18_25  and  O3_26 
ROOT
HETATM    1  C4  UNL     1      25.020   0.021  53.279  1.00  0.00     0.069 A 
HETATM    2  C5  UNL     1      24.479   0.818  52.287  1.00  0.00     0.048 A 
HETATM    3  C6  UNL     1      23.111   0.947  52.230  1.00  0.00     0.023 A 
HETATM    4  C7  UNL     1      22.485   1.722  51.273  1.00  0.00     0.067 A 
HETATM    5  C13 UNL     1      21.118   1.843  51.227  1.00  0.00     0.089 A 
HETATM    6  C14 UNL     1      20.400   2.628  50.265  1.00  0.00     0.103 C 
HETATM    7  N3  UNL     1      19.823   3.252  49.480  1.00  0.00    -0.191 NA
HETATM    8  C15 UNL     1      20.324   1.173  52.163  1.00  0.00     0.142 A 
HETATM    9  N4  UNL     1      20.929   0.410  53.107  1.00  0.00    -0.259 NA
HETATM   10  C16 UNL     1      22.283   0.307  53.130  1.00  0.00     0.071 A 
HETATM   11  C17 UNL     1      22.853  -0.478  54.104  1.00  0.00     0.071 A 
HETATM   12  C18 UNL     1      24.221  -0.637  54.199  1.00  0.00     0.097 A 
ENDROOT
BRANCH   4  13
HETATM   13  N2  UNL     1      23.212   2.418  50.309  1.00  0.00    -0.354 N 
HETATM   14  H6  UNL     1      23.407   2.228  49.302  1.00  0.00     0.166 HD
BRANCH  13  15
HETATM   15  C8  UNL     1      23.957   3.605  50.264  1.00  0.00     0.034 A 
HETATM   16  C9  UNL     1      23.575   4.768  50.823  1.00  0.00     0.029 A 
HETATM   17  C10 UNL     1      24.278   6.094  50.841  1.00  0.00     0.206 A 
HETATM   18  O2  UNL     1      25.506   6.033  50.157  1.00  0.00    -0.340 OA
HETATM   19  C11 UNL     1      25.959   4.874  49.562  1.00  0.00     0.117 A 
HETATM   20 BR1  UNL     1      27.648   4.933  48.664  1.00  0.00    -0.024 Br
HETATM   21  C12 UNL     1      25.269   3.733  49.592  1.00  0.00     0.074 A 
ENDBRANCH  13  15
ENDBRANCH   4  13
BRANCH   1  22
HETATM   22  N1  UNL     1      26.457  -0.102  53.323  1.00  0.00    -0.321 N 
HETATM   23  C3  UNL     1      27.216   0.907  53.960  1.00  0.00     0.245 C 
HETATM   24  O1  UNL     1      26.834   1.958  54.531  1.00  0.00    -0.268 OA
HETATM   25  H4  UNL     1      26.990  -0.901  52.910  1.00  0.00     0.169 HD
BRANCH  23  26
HETATM   26  C2  UNL     1      28.674   0.806  54.020  1.00  0.00     0.064 C 
HETATM   27  C1  UNL     1      29.192  -0.359  53.733  1.00  0.00     0.017 C 
ENDBRANCH  23  26
ENDBRANCH   1  22
BRANCH  12  28
HETATM   28  O3  UNL     1      24.896  -1.402  55.140  1.00  0.00    -0.354 OA
HETATM   29  C19 UNL     1      24.979  -1.101  56.510  1.00  0.00     0.210 C 
ENDBRANCH  12  28
TORSDOF 5
ENDMDL
MODEL 6
REMARK VINA RESULT:      -8.1      2.391      2.772
REMARK  5 active torsions:
REMARK  status: ('A' for Active; 'I' for Inactive)
REMARK    1  A    between atoms: C2_2  and  C3_3 
REMARK       I    between atoms: C3_3  and  N1_5 
REMARK    2  A    between atoms: N1_5  and  C4_6 
REMARK    3  A    between atoms: C7_9  and  N2_10 
REMARK    4  A    between atoms: N2_10  and  C8_11 
REMARK    5  A    between atoms: C18_25  and  O3_26 
ROOT
HETATM    1  C4  UNL     1      23.881   4.699  51.313  1.00  0.00     0.069 A 
HETATM    2  C5  UNL     1      23.856   3.369  51.691  1.00  0.00     0.048 A 
HETATM    3  C6  UNL     1      22.666   2.841  52.135  1.00  0.00     0.023 A 
HETATM    4  C7  UNL     1      22.550   1.523  52.532  1.00  0.00     0.067 A 
HETATM    5  C13 UNL     1      21.356   1.007  52.972  1.00  0.00     0.089 A 
HETATM    6  C14 UNL     1      21.161  -0.348  53.399  1.00  0.00     0.103 C 
HETATM    7  N3  UNL     1      21.008  -1.438  53.754  1.00  0.00    -0.191 NA
HETATM    8  C15 UNL     1      20.220   1.821  53.027  1.00  0.00     0.142 A 
HETATM    9  N4  UNL     1      20.325   3.116  52.640  1.00  0.00    -0.259 NA
HETATM   10  C16 UNL     1      21.517   3.601  52.208  1.00  0.00     0.071 A 
HETATM   11  C17 UNL     1      21.575   4.920  51.825  1.00  0.00     0.071 A 
HETATM   12  C18 UNL     1      22.748   5.493  51.374  1.00  0.00     0.097 A 
ENDROOT
BRANCH   4  13
HETATM   13  N2  UNL     1      23.639   0.654  52.502  1.00  0.00    -0.354 N 
HETATM   14  H6  UNL     1      23.999   0.001  51.772  1.00  0.00     0.166 HD
BRANCH  13  15
HETATM   15  C8  UNL     1      24.671   0.294  53.381  1.00  0.00     0.034 A 
HETATM   16  C9  UNL     1      24.514  -0.487  54.466  1.00  0.00     0.029 A 
HETATM   17  C10 UNL     1      25.531  -0.938  55.472  1.00  0.00     0.206 A 
HETATM   18  O2  UNL     1      26.810  -0.433  55.171  1.00  0.00    -0.340 OA
HETATM   19  C11 UNL     1      27.043   0.372  54.075  1.00  0.00     0.117 A 
HETATM   20 BR1  UNL     1      28.831   0.989  53.785  1.00  0.00    -0.024 Br
HETATM   21  C12 UNL     1      26.078   0.728  53.226  1.00  0.00     0.074 A 
ENDBRANCH  13  15
ENDBRANCH   4  13
BRANCH   1  22
HETATM   22  N1  UNL     1      25.138   5.235  50.850  1.00  0.00    -0.321 N 
HETATM   23  C3  UNL     1      25.354   5.384  49.460  1.00  0.00     0.245 C 
HETATM   24  O1  UNL     1      24.594   5.115  48.497  1.00  0.00    -0.268 OA
HETATM   25  H4  UNL     1      25.918   5.530  51.481  1.00  0.00     0.169 HD
BRANCH  23  26
HETATM   26  C2  UNL     1      26.618   5.926  48.964  1.00  0.00     0.064 C 
HETATM   27  C1  UNL     1      27.531   5.057  48.617  1.00  0.00     0.017 C 
ENDBRANCH  23  26
ENDBRANCH   1  22
BRANCH  12  28
HETATM   28  O3  UNL     1      22.915   6.809  50.964  1.00  0.00    -0.354 OA
HETATM   29  C19 UNL     1      22.062   7.489  50.080  1.00  0.00     0.210 C 
ENDBRANCH  12  28
TORSDOF 5
ENDMDL
MODEL 7
REMARK VINA RESULT:      -7.9      2.584      5.463
REMARK  5 active torsions:
REMARK  status: ('A' for Active; 'I' for Inactive)
REMARK    1  A    between atoms: C2_2  and  C3_3 
REMARK       I    between atoms: C3_3  and  N1_5 
REMARK    2  A    between atoms: N1_5  and  C4_6 
REMARK    3  A    between atoms: C7_9  and  N2_10 
REMARK    4  A    between atoms: N2_10  and  C8_11 
REMARK    5  A    between atoms: C18_25  and  O3_26 
ROOT
HETATM    1  C4  UNL     1      26.231   2.187  52.064  1.00  0.00     0.069 A 
HETATM    2  C5  UNL     1      24.854   2.089  51.982  1.00  0.00     0.048 A 
HETATM    3  C6  UNL     1      24.225   1.123  52.732  1.00  0.00     0.023 A 
HETATM    4  C7  UNL     1      22.854   0.954  52.712  1.00  0.00     0.067 A 
HETATM    5  C13 UNL     1      22.238  -0.014  53.465  1.00  0.00     0.089 A 
HETATM    6  C14 UNL     1      20.823  -0.247  53.495  1.00  0.00     0.103 C 
HETATM    7  N3  UNL     1      19.682  -0.441  53.508  1.00  0.00    -0.191 NA
HETATM    8  C15 UNL     1      22.999  -0.858  54.279  1.00  0.00     0.142 A 
HETATM    9  N4  UNL     1      24.346  -0.700  54.306  1.00  0.00    -0.259 NA
HETATM   10  C16 UNL     1      24.930   0.266  53.550  1.00  0.00     0.071 A 
HETATM   11  C17 UNL     1      26.299   0.389  53.609  1.00  0.00     0.071 A 
HETATM   12  C18 UNL     1      26.973   1.344  52.873  1.00  0.00     0.097 A 
ENDROOT
BRANCH   4  13
HETATM   13  N2  UNL     1      22.032   1.759  51.925  1.00  0.00    -0.354 N 
HETATM   14  H6  UNL     1      21.162   2.296  52.137  1.00  0.00     0.166 HD
BRANCH  13  15
HETATM   15  C8  UNL     1      22.009   2.183  50.589  1.00  0.00     0.034 A 
HETATM   16  C9  UNL     1      21.866   1.365  49.530  1.00  0.00     0.029 A 
HETATM   17  C10 UNL     1      21.827   1.696  48.067  1.00  0.00     0.206 A 
HETATM   18  O2  UNL     1      21.964   3.080  47.850  1.00  0.00    -0.340 OA
HETATM   19  C11 UNL     1      22.113   3.975  48.889  1.00  0.00     0.117 A 
HETATM   20 BR1  UNL     1      22.289   5.830  48.450  1.00  0.00    -0.024 Br
HETATM   21  C12 UNL     1      22.138   3.596  50.167  1.00  0.00     0.074 A 
ENDBRANCH  13  15
ENDBRANCH   4  13
BRANCH   1  22
HETATM   22  N1  UNL     1      26.874   3.206  51.270  1.00  0.00    -0.321 N 
HETATM   23  C3  UNL     1      26.412   3.450  49.956  1.00  0.00     0.245 C 
HETATM   24  O1  UNL     1      25.480   2.900  49.318  1.00  0.00    -0.268 OA
HETATM   25  H4  UNL     1      27.673   3.792  51.603  1.00  0.00     0.169 HD
BRANCH  23  26
HETATM   26  C2  UNL     1      27.044   4.478  49.130  1.00  0.00     0.064 C 
HETATM   27  C1  UNL     1      26.356   5.571  48.928  1.00  0.00     0.017 C 
ENDBRANCH  23  26
ENDBRANCH   1  22
BRANCH  12  28
HETATM   28  O3  UNL     1      28.345   1.553  52.860  1.00  0.00    -0.354 OA
HETATM   29  C19 UNL     1      29.253   0.981  53.767  1.00  0.00     0.210 C 
ENDBRANCH  12  28
TORSDOF 5
ENDMDL
MODEL 8
REMARK VINA RESULT:      -7.9      2.959      5.784
REMARK  5 active torsions:
REMARK  status: ('A' for Active; 'I' for Inactive)
REMARK    1  A    between atoms: C2_2  and  C3_3 
REMARK       I    between atoms: C3_3  and  N1_5 
REMARK    2  A    between atoms: N1_5  and  C4_6 
REMARK    3  A    between atoms: C7_9  and  N2_10 
REMARK    4  A    between atoms: N2_10  and  C8_11 
REMARK    5  A    between atoms: C18_25  and  O3_26 
ROOT
HETATM    1  C4  UNL     1      25.976   1.089  52.180  1.00  0.00     0.069 A 
HETATM    2  C5  UNL     1      24.609   0.929  52.046  1.00  0.00     0.048 A 
HETATM    3  C6  UNL     1      23.942   0.198  53.002  1.00  0.00     0.023 A 
HETATM    4  C7  UNL     1      22.578  -0.012  52.948  1.00  0.00     0.067 A 
HETATM    5  C13 UNL     1      21.924  -0.742  53.908  1.00  0.00     0.089 A 
HETATM    6  C14 UNL     1      20.514  -1.001  53.918  1.00  0.00     0.103 C 
HETATM    7  N3  UNL     1      19.377  -1.218  53.917  1.00  0.00    -0.191 NA
HETATM    8  C15 UNL     1      22.640  -1.295  54.975  1.00  0.00     0.142 A 
HETATM    9  N4  UNL     1      23.980  -1.094  55.037  1.00  0.00    -0.259 NA
HETATM   10  C16 UNL     1      24.602  -0.367  54.073  1.00  0.00     0.071 A 
HETATM   11  C17 UNL     1      25.961  -0.190  54.178  1.00  0.00     0.071 A 
HETATM   12  C18 UNL     1      26.672   0.535  53.241  1.00  0.00     0.097 A 
ENDROOT
BRANCH   4  13
HETATM   13  N2  UNL     1      21.801   0.510  51.915  1.00  0.00    -0.354 N 
HETATM   14  H6  UNL     1      21.574   0.158  50.959  1.00  0.00     0.166 HD
BRANCH  13  15
HETATM   15  C8  UNL     1      21.028   1.662  51.711  1.00  0.00     0.034 A 
HETATM   16  C9  UNL     1      19.684   1.680  51.654  1.00  0.00     0.029 A 
HETATM   17  C10 UNL     1      18.754   2.839  51.443  1.00  0.00     0.206 A 
HETATM   18  O2  UNL     1      19.463   4.045  51.291  1.00  0.00    -0.340 OA
HETATM   19  C11 UNL     1      20.840   4.099  51.339  1.00  0.00     0.117 A 
HETATM   20 BR1  UNL     1      21.674   5.807  51.117  1.00  0.00    -0.024 Br
HETATM   21  C12 UNL     1      21.596   3.018  51.532  1.00  0.00     0.074 A 
ENDBRANCH  13  15
ENDBRANCH   4  13
BRANCH   1  22
HETATM   22  N1  UNL     1      26.658   1.858  51.168  1.00  0.00    -0.321 N 
HETATM   23  C3  UNL     1      26.102   3.088  50.745  1.00  0.00     0.245 C 
HETATM   24  O1  UNL     1      25.052   3.666  51.122  1.00  0.00    -0.268 OA
HETATM   25  H4  UNL     1      27.553   1.567  50.713  1.00  0.00     0.169 HD
BRANCH  23  26
HETATM   26  C2  UNL     1      26.773   3.888  49.722  1.00  0.00     0.064 C 
HETATM   27  C1  UNL     1      26.139   4.952  49.302  1.00  0.00     0.017 C 
ENDBRANCH  23  26
ENDBRANCH   1  22
BRANCH  12  28
HETATM   28  O3  UNL     1      28.039   0.774  53.252  1.00  0.00    -0.354 OA
HETATM   29  C19 UNL     1      29.014  -0.157  53.648  1.00  0.00     0.210 C 
ENDBRANCH  12  28
TORSDOF 5
ENDMDL
MODEL 9
REMARK VINA RESULT:      -7.8      3.406      5.251
REMARK  5 active torsions:
REMARK  status: ('A' for Active; 'I' for Inactive)
REMARK    1  A    between atoms: C2_2  and  C3_3 
REMARK       I    between atoms: C3_3  and  N1_5 
REMARK    2  A    between atoms: N1_5  and  C4_6 
REMARK    3  A    between atoms: C7_9  and  N2_10 
REMARK    4  A    between atoms: N2_10  and  C8_11 
REMARK    5  A    between atoms: C18_25  and  O3_26 
ROOT
HETATM    1  C4  UNL     1      24.420   4.484  50.268  1.00  0.00     0.069 A 
HETATM    2  C5  UNL     1      24.058   3.586  51.256  1.00  0.00     0.048 A 
HETATM    3  C6  UNL     1      24.977   2.638  51.641  1.00  0.00     0.023 A 
HETATM    4  C7  UNL     1      24.702   1.703  52.620  1.00  0.00     0.067 A 
HETATM    5  C13 UNL     1      25.627   0.762  52.996  1.00  0.00     0.089 A 
HETATM    6  C14 UNL     1      25.413  -0.237  54.002  1.00  0.00     0.103 C 
HETATM    7  N3  UNL     1      25.232  -1.050  54.805  1.00  0.00    -0.191 NA
HETATM    8  C15 UNL     1      26.885   0.734  52.386  1.00  0.00     0.142 A 
HETATM    9  N4  UNL     1      27.165   1.648  51.424  1.00  0.00    -0.259 NA
HETATM   10  C16 UNL     1      26.231   2.568  51.070  1.00  0.00     0.071 A 
HETATM   11  C17 UNL     1      26.559   3.475  50.090  1.00  0.00     0.071 A 
HETATM   12  C18 UNL     1      25.668   4.444  49.671  1.00  0.00     0.097 A 
ENDROOT
BRANCH   4  13
HETATM   13  N2  UNL     1      23.470   1.672  53.271  1.00  0.00    -0.354 N 
HETATM   14  H6  UNL     1      23.105   2.174  54.110  1.00  0.00     0.166 HD
BRANCH  13  15
HETATM   15  C8  UNL     1      22.252   0.998  53.103  1.00  0.00     0.034 A 
HETATM   16  C9  UNL     1      21.772   0.064  53.944  1.00  0.00     0.029 A 
HETATM   17  C10 UNL     1      20.495  -0.720  53.872  1.00  0.00     0.206 A 
HETATM   18  O2  UNL     1      19.743  -0.372  52.734  1.00  0.00    -0.340 OA
HETATM   19  C11 UNL     1      20.174   0.577  51.831  1.00  0.00     0.117 A 
HETATM   20 BR1  UNL     1      19.052   0.952  50.327  1.00  0.00    -0.024 Br
HETATM   21  C12 UNL     1      21.328   1.231  51.970  1.00  0.00     0.074 A 
ENDBRANCH  13  15
ENDBRANCH   4  13
BRANCH   1  22
HETATM   22  N1  UNL     1      23.443   5.471  49.876  1.00  0.00    -0.321 N 
HETATM   23  C3  UNL     1      23.455   6.739  50.503  1.00  0.00     0.245 C 
HETATM   24  O1  UNL     1      24.216   7.185  51.397  1.00  0.00    -0.268 OA
HETATM   25  H4  UNL     1      22.711   5.315  49.146  1.00  0.00     0.169 HD
BRANCH  23  26
HETATM   26  C2  UNL     1      22.477   7.758  50.125  1.00  0.00     0.064 C 
HETATM   27  C1  UNL     1      21.241   7.550  50.497  1.00  0.00     0.017 C 
ENDBRANCH  23  26
ENDBRANCH   1  22
BRANCH  12  28
HETATM   28  O3  UNL     1      25.898   5.403  48.695  1.00  0.00    -0.354 OA
HETATM   29  C19 UNL     1      26.894   6.392  48.758  1.00  0.00     0.210 C 
ENDBRANCH  12  28
TORSDOF 5
ENDMDL
