MODEL 1
REMARK VINA RESULT:      -6.9      0.000      0.000
REMARK  6 active torsions:
REMARK  status: ('A' for Active; 'I' for Inactive)
REMARK    1  A    between atoms: C2_3  and  C3_4 
REMARK    2  A    between atoms: C2_3  and  N4_15 
REMARK    3  A    between atoms: C4_5  and  C5_6 
REMARK    4  A    between atoms: C5_6  and  N2_7 
REMARK    5  A    between atoms: N2_7  and  C6_8 
REMARK    6  A    between atoms: N4_15  and  C10_16 
ROOT
HETATM    1  C1  UNL     1      23.099   2.873  49.004  1.00  0.00     0.262 C 
HETATM    2  N1  UNL     1      24.216   3.130  49.728  1.00  0.00    -0.436 NA
HETATM    3  C2  UNL     1      25.203   3.361  50.291  1.00  0.00     0.172 C 
ENDROOT
BRANCH   3   4
HETATM    4  C3  UNL     1      26.472   3.729  49.666  1.00  0.00     0.061 C 
HETATM    5  C4  UNL     1      26.854   4.810  49.028  1.00  0.00     0.008 C 
BRANCH   5   6
HETATM    6  C5  UNL     1      28.150   5.161  48.399  1.00  0.00     0.300 C 
BRANCH   6   7
HETATM    7  N2  UNL     1      28.673   6.394  48.869  1.00  0.00     0.117 N 
HETATM    8  H8  UNL     1      28.031   7.171  49.016  1.00  0.00     0.319 HD
BRANCH   7   9
HETATM    9  C6  UNL     1      29.878   6.791  48.169  1.00  0.00     0.389 C 
HETATM   10  N3  UNL     1      30.694   5.643  47.830  1.00  0.00    -0.367 N 
HETATM   11  C7  UNL     1      31.876   5.423  48.562  1.00  0.00     0.287 C 
HETATM   12  H10 UNL     1      30.191   4.826  47.489  1.00  0.00     0.157 HD
HETATM   13  O1  UNL     1      32.221   6.272  49.579  1.00  0.00    -0.365 OA
HETATM   14  C8  UNL     1      32.067   7.628  49.290  1.00  0.00     0.252 C 
HETATM   15  C9  UNL     1      30.645   7.798  48.930  1.00  0.00     0.202 C 
HETATM   16  O2  UNL     1      29.970   8.798  49.239  1.00  0.00    -0.291 OA
ENDBRANCH   7   9
ENDBRANCH   6   7
ENDBRANCH   5   6
ENDBRANCH   3   4
BRANCH   3  17
HETATM   17  N4  UNL     1      25.194   3.295  51.723  1.00  0.00    -0.332 N 
HETATM   18  H15 UNL     1      25.079   4.161  52.325  1.00  0.00     0.168 HD
BRANCH  17  19
HETATM   19  C10 UNL     1      25.359   2.006  52.363  1.00  0.00     0.035 A 
HETATM   20  C11 UNL     1      24.180   1.351  52.618  1.00  0.00     0.031 A 
HETATM   21  C12 UNL     1      24.171   0.093  53.252  1.00  0.00     0.019 A 
HETATM   22  P1  UNL     1      25.743  -0.507  53.652  1.00  0.00    -0.015 P 
HETATM   23  C13 UNL     1      27.053   0.534  53.212  1.00  0.00     0.026 A 
HETATM   24 BR1  UNL     1      28.852   0.089  53.556  1.00  0.00    -0.050 Br
HETATM   25  C14 UNL     1      26.682   1.730  52.586  1.00  0.00     0.050 A 
ENDBRANCH  17  19
ENDBRANCH   3  17
TORSDOF 6
ENDMDL
MODEL 2
REMARK VINA RESULT:      -6.9      1.673      2.108
REMARK  6 active torsions:
REMARK  status: ('A' for Active; 'I' for Inactive)
REMARK    1  A    between atoms: C2_3  and  C3_4 
REMARK    2  A    between atoms: C2_3  and  N4_15 
REMARK    3  A    between atoms: C4_5  and  C5_6 
REMARK    4  A    between atoms: C5_6  and  N2_7 
REMARK    5  A    between atoms: N2_7  and  C6_8 
REMARK    6  A    between atoms: N4_15  and  C10_16 
ROOT
HETATM    1  C1  UNL     1      23.127   2.743  48.856  1.00  0.00     0.262 C 
HETATM    2  N1  UNL     1      24.096   3.319  49.611  1.00  0.00    -0.436 NA
HETATM    3  C2  UNL     1      24.947   3.838  50.201  1.00  0.00     0.172 C 
ENDROOT
BRANCH   3   4
HETATM    4  C3  UNL     1      25.969   4.711  49.627  1.00  0.00     0.061 C 
HETATM    5  C4  UNL     1      27.099   4.452  49.013  1.00  0.00     0.008 C 
BRANCH   5   6
HETATM    6  C5  UNL     1      28.123   5.359  48.439  1.00  0.00     0.300 C 
BRANCH   6   7
HETATM    7  N2  UNL     1      28.169   6.618  49.091  1.00  0.00     0.117 N 
HETATM    8  H8  UNL     1      27.311   6.989  49.494  1.00  0.00     0.319 HD
BRANCH   7   9
HETATM    9  C6  UNL     1      28.904   7.612  48.333  1.00  0.00     0.389 C 
HETATM   10  N3  UNL     1      30.120   7.055  47.775  1.00  0.00    -0.367 N 
HETATM   11  C7  UNL     1      31.350   7.418  48.356  1.00  0.00     0.287 C 
HETATM   12  H10 UNL     1      30.041   6.119  47.383  1.00  0.00     0.157 HD
HETATM   13  O1  UNL     1      31.377   8.261  49.434  1.00  0.00    -0.365 OA
HETATM   14  C8  UNL     1      30.534   9.369  49.334  1.00  0.00     0.252 C 
HETATM   15  C9  UNL     1      29.178   8.819  49.138  1.00  0.00     0.202 C 
HETATM   16  O2  UNL     1      28.152   9.321  49.634  1.00  0.00    -0.291 OA
ENDBRANCH   7   9
ENDBRANCH   6   7
ENDBRANCH   5   6
ENDBRANCH   3   4
BRANCH   3  17
HETATM   17  N4  UNL     1      25.013   3.626  51.617  1.00  0.00    -0.332 N 
HETATM   18  H15 UNL     1      24.902   4.421  52.311  1.00  0.00     0.168 HD
BRANCH  17  19
HETATM   19  C10 UNL     1      25.251   2.286  52.111  1.00  0.00     0.035 A 
HETATM   20  C11 UNL     1      26.538   1.842  51.936  1.00  0.00     0.031 A 
HETATM   21  C12 UNL     1      26.925   0.552  52.349  1.00  0.00     0.019 A 
HETATM   22  P1  UNL     1      25.652  -0.369  53.072  1.00  0.00    -0.015 P 
HETATM   23  C13 UNL     1      24.127   0.444  53.163  1.00  0.00     0.026 A 
HETATM   24 BR1  UNL     1      22.595  -0.367  53.905  1.00  0.00    -0.050 Br
HETATM   25  C14 UNL     1      24.110   1.744  52.643  1.00  0.00     0.050 A 
ENDBRANCH  17  19
ENDBRANCH   3  17
TORSDOF 6
ENDMDL
MODEL 3
REMARK VINA RESULT:      -6.8      5.912      7.479
REMARK  6 active torsions:
REMARK  status: ('A' for Active; 'I' for Inactive)
REMARK    1  A    between atoms: C2_3  and  C3_4 
REMARK    2  A    between atoms: C2_3  and  N4_15 
REMARK    3  A    between atoms: C4_5  and  C5_6 
REMARK    4  A    between atoms: C5_6  and  N2_7 
REMARK    5  A    between atoms: N2_7  and  C6_8 
REMARK    6  A    between atoms: N4_15  and  C10_16 
ROOT
HETATM    1  C1  UNL     1      21.244  -0.133  54.889  1.00  0.00     0.262 C 
HETATM    2  N1  UNL     1      21.723   0.189  53.662  1.00  0.00    -0.436 NA
HETATM    3  C2  UNL     1      22.189   0.480  52.641  1.00  0.00     0.172 C 
ENDROOT
BRANCH   3   4
HETATM    4  C3  UNL     1      23.553   0.962  52.437  1.00  0.00     0.061 C 
HETATM    5  C4  UNL     1      24.022   2.063  51.898  1.00  0.00     0.008 C 
BRANCH   5   6
HETATM    6  C5  UNL     1      25.416   2.531  51.700  1.00  0.00     0.300 C 
BRANCH   6   7
HETATM    7  N2  UNL     1      26.218   2.375  52.861  1.00  0.00     0.117 N 
HETATM    8  H8  UNL     1      26.416   3.196  53.430  1.00  0.00     0.319 HD
BRANCH   7   9
HETATM    9  C6  UNL     1      27.396   1.565  52.620  1.00  0.00     0.389 C 
HETATM   10  N3  UNL     1      27.038   0.235  52.173  1.00  0.00    -0.367 N 
HETATM   11  C7  UNL     1      27.188  -0.836  53.075  1.00  0.00     0.287 C 
HETATM   12  H10 UNL     1      26.277   0.182  51.499  1.00  0.00     0.157 HD
HETATM   13  O1  UNL     1      27.642  -0.604  54.345  1.00  0.00    -0.365 OA
HETATM   14  C8  UNL     1      28.729   0.266  54.431  1.00  0.00     0.252 C 
HETATM   15  C9  UNL     1      28.280   1.524  53.802  1.00  0.00     0.202 C 
HETATM   16  O2  UNL     1      28.604   2.654  54.212  1.00  0.00    -0.291 OA
ENDBRANCH   7   9
ENDBRANCH   6   7
ENDBRANCH   5   6
ENDBRANCH   3   4
BRANCH   3  17
HETATM   17  N4  UNL     1      21.376   0.352  51.468  1.00  0.00    -0.332 N 
HETATM   18  H15 UNL     1      21.656  -0.270  50.654  1.00  0.00     0.168 HD
BRANCH  17  19
HETATM   19  C10 UNL     1      20.142   1.106  51.388  1.00  0.00     0.035 A 
HETATM   20  C11 UNL     1      20.294   2.456  51.585  1.00  0.00     0.031 A 
HETATM   21  C12 UNL     1      19.185   3.324  51.554  1.00  0.00     0.019 A 
HETATM   22  P1  UNL     1      17.677   2.532  51.253  1.00  0.00    -0.015 P 
HETATM   23  C13 UNL     1      17.785   0.818  51.044  1.00  0.00     0.026 A 
HETATM   24 BR1  UNL     1      16.269  -0.254  50.712  1.00  0.00    -0.050 Br
HETATM   25  C14 UNL     1      19.074   0.283  51.142  1.00  0.00     0.050 A 
ENDBRANCH  17  19
ENDBRANCH   3  17
TORSDOF 6
ENDMDL
MODEL 4
REMARK VINA RESULT:      -6.7      5.557      7.026
REMARK  6 active torsions:
REMARK  status: ('A' for Active; 'I' for Inactive)
REMARK    1  A    between atoms: C2_3  and  C3_4 
REMARK    2  A    between atoms: C2_3  and  N4_15 
REMARK    3  A    between atoms: C4_5  and  C5_6 
REMARK    4  A    between atoms: C5_6  and  N2_7 
REMARK    5  A    between atoms: N2_7  and  C6_8 
REMARK    6  A    between atoms: N4_15  and  C10_16 
ROOT
HETATM    1  C1  UNL     1      19.543  -1.085  53.707  1.00  0.00     0.262 C 
HETATM    2  N1  UNL     1      20.411  -0.129  53.290  1.00  0.00    -0.436 NA
HETATM    3  C2  UNL     1      21.201   0.653  52.962  1.00  0.00     0.172 C 
ENDROOT
BRANCH   3   4
HETATM    4  C3  UNL     1      22.630   0.593  53.259  1.00  0.00     0.061 C 
HETATM    5  C4  UNL     1      23.464  -0.416  53.358  1.00  0.00     0.008 C 
BRANCH   5   6
HETATM    6  C5  UNL     1      24.915  -0.452  53.663  1.00  0.00     0.300 C 
BRANCH   6   7
HETATM    7  N2  UNL     1      25.607   0.685  53.169  1.00  0.00     0.117 N 
HETATM    8  H8  UNL     1      25.184   1.225  52.418  1.00  0.00     0.319 HD
BRANCH   7   9
HETATM    9  C6  UNL     1      27.016   0.425  52.945  1.00  0.00     0.389 C 
HETATM   10  N3  UNL     1      27.551  -0.476  53.946  1.00  0.00    -0.367 N 
HETATM   11  C7  UNL     1      28.394   0.056  54.941  1.00  0.00     0.287 C 
HETATM   12  H10 UNL     1      26.956  -1.261  54.201  1.00  0.00     0.157 HD
HETATM   13  O1  UNL     1      28.673   1.396  54.959  1.00  0.00    -0.365 OA
HETATM   14  C8  UNL     1      28.972   1.951  53.714  1.00  0.00     0.252 C 
HETATM   15  C9  UNL     1      27.795   1.677  52.866  1.00  0.00     0.202 C 
HETATM   16  O2  UNL     1      27.358   2.474  52.015  1.00  0.00    -0.291 OA
ENDBRANCH   7   9
ENDBRANCH   6   7
ENDBRANCH   5   6
ENDBRANCH   3   4
BRANCH   3  17
HETATM   17  N4  UNL     1      20.757   1.776  52.190  1.00  0.00    -0.332 N 
HETATM   18  H15 UNL     1      20.014   2.445  52.547  1.00  0.00     0.168 HD
BRANCH  17  19
HETATM   19  C10 UNL     1      21.334   1.994  50.880  1.00  0.00     0.035 A 
HETATM   20  C11 UNL     1      20.945   1.077  49.935  1.00  0.00     0.031 A 
HETATM   21  C12 UNL     1      21.432   1.143  48.615  1.00  0.00     0.019 A 
HETATM   22  P1  UNL     1      22.525   2.453  48.330  1.00  0.00    -0.015 P 
HETATM   23  C13 UNL     1      22.836   3.453  49.708  1.00  0.00     0.026 A 
HETATM   24 BR1  UNL     1      24.000   4.935  49.635  1.00  0.00    -0.050 Br
HETATM   25  C14 UNL     1      22.166   3.083  50.880  1.00  0.00     0.050 A 
ENDBRANCH  17  19
ENDBRANCH   3  17
TORSDOF 6
ENDMDL
MODEL 5
REMARK VINA RESULT:      -6.7      5.609      7.430
REMARK  6 active torsions:
REMARK  status: ('A' for Active; 'I' for Inactive)
REMARK    1  A    between atoms: C2_3  and  C3_4 
REMARK    2  A    between atoms: C2_3  and  N4_15 
REMARK    3  A    between atoms: C4_5  and  C5_6 
REMARK    4  A    between atoms: C5_6  and  N2_7 
REMARK    5  A    between atoms: N2_7  and  C6_8 
REMARK    6  A    between atoms: N4_15  and  C10_16 
ROOT
HETATM    1  C1  UNL     1      21.007   3.817  50.799  1.00  0.00     0.262 C 
HETATM    2  N1  UNL     1      22.158   4.243  51.377  1.00  0.00    -0.436 NA
HETATM    3  C2  UNL     1      23.161   4.544  51.873  1.00  0.00     0.172 C 
ENDROOT
BRANCH   3   4
HETATM    4  C3  UNL     1      24.223   3.623  52.270  1.00  0.00     0.061 C 
HETATM    5  C4  UNL     1      24.284   2.707  53.208  1.00  0.00     0.008 C 
BRANCH   5   6
HETATM    6  C5  UNL     1      25.377   1.782  53.594  1.00  0.00     0.300 C 
BRANCH   6   7
HETATM    7  N2  UNL     1      26.624   2.442  53.750  1.00  0.00     0.117 N 
HETATM    8  H8  UNL     1      26.660   3.452  53.627  1.00  0.00     0.319 HD
BRANCH   7   9
HETATM    9  C6  UNL     1      27.706   1.757  53.070  1.00  0.00     0.389 C 
HETATM   10  N3  UNL     1      27.227   0.585  52.366  1.00  0.00    -0.367 N 
HETATM   11  C7  UNL     1      27.524  -0.684  52.900  1.00  0.00     0.287 C 
HETATM   12  H10 UNL     1      26.345   0.694  51.870  1.00  0.00     0.157 HD
HETATM   13  O1  UNL     1      28.230  -0.788  54.068  1.00  0.00    -0.365 OA
HETATM   14  C8  UNL     1      29.337   0.056  54.162  1.00  0.00     0.252 C 
HETATM   15  C9  UNL     1      28.808   1.425  53.995  1.00  0.00     0.202 C 
HETATM   16  O2  UNL     1      29.241   2.412  54.618  1.00  0.00    -0.291 OA
ENDBRANCH   7   9
ENDBRANCH   6   7
ENDBRANCH   5   6
ENDBRANCH   3   4
BRANCH   3  17
HETATM   17  N4  UNL     1      23.401   5.936  52.115  1.00  0.00    -0.332 N 
HETATM   18  H15 UNL     1      23.302   6.365  53.081  1.00  0.00     0.168 HD
BRANCH  17  19
HETATM   19  C10 UNL     1      23.780   6.783  51.003  1.00  0.00     0.035 A 
HETATM   20  C11 UNL     1      25.094   6.660  50.625  1.00  0.00     0.031 A 
HETATM   21  C12 UNL     1      25.621   7.429  49.568  1.00  0.00     0.019 A 
HETATM   22  P1  UNL     1      24.476   8.497  48.833  1.00  0.00    -0.015 P 
HETATM   23  C13 UNL     1      22.887   8.442  49.517  1.00  0.00     0.026 A 
HETATM   24 BR1  UNL     1      21.479   9.523  48.880  1.00  0.00    -0.050 Br
HETATM   25  C14 UNL     1      22.723   7.543  50.576  1.00  0.00     0.050 A 
ENDBRANCH  17  19
ENDBRANCH   3  17
TORSDOF 6
ENDMDL
MODEL 6
REMARK VINA RESULT:      -6.7      4.254      6.521
REMARK  6 active torsions:
REMARK  status: ('A' for Active; 'I' for Inactive)
REMARK    1  A    between atoms: C2_3  and  C3_4 
REMARK    2  A    between atoms: C2_3  and  N4_15 
REMARK    3  A    between atoms: C4_5  and  C5_6 
REMARK    4  A    between atoms: C5_6  and  N2_7 
REMARK    5  A    between atoms: N2_7  and  C6_8 
REMARK    6  A    between atoms: N4_15  and  C10_16 
ROOT
HETATM    1  C1  UNL     1      26.978   5.973  48.584  1.00  0.00     0.262 C 
HETATM    2  N1  UNL     1      26.042   5.231  49.228  1.00  0.00    -0.436 NA
HETATM    3  C2  UNL     1      25.292   4.565  49.808  1.00  0.00     0.172 C 
ENDROOT
BRANCH   3   4
HETATM    4  C3  UNL     1      25.646   3.512  50.756  1.00  0.00     0.061 C 
HETATM    5  C4  UNL     1      26.349   2.412  50.622  1.00  0.00     0.008 C 
BRANCH   5   6
HETATM    6  C5  UNL     1      26.695   1.354  51.602  1.00  0.00     0.300 C 
BRANCH   6   7
HETATM    7  N2  UNL     1      25.828   1.341  52.725  1.00  0.00     0.117 N 
HETATM    8  H8  UNL     1      24.966   1.882  52.682  1.00  0.00     0.319 HD
BRANCH   7   9
HETATM    9  C6  UNL     1      26.537   1.521  53.978  1.00  0.00     0.389 C 
HETATM   10  N3  UNL     1      27.451   2.642  53.910  1.00  0.00    -0.367 N 
HETATM   11  C7  UNL     1      28.831   2.375  53.827  1.00  0.00     0.287 C 
HETATM   12  H10 UNL     1      27.102   3.472  53.436  1.00  0.00     0.157 HD
HETATM   13  O1  UNL     1      29.278   1.082  53.792  1.00  0.00    -0.365 OA
HETATM   14  C8  UNL     1      28.666   0.223  54.705  1.00  0.00     0.252 C 
HETATM   15  C9  UNL     1      27.223   0.282  54.398  1.00  0.00     0.202 C 
HETATM   16  O2  UNL     1      26.463  -0.702  54.464  1.00  0.00    -0.291 OA
ENDBRANCH   7   9
ENDBRANCH   6   7
ENDBRANCH   5   6
ENDBRANCH   3   4
BRANCH   3  17
HETATM   17  N4  UNL     1      23.891   4.788  49.597  1.00  0.00    -0.332 N 
HETATM   18  H15 UNL     1      23.487   5.762  49.483  1.00  0.00     0.168 HD
BRANCH  17  19
HETATM   19  C10 UNL     1      23.002   3.645  49.552  1.00  0.00     0.035 A 
HETATM   20  C11 UNL     1      22.992   2.988  48.347  1.00  0.00     0.031 A 
HETATM   21  C12 UNL     1      22.167   1.866  48.138  1.00  0.00     0.019 A 
HETATM   22  P1  UNL     1      21.211   1.427  49.512  1.00  0.00    -0.015 P 
HETATM   23  C13 UNL     1      21.428   2.436  50.901  1.00  0.00     0.026 A 
HETATM   24 BR1  UNL     1      20.486   2.151  52.509  1.00  0.00    -0.050 Br
HETATM   25  C14 UNL     1      22.347   3.480  50.744  1.00  0.00     0.050 A 
ENDBRANCH  17  19
ENDBRANCH   3  17
TORSDOF 6
ENDMDL
MODEL 7
REMARK VINA RESULT:      -6.6      3.977      7.635
REMARK  6 active torsions:
REMARK  status: ('A' for Active; 'I' for Inactive)
REMARK    1  A    between atoms: C2_3  and  C3_4 
REMARK    2  A    between atoms: C2_3  and  N4_15 
REMARK    3  A    between atoms: C4_5  and  C5_6 
REMARK    4  A    between atoms: C5_6  and  N2_7 
REMARK    5  A    between atoms: N2_7  and  C6_8 
REMARK    6  A    between atoms: N4_15  and  C10_16 
ROOT
HETATM    1  C1  UNL     1      27.087   8.465  49.232  1.00  0.00     0.262 C 
HETATM    2  N1  UNL     1      27.641   7.310  48.787  1.00  0.00    -0.436 NA
HETATM    3  C2  UNL     1      28.072   6.290  48.447  1.00  0.00     0.172 C 
ENDROOT
BRANCH   3   4
HETATM    4  C3  UNL     1      27.635   4.980  48.923  1.00  0.00     0.061 C 
HETATM    5  C4  UNL     1      26.504   4.571  49.450  1.00  0.00     0.008 C 
BRANCH   5   6
HETATM    6  C5  UNL     1      26.083   3.232  49.928  1.00  0.00     0.300 C 
BRANCH   6   7
HETATM    7  N2  UNL     1      26.261   3.067  51.327  1.00  0.00     0.117 N 
HETATM    8  H8  UNL     1      26.710   3.815  51.852  1.00  0.00     0.319 HD
BRANCH   7   9
HETATM    9  C6  UNL     1      26.774   1.756  51.673  1.00  0.00     0.389 C 
HETATM   10  N3  UNL     1      25.700   0.800  51.848  1.00  0.00    -0.367 N 
HETATM   11  C7  UNL     1      25.377   0.389  53.156  1.00  0.00     0.287 C 
HETATM   12  H10 UNL     1      24.943   0.852  51.170  1.00  0.00     0.157 HD
HETATM   13  O1  UNL     1      26.058   0.907  54.225  1.00  0.00    -0.365 OA
HETATM   14  C8  UNL     1      27.442   0.980  54.060  1.00  0.00     0.252 C 
HETATM   15  C9  UNL     1      27.654   1.811  52.857  1.00  0.00     0.202 C 
HETATM   16  O2  UNL     1      28.587   2.626  52.739  1.00  0.00    -0.291 OA
ENDBRANCH   7   9
ENDBRANCH   6   7
ENDBRANCH   5   6
ENDBRANCH   3   4
BRANCH   3  17
HETATM   17  N4  UNL     1      29.119   6.294  47.468  1.00  0.00    -0.332 N 
HETATM   18  H15 UNL     1      28.916   6.348  46.427  1.00  0.00     0.168 HD
BRANCH  17  19
HETATM   19  C10 UNL     1      30.494   6.210  47.916  1.00  0.00     0.035 A 
HETATM   20  C11 UNL     1      30.941   7.330  48.571  1.00  0.00     0.031 A 
HETATM   21  C12 UNL     1      32.262   7.411  49.054  1.00  0.00     0.019 A 
HETATM   22  P1  UNL     1      33.214   6.001  48.744  1.00  0.00    -0.015 P 
HETATM   23  C13 UNL     1      32.389   4.738  47.895  1.00  0.00     0.026 A 
HETATM   24 BR1  UNL     1      33.231   3.113  47.443  1.00  0.00    -0.050 Br
HETATM   25  C14 UNL     1      31.057   5.010  47.566  1.00  0.00     0.050 A 
ENDBRANCH  17  19
ENDBRANCH   3  17
TORSDOF 6
ENDMDL
MODEL 8
REMARK VINA RESULT:      -6.5      1.766      2.244
REMARK  6 active torsions:
REMARK  status: ('A' for Active; 'I' for Inactive)
REMARK    1  A    between atoms: C2_3  and  C3_4 
REMARK    2  A    between atoms: C2_3  and  N4_15 
REMARK    3  A    between atoms: C4_5  and  C5_6 
REMARK    4  A    between atoms: C5_6  and  N2_7 
REMARK    5  A    between atoms: N2_7  and  C6_8 
REMARK    6  A    between atoms: N4_15  and  C10_16 
ROOT
HETATM    1  C1  UNL     1      22.912   2.469  49.543  1.00  0.00     0.262 C 
HETATM    2  N1  UNL     1      23.909   3.027  50.273  1.00  0.00    -0.436 NA
HETATM    3  C2  UNL     1      24.785   3.530  50.841  1.00  0.00     0.172 C 
ENDROOT
BRANCH   3   4
HETATM    4  C3  UNL     1      25.836   4.344  50.234  1.00  0.00     0.061 C 
HETATM    5  C4  UNL     1      26.685   4.099  49.264  1.00  0.00     0.008 C 
BRANCH   5   6
HETATM    6  C5  UNL     1      27.747   4.943  48.665  1.00  0.00     0.300 C 
BRANCH   6   7
HETATM    7  N2  UNL     1      27.562   6.326  48.928  1.00  0.00     0.117 N 
HETATM    8  H8  UNL     1      26.612   6.680  49.029  1.00  0.00     0.319 HD
BRANCH   7   9
HETATM    9  C6  UNL     1      28.384   7.169  48.082  1.00  0.00     0.389 C 
HETATM   10  N3  UNL     1      29.573   7.615  48.780  1.00  0.00    -0.367 N 
HETATM   11  C7  UNL     1      29.636   8.956  49.202  1.00  0.00     0.287 C 
HETATM   12  H10 UNL     1      30.039   6.916  49.355  1.00  0.00     0.157 HD
HETATM   13  O1  UNL     1      28.583   9.799  48.970  1.00  0.00    -0.365 OA
HETATM   14  C8  UNL     1      28.033   9.712  47.690  1.00  0.00     0.252 C 
HETATM   15  C9  UNL     1      27.617   8.304  47.533  1.00  0.00     0.202 C 
HETATM   16  O2  UNL     1      26.586   7.954  46.928  1.00  0.00    -0.291 OA
ENDBRANCH   7   9
ENDBRANCH   6   7
ENDBRANCH   5   6
ENDBRANCH   3   4
BRANCH   3  17
HETATM   17  N4  UNL     1      24.854   3.357  52.262  1.00  0.00    -0.332 N 
HETATM   18  H15 UNL     1      24.661   4.154  52.936  1.00  0.00     0.168 HD
BRANCH  17  19
HETATM   19  C10 UNL     1      25.210   2.056  52.790  1.00  0.00     0.035 A 
HETATM   20  C11 UNL     1      24.143   1.214  52.977  1.00  0.00     0.031 A 
HETATM   21  C12 UNL     1      24.322  -0.082  53.500  1.00  0.00     0.019 A 
HETATM   22  P1  UNL     1      25.967  -0.475  53.863  1.00  0.00    -0.015 P 
HETATM   23  C13 UNL     1      27.107   0.783  53.526  1.00  0.00     0.026 A 
HETATM   24 BR1  UNL     1      28.954   0.581  53.847  1.00  0.00    -0.050 Br
HETATM   25  C14 UNL     1      26.561   1.960  53.002  1.00  0.00     0.050 A 
ENDBRANCH  17  19
ENDBRANCH   3  17
TORSDOF 6
ENDMDL
MODEL 9
REMARK VINA RESULT:      -6.5      5.955      7.521
REMARK  6 active torsions:
REMARK  status: ('A' for Active; 'I' for Inactive)
REMARK    1  A    between atoms: C2_3  and  C3_4 
REMARK    2  A    between atoms: C2_3  and  N4_15 
REMARK    3  A    between atoms: C4_5  and  C5_6 
REMARK    4  A    between atoms: C5_6  and  N2_7 
REMARK    5  A    between atoms: N2_7  and  C6_8 
REMARK    6  A    between atoms: N4_15  and  C10_16 
ROOT
HETATM    1  C1  UNL     1      20.030  -0.059  52.863  1.00  0.00     0.262 C 
HETATM    2  N1  UNL     1      21.284   0.256  52.455  1.00  0.00    -0.436 NA
HETATM    3  C2  UNL     1      22.379   0.492  52.157  1.00  0.00     0.172 C 
ENDROOT
BRANCH   3   4
HETATM    4  C3  UNL     1      23.570   0.042  52.874  1.00  0.00     0.061 C 
HETATM    5  C4  UNL     1      23.723  -0.568  54.025  1.00  0.00     0.008 C 
BRANCH   5   6
HETATM    6  C5  UNL     1      24.946  -1.015  54.734  1.00  0.00     0.300 C 
BRANCH   6   7
HETATM    7  N2  UNL     1      26.133  -0.742  54.006  1.00  0.00     0.117 N 
HETATM    8  H8  UNL     1      26.668  -1.525  53.634  1.00  0.00     0.319 HD
BRANCH   7   9
HETATM    9  C6  UNL     1      26.971   0.247  54.656  1.00  0.00     0.389 C 
HETATM   10  N3  UNL     1      26.492   1.591  54.403  1.00  0.00    -0.367 N 
HETATM   11  C7  UNL     1      27.216   2.401  53.507  1.00  0.00     0.287 C 
HETATM   12  H10 UNL     1      25.483   1.718  54.445  1.00  0.00     0.157 HD
HETATM   13  O1  UNL     1      28.330   1.908  52.884  1.00  0.00    -0.365 OA
HETATM   14  C8  UNL     1      29.198   1.193  53.711  1.00  0.00     0.252 C 
HETATM   15  C9  UNL     1      28.390   0.094  54.277  1.00  0.00     0.202 C 
HETATM   16  O2  UNL     1      28.831  -1.052  54.480  1.00  0.00    -0.291 OA
ENDBRANCH   7   9
ENDBRANCH   6   7
ENDBRANCH   5   6
ENDBRANCH   3   4
BRANCH   3  17
HETATM   17  N4  UNL     1      22.603   1.283  50.983  1.00  0.00    -0.332 N 
HETATM   18  H15 UNL     1      22.928   0.853  50.068  1.00  0.00     0.168 HD
BRANCH  17  19
HETATM   19  C10 UNL     1      22.390   2.713  51.054  1.00  0.00     0.035 A 
HETATM   20  C11 UNL     1      23.379   3.397  51.718  1.00  0.00     0.031 A 
HETATM   21  C12 UNL     1      23.309   4.794  51.886  1.00  0.00     0.019 A 
HETATM   22  P1  UNL     1      21.901   5.519  51.192  1.00  0.00    -0.015 P 
HETATM   23  C13 UNL     1      20.821   4.413  50.415  1.00  0.00     0.026 A 
HETATM   24 BR1  UNL     1      19.220   4.977  49.594  1.00  0.00    -0.050 Br
HETATM   25  C14 UNL     1      21.218   3.071  50.441  1.00  0.00     0.050 A 
ENDBRANCH  17  19
ENDBRANCH   3  17
TORSDOF 6
ENDMDL
