MODEL 1
REMARK VINA RESULT:      -8.5      0.000      0.000
REMARK  5 active torsions:
REMARK  status: ('A' for Active; 'I' for Inactive)
REMARK    1  A    between atoms: C2_2  and  C3_3 
REMARK    2  A    between atoms: C3_3  and  O2_5 
REMARK    3  A    between atoms: O2_5  and  C4_6 
REMARK    4  A    between atoms: C6_9  and  C7_10 
REMARK    5  A    between atoms: C8_11  and  C9_12 
ROOT
HETATM    1  C9  UNL     1      26.772   6.305  48.502  1.00  0.00     0.061 A 
HETATM    2  C10 UNL     1      26.367   5.130  48.969  1.00  0.00     0.061 A 
HETATM    3  C11 UNL     1      25.033   4.934  48.948  1.00  0.00     0.078 A 
HETATM    4  C12 UNL     1      24.116   5.906  48.458  1.00  0.00     0.055 A 
HETATM    5  S1  UNL     1      25.303   7.162  48.022  1.00  0.00    -0.077 SA
HETATM    6  C13 UNL     1      22.858   5.971  48.133  1.00  0.00     0.055 C 
HETATM    7 CL1  UNL     1      21.456   4.963  48.029  1.00  0.00    -0.085 Cl
HETATM    8  C14 UNL     1      22.289   7.379  48.119  1.00  0.00     0.228 C 
HETATM    9  O3  UNL     1      21.505   7.382  49.413  1.00  0.00    -0.346 OA
HETATM   10  C15 UNL     1      22.389   6.853  50.445  1.00  0.00     0.069 A 
HETATM   11  C16 UNL     1      21.681   5.750  50.873  1.00  0.00     0.039 A 
HETATM   12  C17 UNL     1      22.058   4.827  51.826  1.00  0.00     0.032 A 
HETATM   13  C18 UNL     1      23.293   5.227  52.276  1.00  0.00     0.029 A 
HETATM   14  C19 UNL     1      24.047   6.311  51.910  1.00  0.00     0.032 A 
HETATM   15  C20 UNL     1      23.609   7.190  50.956  1.00  0.00     0.039 A 
HETATM   16  N2  UNL     1      23.970   4.306  53.159  1.00  0.00    -0.372 N 
HETATM   17  C21 UNL     1      23.984   2.920  52.747  1.00  0.00     0.272 C 
HETATM   18  N3  UNL     1      24.627   2.576  51.556  1.00  0.00    -0.263 NA
HETATM   19  C22 UNL     1      24.592   3.119  50.423  1.00  0.00     0.229 C 
HETATM   20  N4  UNL     1      24.145   4.128  49.498  1.00  0.00    -0.241 NA
HETATM   21  H18 UNL     1      24.386   4.744  54.016  1.00  0.00     0.161 HD
ENDROOT
BRANCH   1  22
HETATM   22  C8  UNL     1      28.115   6.750  48.428  1.00  0.00    -0.057 C 
HETATM   23  C7  UNL     1      29.258   7.122  48.386  1.00  0.00    -0.065 C 
BRANCH  23  24
HETATM   24  C6  UNL     1      30.648   7.566  48.358  1.00  0.00     0.301 C 
HETATM   25  N1  UNL     1      31.295   7.416  49.646  1.00  0.00     0.102 N 
HETATM   26  C5  UNL     1      31.849   6.088  49.675  1.00  0.00     0.303 C 
HETATM   27  H9  UNL     1      30.663   7.601  50.458  1.00  0.00     0.317 HD
HETATM   28  C4  UNL     1      31.708   5.482  48.317  1.00  0.00     0.162 C 
HETATM   29  C23 UNL     1      31.410   6.653  47.436  1.00  0.00     0.083 C 
BRANCH  28  30
HETATM   30  O2  UNL     1      32.859   4.771  47.911  1.00  0.00    -0.314 OA
BRANCH  30  31
HETATM   31  C3  UNL     1      32.811   3.589  47.191  1.00  0.00     0.258 C 
HETATM   32  O1  UNL     1      31.744   3.203  46.657  1.00  0.00    -0.265 OA
BRANCH  31  33
HETATM   33  C2  UNL     1      34.107   2.864  47.128  1.00  0.00     0.106 C 
HETATM   34  C1  UNL     1      34.986   3.530  46.089  1.00  0.00     0.015 C 
ENDBRANCH  31  33
ENDBRANCH  30  31
ENDBRANCH  28  30
ENDBRANCH  23  24
ENDBRANCH   1  22
TORSDOF 5
ENDMDL
MODEL 2
REMARK VINA RESULT:      -8.1      2.860      3.399
REMARK  5 active torsions:
REMARK  status: ('A' for Active; 'I' for Inactive)
REMARK    1  A    between atoms: C2_2  and  C3_3 
REMARK    2  A    between atoms: C3_3  and  O2_5 
REMARK    3  A    between atoms: O2_5  and  C4_6 
REMARK    4  A    between atoms: C6_9  and  C7_10 
REMARK    5  A    between atoms: C8_11  and  C9_12 
ROOT
HETATM    1  C9  UNL     1      25.955   6.597  49.113  1.00  0.00     0.061 A 
HETATM    2  C10 UNL     1      26.372   5.398  49.503  1.00  0.00     0.061 A 
HETATM    3  C11 UNL     1      25.451   4.417  49.423  1.00  0.00     0.078 A 
HETATM    4  C12 UNL     1      24.126   4.637  48.951  1.00  0.00     0.055 A 
HETATM    5  S1  UNL     1      24.271   6.382  48.625  1.00  0.00    -0.077 SA
HETATM    6  C13 UNL     1      23.100   3.925  48.584  1.00  0.00     0.055 C 
HETATM    7 CL1  UNL     1      22.631   2.274  48.376  1.00  0.00    -0.085 Cl
HETATM    8  C14 UNL     1      21.778   4.671  48.623  1.00  0.00     0.228 C 
HETATM    9  O3  UNL     1      21.167   4.103  49.886  1.00  0.00    -0.346 OA
HETATM   10  C15 UNL     1      22.193   4.175  50.920  1.00  0.00     0.069 A 
HETATM   11  C16 UNL     1      22.328   2.846  51.264  1.00  0.00     0.039 A 
HETATM   12  C17 UNL     1      23.201   2.299  52.181  1.00  0.00     0.032 A 
HETATM   13  C18 UNL     1      23.920   3.351  52.696  1.00  0.00     0.029 A 
HETATM   14  C19 UNL     1      23.833   4.689  52.415  1.00  0.00     0.032 A 
HETATM   15  C20 UNL     1      22.939   5.164  51.493  1.00  0.00     0.039 A 
HETATM   16  N2  UNL     1      25.027   2.997  53.554  1.00  0.00    -0.372 N 
HETATM   17  C21 UNL     1      25.899   1.951  53.071  1.00  0.00     0.272 C 
HETATM   18  N3  UNL     1      26.612   2.157  51.888  1.00  0.00    -0.263 NA
HETATM   19  C22 UNL     1      26.242   2.632  50.784  1.00  0.00     0.229 C 
HETATM   20  N4  UNL     1      25.261   3.200  49.897  1.00  0.00    -0.241 NA
HETATM   21  H18 UNL     1      25.082   3.543  54.447  1.00  0.00     0.161 HD
ENDROOT
BRANCH   1  22
HETATM   22  C8  UNL     1      26.728   7.784  49.112  1.00  0.00    -0.057 C 
HETATM   23  C7  UNL     1      27.394   8.785  49.130  1.00  0.00    -0.065 C 
BRANCH  23  24
HETATM   24  C6  UNL     1      28.215   9.992  49.170  1.00  0.00     0.301 C 
HETATM   25  N1  UNL     1      29.335   9.860  50.080  1.00  0.00     0.102 N 
HETATM   26  C5  UNL     1      30.418   9.298  49.319  1.00  0.00     0.303 C 
HETATM   27  H9  UNL     1      29.118   9.300  50.936  1.00  0.00     0.317 HD
HETATM   28  C4  UNL     1      30.022   9.262  47.878  1.00  0.00     0.162 C 
HETATM   29  C23 UNL     1      28.840  10.176  47.814  1.00  0.00     0.083 C 
BRANCH  28  30
HETATM   30  O2  UNL     1      31.066   9.655  47.012  1.00  0.00    -0.314 OA
BRANCH  30  31
HETATM   31  C3  UNL     1      32.298   9.024  46.965  1.00  0.00     0.258 C 
HETATM   32  O1  UNL     1      32.379   7.773  46.915  1.00  0.00    -0.265 OA
BRANCH  31  33
HETATM   33  C2  UNL     1      33.456   9.954  46.979  1.00  0.00     0.106 C 
HETATM   34  C1  UNL     1      32.939  11.375  47.061  1.00  0.00     0.015 C 
ENDBRANCH  31  33
ENDBRANCH  30  31
ENDBRANCH  28  30
ENDBRANCH  23  24
ENDBRANCH   1  22
TORSDOF 5
ENDMDL
MODEL 3
REMARK VINA RESULT:      -8.0      4.792      6.556
REMARK  5 active torsions:
REMARK  status: ('A' for Active; 'I' for Inactive)
REMARK    1  A    between atoms: C2_2  and  C3_3 
REMARK    2  A    between atoms: C3_3  and  O2_5 
REMARK    3  A    between atoms: O2_5  and  C4_6 
REMARK    4  A    between atoms: C6_9  and  C7_10 
REMARK    5  A    between atoms: C8_11  and  C9_12 
ROOT
HETATM    1  C9  UNL     1      24.111   3.390  50.637  1.00  0.00     0.061 A 
HETATM    2  C10 UNL     1      23.167   3.553  49.718  1.00  0.00     0.061 A 
HETATM    3  C11 UNL     1      23.301   4.652  48.947  1.00  0.00     0.078 A 
HETATM    4  C12 UNL     1      24.375   5.573  49.095  1.00  0.00     0.055 A 
HETATM    5  S1  UNL     1      25.207   4.763  50.446  1.00  0.00    -0.077 SA
HETATM    6  C13 UNL     1      24.888   6.574  48.439  1.00  0.00     0.055 C 
HETATM    7 CL1  UNL     1      24.671   7.448  46.963  1.00  0.00    -0.085 Cl
HETATM    8  C14 UNL     1      25.740   7.503  49.285  1.00  0.00     0.228 C 
HETATM    9  O3  UNL     1      24.795   8.672  49.465  1.00  0.00    -0.346 OA
HETATM   10  C15 UNL     1      23.510   8.117  49.875  1.00  0.00     0.069 A 
HETATM   11  C16 UNL     1      22.686   8.553  48.859  1.00  0.00     0.039 A 
HETATM   12  C17 UNL     1      21.341   8.291  48.696  1.00  0.00     0.032 A 
HETATM   13  C18 UNL     1      20.975   7.502  49.759  1.00  0.00     0.029 A 
HETATM   14  C19 UNL     1      21.730   7.043  50.807  1.00  0.00     0.032 A 
HETATM   15  C20 UNL     1      23.062   7.345  50.908  1.00  0.00     0.039 A 
HETATM   16  N2  UNL     1      19.641   6.952  49.705  1.00  0.00    -0.372 N 
HETATM   17  C21 UNL     1      19.247   6.356  48.448  1.00  0.00     0.272 C 
HETATM   18  N3  UNL     1      19.948   5.244  47.978  1.00  0.00    -0.263 NA
HETATM   19  C22 UNL     1      21.185   5.022  47.923  1.00  0.00     0.229 C 
HETATM   20  N4  UNL     1      22.562   5.382  48.134  1.00  0.00    -0.241 NA
HETATM   21  H18 UNL     1      19.092   7.043  50.593  1.00  0.00     0.161 HD
ENDROOT
BRANCH   1  22
HETATM   22  C8  UNL     1      24.186   2.326  51.569  1.00  0.00    -0.057 C 
HETATM   23  C7  UNL     1      24.271   1.425  52.362  1.00  0.00    -0.065 C 
BRANCH  23  24
HETATM   24  C6  UNL     1      24.397   0.338  53.327  1.00  0.00     0.301 C 
HETATM   25  N1  UNL     1      24.846  -0.893  52.708  1.00  0.00     0.102 N 
HETATM   26  C5  UNL     1      26.284  -0.866  52.737  1.00  0.00     0.303 C 
HETATM   27  H9  UNL     1      24.471  -1.040  51.744  1.00  0.00     0.317 HD
HETATM   28  C4  UNL     1      26.724   0.304  53.556  1.00  0.00     0.162 C 
HETATM   29  C23 UNL     1      25.488   0.701  54.298  1.00  0.00     0.083 C 
BRANCH  28  30
HETATM   30  O2  UNL     1      27.804   0.000  54.413  1.00  0.00    -0.314 OA
BRANCH  30  31
HETATM   31  C3  UNL     1      29.041   0.617  54.331  1.00  0.00     0.258 C 
HETATM   32  O1  UNL     1      29.275   1.677  54.957  1.00  0.00    -0.265 OA
BRANCH  31  33
HETATM   33  C2  UNL     1      30.013  -0.090  53.456  1.00  0.00     0.106 C 
HETATM   34  C1  UNL     1      29.803  -1.583  53.601  1.00  0.00     0.015 C 
ENDBRANCH  31  33
ENDBRANCH  30  31
ENDBRANCH  28  30
ENDBRANCH  23  24
ENDBRANCH   1  22
TORSDOF 5
ENDMDL
MODEL 4
REMARK VINA RESULT:      -8.0      3.566      9.034
REMARK  5 active torsions:
REMARK  status: ('A' for Active; 'I' for Inactive)
REMARK    1  A    between atoms: C2_2  and  C3_3 
REMARK    2  A    between atoms: C3_3  and  O2_5 
REMARK    3  A    between atoms: O2_5  and  C4_6 
REMARK    4  A    between atoms: C6_9  and  C7_10 
REMARK    5  A    between atoms: C8_11  and  C9_12 
ROOT
HETATM    1  C9  UNL     1      28.153   5.949  48.221  1.00  0.00     0.061 A 
HETATM    2  C10 UNL     1      27.845   7.113  47.659  1.00  0.00     0.061 A 
HETATM    3  C11 UNL     1      28.869   7.742  47.047  1.00  0.00     0.078 A 
HETATM    4  C12 UNL     1      30.187   7.205  46.995  1.00  0.00     0.055 A 
HETATM    5  S1  UNL     1      29.875   5.706  47.906  1.00  0.00    -0.077 SA
HETATM    6  C13 UNL     1      31.301   7.437  46.364  1.00  0.00     0.055 C 
HETATM    7 CL1  UNL     1      31.953   8.493  45.159  1.00  0.00    -0.085 Cl
HETATM    8  C14 UNL     1      32.532   6.858  47.038  1.00  0.00     0.228 C 
HETATM    9  O3  UNL     1      33.131   8.103  47.656  1.00  0.00    -0.346 OA
HETATM   10  C15 UNL     1      32.050   8.793  48.350  1.00  0.00     0.069 A 
HETATM   11  C16 UNL     1      32.038  10.009  47.699  1.00  0.00     0.039 A 
HETATM   12  C17 UNL     1      31.180  11.068  47.911  1.00  0.00     0.032 A 
HETATM   13  C18 UNL     1      30.327  10.673  48.912  1.00  0.00     0.029 A 
HETATM   14  C19 UNL     1      30.286   9.494  49.610  1.00  0.00     0.032 A 
HETATM   15  C20 UNL     1      31.173   8.484  49.349  1.00  0.00     0.039 A 
HETATM   16  N2  UNL     1      29.220  11.559  49.183  1.00  0.00    -0.372 N 
HETATM   17  C21 UNL     1      28.491  12.040  48.031  1.00  0.00     0.272 C 
HETATM   18  N3  UNL     1      27.824  11.120  47.220  1.00  0.00    -0.263 NA
HETATM   19  C22 UNL     1      28.201  10.009  46.767  1.00  0.00     0.229 C 
HETATM   20  N4  UNL     1      29.162   8.950  46.604  1.00  0.00    -0.241 NA
HETATM   21  H18 UNL     1      29.059  11.763  50.199  1.00  0.00     0.161 HD
ENDROOT
BRANCH   1  22
HETATM   22  C8  UNL     1      27.259   5.108  48.927  1.00  0.00    -0.057 C 
HETATM   23  C7  UNL     1      26.510   4.397  49.545  1.00  0.00    -0.065 C 
BRANCH  23  24
HETATM   24  C6  UNL     1      25.613   3.542  50.315  1.00  0.00     0.301 C 
HETATM   25  N1  UNL     1      24.980   4.257  51.405  1.00  0.00     0.102 N 
HETATM   26  C5  UNL     1      23.773   4.832  50.872  1.00  0.00     0.303 C 
HETATM   27  H9  UNL     1      25.596   4.971  51.854  1.00  0.00     0.317 HD
HETATM   28  C4  UNL     1      23.563   4.306  49.490  1.00  0.00     0.162 C 
HETATM   29  C23 UNL     1      24.479   3.127  49.416  1.00  0.00     0.083 C 
BRANCH  28  30
HETATM   30  O2  UNL     1      22.216   3.970  49.229  1.00  0.00    -0.314 OA
BRANCH  30  31
HETATM   31  C3  UNL     1      21.775   3.470  48.015  1.00  0.00     0.258 C 
HETATM   32  O1  UNL     1      22.212   3.930  46.933  1.00  0.00    -0.265 OA
BRANCH  31  33
HETATM   33  C2  UNL     1      20.773   2.380  48.136  1.00  0.00     0.106 C 
HETATM   34  C1  UNL     1      21.453   1.154  48.709  1.00  0.00     0.015 C 
ENDBRANCH  31  33
ENDBRANCH  30  31
ENDBRANCH  28  30
ENDBRANCH  23  24
ENDBRANCH   1  22
TORSDOF 5
ENDMDL
MODEL 5
REMARK VINA RESULT:      -7.5      2.535      4.037
REMARK  5 active torsions:
REMARK  status: ('A' for Active; 'I' for Inactive)
REMARK    1  A    between atoms: C2_2  and  C3_3 
REMARK    2  A    between atoms: C3_3  and  O2_5 
REMARK    3  A    between atoms: O2_5  and  C4_6 
REMARK    4  A    between atoms: C6_9  and  C7_10 
REMARK    5  A    between atoms: C8_11  and  C9_12 
ROOT
HETATM    1  C9  UNL     1      26.764   5.956  48.527  1.00  0.00     0.061 A 
HETATM    2  C10 UNL     1      26.355   4.802  49.042  1.00  0.00     0.061 A 
HETATM    3  C11 UNL     1      25.018   4.635  49.085  1.00  0.00     0.078 A 
HETATM    4  C12 UNL     1      24.101   5.615  48.611  1.00  0.00     0.055 A 
HETATM    5  S1  UNL     1      25.293   6.832  48.090  1.00  0.00    -0.077 SA
HETATM    6  C13 UNL     1      22.830   5.699  48.340  1.00  0.00     0.055 C 
HETATM    7 CL1  UNL     1      21.405   4.720  48.325  1.00  0.00    -0.085 Cl
HETATM    8  C14 UNL     1      22.291   7.119  48.314  1.00  0.00     0.228 C 
HETATM    9  O3  UNL     1      21.566   7.172  49.641  1.00  0.00    -0.346 OA
HETATM   10  C15 UNL     1      22.484   6.650  50.647  1.00  0.00     0.069 A 
HETATM   11  C16 UNL     1      21.773   5.574  51.135  1.00  0.00     0.039 A 
HETATM   12  C17 UNL     1      22.173   4.667  52.095  1.00  0.00     0.032 A 
HETATM   13  C18 UNL     1      23.434   5.051  52.478  1.00  0.00     0.029 A 
HETATM   14  C19 UNL     1      24.194   6.108  52.051  1.00  0.00     0.032 A 
HETATM   15  C20 UNL     1      23.733   6.973  51.095  1.00  0.00     0.039 A 
HETATM   16  N2  UNL     1      24.131   4.138  53.354  1.00  0.00    -0.372 N 
HETATM   17  C21 UNL     1      24.098   2.742  52.979  1.00  0.00     0.272 C 
HETATM   18  N3  UNL     1      24.679   2.353  51.770  1.00  0.00    -0.263 NA
HETATM   19  C22 UNL     1      24.605   2.869  50.626  1.00  0.00     0.229 C 
HETATM   20  N4  UNL     1      24.139   3.863  49.695  1.00  0.00    -0.241 NA
HETATM   21  H18 UNL     1      24.594   4.588  54.180  1.00  0.00     0.161 HD
ENDROOT
BRANCH   1  22
HETATM   22  C8  UNL     1      28.111   6.369  48.382  1.00  0.00    -0.057 C 
HETATM   23  C7  UNL     1      29.255   6.713  48.239  1.00  0.00    -0.065 C 
BRANCH  23  24
HETATM   24  C6  UNL     1      30.640   7.127  48.041  1.00  0.00     0.301 C 
HETATM   25  N1  UNL     1      30.864   7.665  46.714  1.00  0.00     0.102 N 
HETATM   26  C5  UNL     1      30.584   9.074  46.790  1.00  0.00     0.303 C 
HETATM   27  H9  UNL     1      30.308   7.190  45.968  1.00  0.00     0.317 HD
HETATM   28  C4  UNL     1      30.372   9.442  48.223  1.00  0.00     0.162 C 
HETATM   29  C23 UNL     1      30.922   8.273  48.974  1.00  0.00     0.083 C 
BRANCH  28  30
HETATM   30  O2  UNL     1      30.993  10.661  48.575  1.00  0.00    -0.314 OA
BRANCH  30  31
HETATM   31  C3  UNL     1      30.291  11.805  48.915  1.00  0.00     0.258 C 
HETATM   32  O1  UNL     1      30.891  12.837  49.300  1.00  0.00    -0.265 OA
BRANCH  31  33
HETATM   33  C2  UNL     1      28.817  11.676  48.779  1.00  0.00     0.106 C 
HETATM   34  C1  UNL     1      28.205  13.062  48.775  1.00  0.00     0.015 C 
ENDBRANCH  31  33
ENDBRANCH  30  31
ENDBRANCH  28  30
ENDBRANCH  23  24
ENDBRANCH   1  22
TORSDOF 5
ENDMDL
MODEL 6
REMARK VINA RESULT:      -7.5      2.464      3.677
REMARK  5 active torsions:
REMARK  status: ('A' for Active; 'I' for Inactive)
REMARK    1  A    between atoms: C2_2  and  C3_3 
REMARK    2  A    between atoms: C3_3  and  O2_5 
REMARK    3  A    between atoms: O2_5  and  C4_6 
REMARK    4  A    between atoms: C6_9  and  C7_10 
REMARK    5  A    between atoms: C8_11  and  C9_12 
ROOT
HETATM    1  C9  UNL     1      26.112   5.523  49.473  1.00  0.00     0.061 A 
HETATM    2  C10 UNL     1      25.086   6.223  49.942  1.00  0.00     0.061 A 
HETATM    3  C11 UNL     1      24.147   5.501  50.586  1.00  0.00     0.078 A 
HETATM    4  C12 UNL     1      24.240   4.091  50.761  1.00  0.00     0.055 A 
HETATM    5  S1  UNL     1      25.791   3.844  49.919  1.00  0.00    -0.077 SA
HETATM    6  C13 UNL     1      23.648   3.161  51.453  1.00  0.00     0.055 C 
HETATM    7 CL1  UNL     1      22.401   2.973  52.636  1.00  0.00    -0.085 Cl
HETATM    8  C14 UNL     1      23.833   1.759  50.900  1.00  0.00     0.228 C 
HETATM    9  O3  UNL     1      22.485   1.527  50.254  1.00  0.00    -0.346 OA
HETATM   10  C15 UNL     1      22.194   2.707  49.447  1.00  0.00     0.069 A 
HETATM   11  C16 UNL     1      21.022   3.150  50.023  1.00  0.00     0.039 A 
HETATM   12  C17 UNL     1      20.294   4.274  49.691  1.00  0.00     0.032 A 
HETATM   13  C18 UNL     1      20.971   4.874  48.658  1.00  0.00     0.029 A 
HETATM   14  C19 UNL     1      22.126   4.489  48.029  1.00  0.00     0.032 A 
HETATM   15  C20 UNL     1      22.797   3.357  48.409  1.00  0.00     0.039 A 
HETATM   16  N2  UNL     1      20.488   6.176  48.260  1.00  0.00    -0.372 N 
HETATM   17  C21 UNL     1      20.221   7.112  49.328  1.00  0.00     0.272 C 
HETATM   18  N3  UNL     1      21.277   7.525  50.144  1.00  0.00    -0.263 NA
HETATM   19  C22 UNL     1      22.197   6.862  50.686  1.00  0.00     0.229 C 
HETATM   20  N4  UNL     1      22.894   5.636  50.977  1.00  0.00    -0.241 NA
HETATM   21  H18 UNL     1      20.379   6.306  47.225  1.00  0.00     0.161 HD
ENDROOT
BRANCH   1  22
HETATM   22  C8  UNL     1      27.216   6.049  48.757  1.00  0.00    -0.057 C 
HETATM   23  C7  UNL     1      28.155   6.476  48.139  1.00  0.00    -0.065 C 
BRANCH  23  24
HETATM   24  C6  UNL     1      29.296   6.974  47.377  1.00  0.00     0.301 C 
HETATM   25  N1  UNL     1      29.858   8.177  47.959  1.00  0.00     0.102 N 
HETATM   26  C5  UNL     1      30.843   7.748  48.916  1.00  0.00     0.303 C 
HETATM   27  H9  UNL     1      29.144   8.813  48.381  1.00  0.00     0.317 HD
HETATM   28  C4  UNL     1      31.026   6.271  48.784  1.00  0.00     0.162 C 
HETATM   29  C23 UNL     1      30.397   5.953  47.465  1.00  0.00     0.083 C 
BRANCH  28  30
HETATM   30  O2  UNL     1      32.380   5.877  48.855  1.00  0.00    -0.314 OA
BRANCH  30  31
HETATM   31  C3  UNL     1      32.913   4.839  48.109  1.00  0.00     0.258 C 
HETATM   32  O1  UNL     1      32.450   3.677  48.201  1.00  0.00    -0.265 OA
BRANCH  31  33
HETATM   33  C2  UNL     1      34.042   5.240  47.231  1.00  0.00     0.106 C 
HETATM   34  C1  UNL     1      34.493   4.033  46.434  1.00  0.00     0.015 C 
ENDBRANCH  31  33
ENDBRANCH  30  31
ENDBRANCH  28  30
ENDBRANCH  23  24
ENDBRANCH   1  22
TORSDOF 5
ENDMDL
MODEL 7
REMARK VINA RESULT:      -7.4      3.710      9.072
REMARK  5 active torsions:
REMARK  status: ('A' for Active; 'I' for Inactive)
REMARK    1  A    between atoms: C2_2  and  C3_3 
REMARK    2  A    between atoms: C3_3  and  O2_5 
REMARK    3  A    between atoms: O2_5  and  C4_6 
REMARK    4  A    between atoms: C6_9  and  C7_10 
REMARK    5  A    between atoms: C8_11  and  C9_12 
ROOT
HETATM    1  C9  UNL     1      27.546   6.703  47.966  1.00  0.00     0.061 A 
HETATM    2  C10 UNL     1      27.736   7.717  47.130  1.00  0.00     0.061 A 
HETATM    3  C11 UNL     1      29.010   7.893  46.723  1.00  0.00     0.078 A 
HETATM    4  C12 UNL     1      30.080   7.055  47.147  1.00  0.00     0.055 A 
HETATM    5  S1  UNL     1      29.137   5.971  48.201  1.00  0.00    -0.077 SA
HETATM    6  C13 UNL     1      31.321   6.833  46.823  1.00  0.00     0.055 C 
HETATM    7 CL1  UNL     1      32.507   7.342  45.673  1.00  0.00    -0.085 Cl
HETATM    8  C14 UNL     1      32.141   6.167  47.914  1.00  0.00     0.228 C 
HETATM    9  O3  UNL     1      32.942   7.344  48.426  1.00  0.00    -0.346 OA
HETATM   10  C15 UNL     1      31.999   8.435  48.644  1.00  0.00     0.069 A 
HETATM   11  C16 UNL     1      32.499   9.402  47.798  1.00  0.00     0.039 A 
HETATM   12  C17 UNL     1      31.980  10.657  47.554  1.00  0.00     0.032 A 
HETATM   13  C18 UNL     1      30.852  10.759  48.331  1.00  0.00     0.029 A 
HETATM   14  C19 UNL     1      30.304   9.852  49.199  1.00  0.00     0.032 A 
HETATM   15  C20 UNL     1      30.875   8.623  49.396  1.00  0.00     0.039 A 
HETATM   16  N2  UNL     1      30.036  11.929  48.105  1.00  0.00    -0.372 N 
HETATM   17  C21 UNL     1      29.755  12.255  46.725  1.00  0.00     0.272 C 
HETATM   18  N3  UNL     1      29.031  11.347  45.950  1.00  0.00    -0.263 NA
HETATM   19  C22 UNL     1      29.140  10.099  45.841  1.00  0.00     0.229 C 
HETATM   20  N4  UNL     1      29.745   8.832  46.159  1.00  0.00    -0.241 NA
HETATM   21  H18 UNL     1      29.729  12.425  48.976  1.00  0.00     0.161 HD
ENDROOT
BRANCH   1  22
HETATM   22  C8  UNL     1      26.308   6.321  48.539  1.00  0.00    -0.057 C 
HETATM   23  C7  UNL     1      25.246   6.006  49.008  1.00  0.00    -0.065 C 
BRANCH  23  24
HETATM   24  C6  UNL     1      23.947   5.631  49.556  1.00  0.00     0.301 C 
HETATM   25  N1  UNL     1      23.443   4.402  48.975  1.00  0.00     0.102 N 
HETATM   26  C5  UNL     1      23.956   3.327  49.782  1.00  0.00     0.303 C 
HETATM   27  H9  UNL     1      23.680   4.288  47.964  1.00  0.00     0.317 HD
HETATM   28  C4  UNL     1      24.624   3.908  50.985  1.00  0.00     0.162 C 
HETATM   29  C23 UNL     1      24.130   5.319  51.017  1.00  0.00     0.083 C 
BRANCH  28  30
HETATM   30  O2  UNL     1      24.333   3.199  52.171  1.00  0.00    -0.314 OA
BRANCH  30  31
HETATM   31  C3  UNL     1      24.681   1.874  52.374  1.00  0.00     0.258 C 
HETATM   32  O1  UNL     1      25.868   1.493  52.241  1.00  0.00    -0.265 OA
BRANCH  31  33
HETATM   33  C2  UNL     1      23.540   0.998  52.748  1.00  0.00     0.106 C 
HETATM   34  C1  UNL     1      24.086  -0.286  53.338  1.00  0.00     0.015 C 
ENDBRANCH  31  33
ENDBRANCH  30  31
ENDBRANCH  28  30
ENDBRANCH  23  24
ENDBRANCH   1  22
TORSDOF 5
ENDMDL
MODEL 8
REMARK VINA RESULT:      -7.4      3.923      5.162
REMARK  5 active torsions:
REMARK  status: ('A' for Active; 'I' for Inactive)
REMARK    1  A    between atoms: C2_2  and  C3_3 
REMARK    2  A    between atoms: C3_3  and  O2_5 
REMARK    3  A    between atoms: O2_5  and  C4_6 
REMARK    4  A    between atoms: C6_9  and  C7_10 
REMARK    5  A    between atoms: C8_11  and  C9_12 
ROOT
HETATM    1  C9  UNL     1      26.203   5.685  48.866  1.00  0.00     0.061 A 
HETATM    2  C10 UNL     1      26.488   4.494  49.378  1.00  0.00     0.061 A 
HETATM    3  C11 UNL     1      25.432   3.668  49.529  1.00  0.00     0.078 A 
HETATM    4  C12 UNL     1      24.106   4.033  49.165  1.00  0.00     0.055 A 
HETATM    5  S1  UNL     1      24.459   5.680  48.583  1.00  0.00    -0.077 SA
HETATM    6  C13 UNL     1      22.952   3.453  49.005  1.00  0.00     0.055 C 
HETATM    7 CL1  UNL     1      22.231   1.883  49.080  1.00  0.00    -0.085 Cl
HETATM    8  C14 UNL     1      21.765   4.397  49.069  1.00  0.00     0.228 C 
HETATM    9  O3  UNL     1      21.234   4.094  50.454  1.00  0.00    -0.346 OA
HETATM   10  C15 UNL     1      22.376   4.131  51.361  1.00  0.00     0.069 A 
HETATM   11  C16 UNL     1      22.360   2.851  51.874  1.00  0.00     0.039 A 
HETATM   12  C17 UNL     1      23.249   2.291  52.768  1.00  0.00     0.032 A 
HETATM   13  C18 UNL     1      24.167   3.272  53.055  1.00  0.00     0.029 A 
HETATM   14  C19 UNL     1      24.240   4.562  52.598  1.00  0.00     0.032 A 
HETATM   15  C20 UNL     1      23.319   5.054  51.712  1.00  0.00     0.039 A 
HETATM   16  N2  UNL     1      25.306   2.858  53.840  1.00  0.00    -0.372 N 
HETATM   17  C21 UNL     1      25.956   1.635  53.426  1.00  0.00     0.272 C 
HETATM   18  N3  UNL     1      26.545   1.578  52.161  1.00  0.00    -0.263 NA
HETATM   19  C22 UNL     1      26.117   1.964  51.043  1.00  0.00     0.229 C 
HETATM   20  N4  UNL     1      25.129   2.565  50.187  1.00  0.00    -0.241 NA
HETATM   21  H18 UNL     1      25.546   3.495  54.637  1.00  0.00     0.161 HD
ENDROOT
BRANCH   1  22
HETATM   22  C8  UNL     1      27.132   6.726  48.621  1.00  0.00    -0.057 C 
HETATM   23  C7  UNL     1      27.935   7.595  48.403  1.00  0.00    -0.065 C 
BRANCH  23  24
HETATM   24  C6  UNL     1      28.922   8.634  48.127  1.00  0.00     0.301 C 
HETATM   25  N1  UNL     1      28.609   9.377  46.922  1.00  0.00     0.102 N 
HETATM   26  C5  UNL     1      27.758  10.466  47.322  1.00  0.00     0.303 C 
HETATM   27  H9  UNL     1      28.181   8.795  46.168  1.00  0.00     0.317 HD
HETATM   28  C4  UNL     1      27.702  10.506  48.815  1.00  0.00     0.162 C 
HETATM   29  C23 UNL     1      28.853   9.649  49.235  1.00  0.00     0.083 C 
BRANCH  28  30
HETATM   30  O2  UNL     1      27.779  11.818  49.333  1.00  0.00    -0.314 OA
BRANCH  30  31
HETATM   31  C3  UNL     1      27.824  12.951  48.538  1.00  0.00     0.258 C 
HETATM   32  O1  UNL     1      26.772  13.549  48.210  1.00  0.00    -0.265 OA
BRANCH  31  33
HETATM   33  C2  UNL     1      29.196  13.357  48.137  1.00  0.00     0.106 C 
HETATM   34  C1  UNL     1      29.109  14.186  46.872  1.00  0.00     0.015 C 
ENDBRANCH  31  33
ENDBRANCH  30  31
ENDBRANCH  28  30
ENDBRANCH  23  24
ENDBRANCH   1  22
TORSDOF 5
ENDMDL
MODEL 9
REMARK VINA RESULT:      -7.1      7.233     10.103
REMARK  5 active torsions:
REMARK  status: ('A' for Active; 'I' for Inactive)
REMARK    1  A    between atoms: C2_2  and  C3_3 
REMARK    2  A    between atoms: C3_3  and  O2_5 
REMARK    3  A    between atoms: O2_5  and  C4_6 
REMARK    4  A    between atoms: C6_9  and  C7_10 
REMARK    5  A    between atoms: C8_11  and  C9_12 
ROOT
HETATM    1  C9  UNL     1      33.261   5.928  43.745  1.00  0.00     0.061 A 
HETATM    2  C10 UNL     1      33.717   7.035  44.321  1.00  0.00     0.061 A 
HETATM    3  C11 UNL     1      33.867   6.964  45.659  1.00  0.00     0.078 A 
HETATM    4  C12 UNL     1      33.568   5.792  46.410  1.00  0.00     0.055 A 
HETATM    5  S1  UNL     1      33.034   4.765  45.056  1.00  0.00    -0.077 SA
HETATM    6  C13 UNL     1      33.764   5.339  47.614  1.00  0.00     0.055 C 
HETATM    7 CL1  UNL     1      34.527   5.792  49.099  1.00  0.00    -0.085 Cl
HETATM    8  C14 UNL     1      32.819   4.223  48.022  1.00  0.00     0.228 C 
HETATM    9  O3  UNL     1      31.868   4.973  48.930  1.00  0.00    -0.346 OA
HETATM   10  C15 UNL     1      31.468   6.181  48.218  1.00  0.00     0.069 A 
HETATM   11  C16 UNL     1      31.904   7.164  49.082  1.00  0.00     0.039 A 
HETATM   12  C17 UNL     1      31.831   8.531  48.907  1.00  0.00     0.032 A 
HETATM   13  C18 UNL     1      31.227   8.726  47.688  1.00  0.00     0.029 A 
HETATM   14  C19 UNL     1      30.759   7.806  46.788  1.00  0.00     0.032 A 
HETATM   15  C20 UNL     1      30.862   6.462  47.028  1.00  0.00     0.039 A 
HETATM   16  N2  UNL     1      31.204  10.088  47.209  1.00  0.00    -0.372 N 
HETATM   17  C21 UNL     1      32.447  10.820  47.303  1.00  0.00     0.272 C 
HETATM   18  N3  UNL     1      33.554  10.367  46.583  1.00  0.00    -0.263 NA
HETATM   19  C22 UNL     1      34.017   9.206  46.443  1.00  0.00     0.229 C 
HETATM   20  N4  UNL     1      34.012   7.786  46.681  1.00  0.00    -0.241 NA
HETATM   21  H18 UNL     1      30.277  10.407  46.838  1.00  0.00     0.161 HD
ENDROOT
BRANCH   1  22
HETATM   22  C8  UNL     1      33.012   5.756  42.361  1.00  0.00    -0.057 C 
HETATM   23  C7  UNL     1      32.782   5.599  41.191  1.00  0.00    -0.065 C 
BRANCH  23  24
HETATM   24  C6  UNL     1      32.482   5.399  39.777  1.00  0.00     0.301 C 
HETATM   25  N1  UNL     1      33.515   4.639  39.102  1.00  0.00     0.102 N 
HETATM   26  C5  UNL     1      33.163   3.251  39.246  1.00  0.00     0.303 C 
HETATM   27  H9  UNL     1      34.480   4.842  39.448  1.00  0.00     0.317 HD
HETATM   28  C4  UNL     1      31.799   3.165  39.849  1.00  0.00     0.162 C 
HETATM   29  C23 UNL     1      31.248   4.544  39.679  1.00  0.00     0.083 C 
BRANCH  28  30
HETATM   30  O2  UNL     1      30.993   2.175  39.244  1.00  0.00    -0.314 OA
BRANCH  30  31
HETATM   31  C3  UNL     1      29.712   2.415  38.775  1.00  0.00     0.258 C 
HETATM   32  O1  UNL     1      28.776   2.682  39.567  1.00  0.00    -0.265 OA
BRANCH  31  33
HETATM   33  C2  UNL     1      29.579   2.324  37.298  1.00  0.00     0.106 C 
HETATM   34  C1  UNL     1      28.140   1.995  36.958  1.00  0.00     0.015 C 
ENDBRANCH  31  33
ENDBRANCH  30  31
ENDBRANCH  28  30
ENDBRANCH  23  24
ENDBRANCH   1  22
TORSDOF 5
ENDMDL
