MODEL 1
REMARK VINA RESULT:      -7.6      0.000      0.000
REMARK  8 active torsions:
REMARK  status: ('A' for Active; 'I' for Inactive)
REMARK    1  A    between atoms: C2_2  and  O1_3 
REMARK    2  A    between atoms: O1_3  and  C3_4 
REMARK       I    between atoms: C3_4  and  N1_6 
REMARK    3  A    between atoms: N1_6  and  C4_7 
REMARK    4  A    between atoms: C7_10  and  C8_11 
REMARK    5  A    between atoms: C8_11  and  N2_12 
REMARK    6  A    between atoms: N2_12  and  C9_13 
REMARK    7  A    between atoms: C13_19  and  O3_20 
REMARK    8  A    between atoms: C15_22  and  O4_23 
ROOT
HETATM    1  N2  UNL     1      24.250   3.525  52.706  1.00  0.00    -0.370 N 
HETATM    2  H12 UNL     1      24.937   4.123  53.209  1.00  0.00     0.161 HD
ENDROOT
BRANCH   1   3
HETATM    3  C8  UNL     1      23.396   4.173  51.737  1.00  0.00     0.155 C 
BRANCH   3   4
HETATM    4  C7  UNL     1      24.107   4.711  50.582  1.00  0.00    -0.058 C 
HETATM    5  C6  UNL     1      25.054   3.869  49.797  1.00  0.00     0.065 C 
HETATM    6  C5  UNL     1      26.393   4.457  49.642  1.00  0.00     0.008 C 
HETATM    7  C4  UNL     1      26.559   5.665  49.134  1.00  0.00     0.038 C 
HETATM    8  P1  UNL     1      24.950   6.432  48.689  1.00  0.00    -0.053 P 
HETATM    9  C19 UNL     1      23.931   5.991  50.184  1.00  0.00     0.015 C 
HETATM   10  H23 UNL     1      25.049   7.850  48.536  1.00  0.00     0.068 HD
BRANCH   7  11
HETATM   11  N1  UNL     1      27.761   6.383  48.911  1.00  0.00    -0.302 N 
HETATM   12  C3  UNL     1      28.978   5.930  48.406  1.00  0.00     0.365 C 
HETATM   13  O2  UNL     1      29.130   4.750  48.078  1.00  0.00    -0.238 OA
HETATM   14  H6  UNL     1      27.774   7.398  49.147  1.00  0.00     0.171 HD
BRANCH  12  15
HETATM   15  O1  UNL     1      30.099   6.726  48.228  1.00  0.00    -0.304 OA
BRANCH  15  16
HETATM   16  C2  UNL     1      31.290   6.554  48.941  1.00  0.00     0.176 C 
HETATM   17  C1  UNL     1      31.766   7.850  49.529  1.00  0.00     0.034 C 
ENDBRANCH  15  16
ENDBRANCH  12  15
ENDBRANCH   7  11
ENDBRANCH   3   4
ENDBRANCH   1   3
BRANCH   1  18
HETATM   18  C9  UNL     1      24.097   2.125  52.906  1.00  0.00     0.137 A 
HETATM   19  N3  UNL     1      22.864   1.587  52.957  1.00  0.00    -0.224 NA
HETATM   20  C10 UNL     1      22.765   0.262  53.147  1.00  0.00     0.235 A 
HETATM   21  N4  UNL     1      23.820  -0.587  53.293  1.00  0.00    -0.241 NA
HETATM   22  C11 UNL     1      25.081  -0.093  53.248  1.00  0.00     0.075 A 
HETATM   23  C12 UNL     1      26.162  -0.925  53.391  1.00  0.00     0.072 A 
HETATM   24  C18 UNL     1      25.188   1.264  53.054  1.00  0.00     0.041 A 
HETATM   25  C13 UNL     1      27.437  -0.402  53.344  1.00  0.00     0.103 A 
HETATM   26  C15 UNL     1      27.587   0.959  53.149  1.00  0.00     0.102 A 
HETATM   27  C17 UNL     1      26.470   1.756  53.010  1.00  0.00     0.057 A 
BRANCH  25  28
HETATM   28  O3  UNL     1      28.509  -1.252  53.490  1.00  0.00    -0.353 OA
HETATM   29  C14 UNL     1      28.399  -2.576  53.009  1.00  0.00     0.210 C 
ENDBRANCH  25  28
BRANCH  26  30
HETATM   30  O4  UNL     1      28.904   1.400  53.114  1.00  0.00    -0.353 OA
HETATM   31  C16 UNL     1      29.437   2.204  54.158  1.00  0.00     0.210 C 
ENDBRANCH  26  30
ENDBRANCH   1  18
TORSDOF 8
ENDMDL
MODEL 2
REMARK VINA RESULT:      -7.6      2.710      3.876
REMARK  8 active torsions:
REMARK  status: ('A' for Active; 'I' for Inactive)
REMARK    1  A    between atoms: C2_2  and  O1_3 
REMARK    2  A    between atoms: O1_3  and  C3_4 
REMARK       I    between atoms: C3_4  and  N1_6 
REMARK    3  A    between atoms: N1_6  and  C4_7 
REMARK    4  A    between atoms: C7_10  and  C8_11 
REMARK    5  A    between atoms: C8_11  and  N2_12 
REMARK    6  A    between atoms: N2_12  and  C9_13 
REMARK    7  A    between atoms: C13_19  and  O3_20 
REMARK    8  A    between atoms: C15_22  and  O4_23 
ROOT
HETATM    1  N2  UNL     1      22.118  -0.216  52.702  1.00  0.00    -0.370 N 
HETATM    2  H12 UNL     1      21.975  -0.743  51.816  1.00  0.00     0.161 HD
ENDROOT
BRANCH   1   3
HETATM    3  C8  UNL     1      21.277   0.938  52.927  1.00  0.00     0.155 C 
BRANCH   3   4
HETATM    4  C7  UNL     1      21.303   1.915  51.843  1.00  0.00    -0.058 C 
HETATM    5  C6  UNL     1      21.854   1.565  50.503  1.00  0.00     0.065 C 
HETATM    6  C5  UNL     1      22.894   2.486  50.022  1.00  0.00     0.008 C 
HETATM    7  C4  UNL     1      22.678   3.787  49.938  1.00  0.00     0.038 C 
HETATM    8  P1  UNL     1      20.978   4.219  50.487  1.00  0.00    -0.053 P 
HETATM    9  C19 UNL     1      20.831   3.168  52.017  1.00  0.00     0.015 C 
HETATM   10  H23 UNL     1      20.848   5.608  50.803  1.00  0.00     0.068 HD
BRANCH   7  11
HETATM   11  N1  UNL     1      23.553   4.813  49.502  1.00  0.00    -0.302 N 
HETATM   12  C3  UNL     1      24.241   5.764  50.255  1.00  0.00     0.365 C 
HETATM   13  O2  UNL     1      24.136   5.799  51.484  1.00  0.00    -0.238 OA
HETATM   14  H6  UNL     1      23.733   4.900  48.480  1.00  0.00     0.171 HD
BRANCH  12  15
HETATM   15  O1  UNL     1      25.079   6.730  49.721  1.00  0.00    -0.304 OA
BRANCH  15  16
HETATM   16  C2  UNL     1      25.759   6.578  48.507  1.00  0.00     0.176 C 
HETATM   17  C1  UNL     1      26.995   5.745  48.674  1.00  0.00     0.034 C 
ENDBRANCH  15  16
ENDBRANCH  12  15
ENDBRANCH   7  11
ENDBRANCH   3   4
ENDBRANCH   1   3
BRANCH   1  18
HETATM   18  C9  UNL     1      23.076  -0.552  53.698  1.00  0.00     0.137 A 
HETATM   19  N3  UNL     1      22.686  -1.205  54.808  1.00  0.00    -0.224 NA
HETATM   20  C10 UNL     1      23.622  -1.503  55.723  1.00  0.00     0.235 A 
HETATM   21  N4  UNL     1      24.946  -1.194  55.615  1.00  0.00    -0.241 NA
HETATM   22  C11 UNL     1      25.386  -0.537  54.515  1.00  0.00     0.075 A 
HETATM   23  C12 UNL     1      26.712  -0.214  54.380  1.00  0.00     0.072 A 
HETATM   24  C18 UNL     1      24.431  -0.230  53.575  1.00  0.00     0.041 A 
HETATM   25  C13 UNL     1      27.140   0.456  53.253  1.00  0.00     0.103 A 
HETATM   26  C15 UNL     1      26.210   0.782  52.284  1.00  0.00     0.102 A 
HETATM   27  C17 UNL     1      24.886   0.436  52.464  1.00  0.00     0.057 A 
BRANCH  25  28
HETATM   28  O3  UNL     1      28.474   0.771  53.136  1.00  0.00    -0.353 OA
HETATM   29  C14 UNL     1      29.130   1.380  54.229  1.00  0.00     0.210 C 
ENDBRANCH  25  28
BRANCH  26  30
HETATM   30  O4  UNL     1      26.727   1.454  51.184  1.00  0.00    -0.353 OA
HETATM   31  C16 UNL     1      26.494   2.845  50.997  1.00  0.00     0.210 C 
ENDBRANCH  26  30
ENDBRANCH   1  18
TORSDOF 8
ENDMDL
MODEL 3
REMARK VINA RESULT:      -7.6      2.154      2.235
REMARK  8 active torsions:
REMARK  status: ('A' for Active; 'I' for Inactive)
REMARK    1  A    between atoms: C2_2  and  O1_3 
REMARK    2  A    between atoms: O1_3  and  C3_4 
REMARK       I    between atoms: C3_4  and  N1_6 
REMARK    3  A    between atoms: N1_6  and  C4_7 
REMARK    4  A    between atoms: C7_10  and  C8_11 
REMARK    5  A    between atoms: C8_11  and  N2_12 
REMARK    6  A    between atoms: N2_12  and  C9_13 
REMARK    7  A    between atoms: C13_19  and  O3_20 
REMARK    8  A    between atoms: C15_22  and  O4_23 
ROOT
HETATM    1  N2  UNL     1      22.858   3.045  52.056  1.00  0.00    -0.370 N 
HETATM    2  H12 UNL     1      22.629   3.839  52.688  1.00  0.00     0.161 HD
ENDROOT
BRANCH   1   3
HETATM    3  C8  UNL     1      23.060   3.352  50.658  1.00  0.00     0.155 C 
BRANCH   3   4
HETATM    4  C7  UNL     1      23.468   4.730  50.403  1.00  0.00    -0.058 C 
HETATM    5  C6  UNL     1      24.146   5.111  49.132  1.00  0.00     0.065 C 
HETATM    6  C5  UNL     1      25.421   5.819  49.320  1.00  0.00     0.008 C 
HETATM    7  C4  UNL     1      25.499   6.916  50.053  1.00  0.00     0.038 C 
HETATM    8  P1  UNL     1      23.861   7.372  50.750  1.00  0.00    -0.053 P 
HETATM    9  C19 UNL     1      23.247   5.706  51.311  1.00  0.00     0.015 C 
HETATM   10  H23 UNL     1      23.974   8.276  51.852  1.00  0.00     0.068 HD
BRANCH   7  11
HETATM   11  N1  UNL     1      26.629   7.720  50.341  1.00  0.00    -0.302 N 
HETATM   12  C3  UNL     1      27.067   8.883  49.709  1.00  0.00     0.365 C 
HETATM   13  O2  UNL     1      26.449   9.358  48.752  1.00  0.00    -0.238 OA
HETATM   14  H6  UNL     1      27.245   7.433  51.131  1.00  0.00     0.171 HD
BRANCH  12  15
HETATM   15  O1  UNL     1      28.198   9.597  50.076  1.00  0.00    -0.304 OA
BRANCH  15  16
HETATM   16  C2  UNL     1      29.443   9.443  49.458  1.00  0.00     0.176 C 
HETATM   17  C1  UNL     1      29.826  10.672  48.687  1.00  0.00     0.034 C 
ENDBRANCH  15  16
ENDBRANCH  12  15
ENDBRANCH   7  11
ENDBRANCH   3   4
ENDBRANCH   1   3
BRANCH   1  18
HETATM   18  C9  UNL     1      22.984   1.690  52.470  1.00  0.00     0.137 A 
HETATM   19  N3  UNL     1      21.971   0.830  52.262  1.00  0.00    -0.224 NA
HETATM   20  C10 UNL     1      22.131  -0.439  52.669  1.00  0.00     0.235 A 
HETATM   21  N4  UNL     1      23.247  -0.928  53.280  1.00  0.00    -0.241 NA
HETATM   22  C11 UNL     1      24.294  -0.100  53.512  1.00  0.00     0.075 A 
HETATM   23  C12 UNL     1      25.429  -0.565  54.125  1.00  0.00     0.072 A 
HETATM   24  C18 UNL     1      24.134   1.201  53.097  1.00  0.00     0.041 A 
HETATM   25  C13 UNL     1      26.483   0.295  54.352  1.00  0.00     0.103 A 
HETATM   26  C15 UNL     1      26.362   1.612  53.949  1.00  0.00     0.102 A 
HETATM   27  C17 UNL     1      25.200   2.034  53.336  1.00  0.00     0.057 A 
BRANCH  25  28
HETATM   28  O3  UNL     1      27.613  -0.190  54.968  1.00  0.00    -0.353 OA
HETATM   29  C14 UNL     1      28.629  -0.767  54.174  1.00  0.00     0.210 C 
ENDBRANCH  25  28
BRANCH  26  30
HETATM   30  O4  UNL     1      27.469   2.406  54.216  1.00  0.00    -0.353 OA
HETATM   31  C16 UNL     1      28.507   2.566  53.256  1.00  0.00     0.210 C 
ENDBRANCH  26  30
ENDBRANCH   1  18
TORSDOF 8
ENDMDL
MODEL 4
REMARK VINA RESULT:      -7.3      4.023      6.733
REMARK  8 active torsions:
REMARK  status: ('A' for Active; 'I' for Inactive)
REMARK    1  A    between atoms: C2_2  and  O1_3 
REMARK    2  A    between atoms: O1_3  and  C3_4 
REMARK       I    between atoms: C3_4  and  N1_6 
REMARK    3  A    between atoms: N1_6  and  C4_7 
REMARK    4  A    between atoms: C7_10  and  C8_11 
REMARK    5  A    between atoms: C8_11  and  N2_12 
REMARK    6  A    between atoms: N2_12  and  C9_13 
REMARK    7  A    between atoms: C13_19  and  O3_20 
REMARK    8  A    between atoms: C15_22  and  O4_23 
ROOT
HETATM    1  N2  UNL     1      21.220   3.728  52.229  1.00  0.00    -0.370 N 
HETATM    2  H12 UNL     1      21.405   3.971  53.224  1.00  0.00     0.161 HD
ENDROOT
BRANCH   1   3
HETATM    3  C8  UNL     1      22.162   4.212  51.246  1.00  0.00     0.155 C 
BRANCH   3   4
HETATM    4  C7  UNL     1      23.379   3.413  51.142  1.00  0.00    -0.058 C 
HETATM    5  C6  UNL     1      23.317   1.934  50.966  1.00  0.00     0.065 C 
HETATM    6  C5  UNL     1      24.095   1.178  51.958  1.00  0.00     0.008 C 
HETATM    7  C4  UNL     1      25.382   1.414  52.150  1.00  0.00     0.038 C 
HETATM    8  P1  UNL     1      25.988   2.752  51.046  1.00  0.00    -0.053 P 
HETATM    9  C19 UNL     1      24.601   3.985  51.202  1.00  0.00     0.015 C 
HETATM   10  H23 UNL     1      27.224   3.310  51.499  1.00  0.00     0.068 HD
BRANCH   7  11
HETATM   11  N1  UNL     1      26.280   0.791  53.051  1.00  0.00    -0.302 N 
HETATM   12  C3  UNL     1      26.942  -0.430  52.933  1.00  0.00     0.365 C 
HETATM   13  O2  UNL     1      26.788  -1.143  51.938  1.00  0.00    -0.238 OA
HETATM   14  H6  UNL     1      26.502   1.286  53.941  1.00  0.00     0.171 HD
BRANCH  12  15
HETATM   15  O1  UNL     1      27.808  -0.948  53.885  1.00  0.00    -0.304 OA
BRANCH  15  16
HETATM   16  C2  UNL     1      29.128  -1.320  53.608  1.00  0.00     0.176 C 
HETATM   17  C1  UNL     1      30.020  -0.119  53.493  1.00  0.00     0.034 C 
ENDBRANCH  15  16
ENDBRANCH  12  15
ENDBRANCH   7  11
ENDBRANCH   3   4
ENDBRANCH   1   3
BRANCH   1  18
HETATM   18  C9  UNL     1      20.113   2.959  51.775  1.00  0.00     0.137 A 
HETATM   19  N3  UNL     1      19.302   3.451  50.821  1.00  0.00    -0.224 NA
HETATM   20  C10 UNL     1      18.269   2.692  50.422  1.00  0.00     0.235 A 
HETATM   21  N4  UNL     1      17.974   1.455  50.911  1.00  0.00    -0.241 NA
HETATM   22  C11 UNL     1      18.762   0.917  51.873  1.00  0.00     0.075 A 
HETATM   23  C12 UNL     1      18.490  -0.327  52.383  1.00  0.00     0.072 A 
HETATM   24  C18 UNL     1      19.822   1.690  52.285  1.00  0.00     0.041 A 
HETATM   25  C13 UNL     1      19.303  -0.857  53.362  1.00  0.00     0.103 A 
HETATM   26  C15 UNL     1      20.380  -0.110  53.803  1.00  0.00     0.102 A 
HETATM   27  C17 UNL     1      20.614   1.137  53.260  1.00  0.00     0.057 A 
BRANCH  25  28
HETATM   28  O3  UNL     1      19.014  -2.105  53.861  1.00  0.00    -0.353 OA
HETATM   29  C14 UNL     1      17.746  -2.669  53.597  1.00  0.00     0.210 C 
ENDBRANCH  25  28
BRANCH  26  30
HETATM   30  O4  UNL     1      21.146  -0.719  54.789  1.00  0.00    -0.353 OA
HETATM   31  C16 UNL     1      22.525  -0.995  54.582  1.00  0.00     0.210 C 
ENDBRANCH  26  30
ENDBRANCH   1  18
TORSDOF 8
ENDMDL
MODEL 5
REMARK VINA RESULT:      -7.2      4.371      6.258
REMARK  8 active torsions:
REMARK  status: ('A' for Active; 'I' for Inactive)
REMARK    1  A    between atoms: C2_2  and  O1_3 
REMARK    2  A    between atoms: O1_3  and  C3_4 
REMARK       I    between atoms: C3_4  and  N1_6 
REMARK    3  A    between atoms: N1_6  and  C4_7 
REMARK    4  A    between atoms: C7_10  and  C8_11 
REMARK    5  A    between atoms: C8_11  and  N2_12 
REMARK    6  A    between atoms: N2_12  and  C9_13 
REMARK    7  A    between atoms: C13_19  and  O3_20 
REMARK    8  A    between atoms: C15_22  and  O4_23 
ROOT
HETATM    1  N2  UNL     1      25.437  -0.010  52.633  1.00  0.00    -0.370 N 
HETATM    2  H12 UNL     1      25.535  -0.470  51.704  1.00  0.00     0.161 HD
ENDROOT
BRANCH   1   3
HETATM    3  C8  UNL     1      26.192   1.201  52.854  1.00  0.00     0.155 C 
BRANCH   3   4
HETATM    4  C7  UNL     1      25.794   2.316  52.000  1.00  0.00    -0.058 C 
HETATM    5  C6  UNL     1      24.592   3.139  52.317  1.00  0.00     0.065 C 
HETATM    6  C5  UNL     1      23.629   3.247  51.210  1.00  0.00     0.008 C 
HETATM    7  C4  UNL     1      23.997   3.681  50.017  1.00  0.00     0.038 C 
HETATM    8  P1  UNL     1      25.787   4.096  49.979  1.00  0.00    -0.053 P 
HETATM    9  C19 UNL     1      26.500   2.640  50.895  1.00  0.00     0.015 C 
HETATM   10  H23 UNL     1      26.299   4.165  48.646  1.00  0.00     0.068 HD
BRANCH   7  11
HETATM   11  N1  UNL     1      23.216   3.850  48.847  1.00  0.00    -0.302 N 
HETATM   12  C3  UNL     1      22.091   4.649  48.645  1.00  0.00     0.365 C 
HETATM   13  O2  UNL     1      21.635   5.345  49.556  1.00  0.00    -0.238 OA
HETATM   14  H6  UNL     1      23.490   3.316  47.995  1.00  0.00     0.171 HD
BRANCH  12  15
HETATM   15  O1  UNL     1      21.398   4.739  47.448  1.00  0.00    -0.304 OA
BRANCH  15  16
HETATM   16  C2  UNL     1      22.017   4.932  46.209  1.00  0.00     0.176 C 
HETATM   17  C1  UNL     1      21.716   3.805  45.266  1.00  0.00     0.034 C 
ENDBRANCH  15  16
ENDBRANCH  12  15
ENDBRANCH   7  11
ENDBRANCH   3   4
ENDBRANCH   1   3
BRANCH   1  18
HETATM   18  C9  UNL     1      24.614  -0.491  53.690  1.00  0.00     0.137 A 
HETATM   19  N3  UNL     1      25.180  -0.962  54.816  1.00  0.00    -0.224 NA
HETATM   20  C10 UNL     1      24.368  -1.405  55.788  1.00  0.00     0.235 A 
HETATM   21  N4  UNL     1      23.006  -1.416  55.724  1.00  0.00    -0.241 NA
HETATM   22  C11 UNL     1      22.391  -0.951  54.610  1.00  0.00     0.075 A 
HETATM   23  C12 UNL     1      21.022  -0.950  54.519  1.00  0.00     0.072 A 
HETATM   24  C18 UNL     1      23.218  -0.496  53.611  1.00  0.00     0.041 A 
HETATM   25  C13 UNL     1      20.415  -0.473  53.376  1.00  0.00     0.103 A 
HETATM   26  C15 UNL     1      21.213  -0.006  52.348  1.00  0.00     0.102 A 
HETATM   27  C17 UNL     1      22.586  -0.027  52.486  1.00  0.00     0.057 A 
BRANCH  25  28
HETATM   28  O3  UNL     1      19.042  -0.480  53.302  1.00  0.00    -0.353 OA
HETATM   29  C14 UNL     1      18.356  -1.705  53.460  1.00  0.00     0.210 C 
ENDBRANCH  25  28
BRANCH  26  30
HETATM   30  O4  UNL     1      20.520   0.455  51.237  1.00  0.00    -0.353 OA
HETATM   31  C16 UNL     1      21.198   0.771  50.028  1.00  0.00     0.210 C 
ENDBRANCH  26  30
ENDBRANCH   1  18
TORSDOF 8
ENDMDL
MODEL 6
REMARK VINA RESULT:      -7.2      2.932      4.364
REMARK  8 active torsions:
REMARK  status: ('A' for Active; 'I' for Inactive)
REMARK    1  A    between atoms: C2_2  and  O1_3 
REMARK    2  A    between atoms: O1_3  and  C3_4 
REMARK       I    between atoms: C3_4  and  N1_6 
REMARK    3  A    between atoms: N1_6  and  C4_7 
REMARK    4  A    between atoms: C7_10  and  C8_11 
REMARK    5  A    between atoms: C8_11  and  N2_12 
REMARK    6  A    between atoms: N2_12  and  C9_13 
REMARK    7  A    between atoms: C13_19  and  O3_20 
REMARK    8  A    between atoms: C15_22  and  O4_23 
ROOT
HETATM    1  N2  UNL     1      26.154   3.690  50.785  1.00  0.00    -0.370 N 
HETATM    2  H12 UNL     1      25.550   4.505  51.015  1.00  0.00     0.161 HD
ENDROOT
BRANCH   1   3
HETATM    3  C8  UNL     1      26.771   3.673  49.479  1.00  0.00     0.155 C 
BRANCH   3   4
HETATM    4  C7  UNL     1      27.056   4.998  48.937  1.00  0.00    -0.058 C 
HETATM    5  C6  UNL     1      28.281   5.254  48.127  1.00  0.00     0.065 C 
HETATM    6  C5  UNL     1      29.103   6.370  48.617  1.00  0.00     0.008 C 
HETATM    7  C4  UNL     1      28.591   7.576  48.795  1.00  0.00     0.038 C 
HETATM    8  P1  UNL     1      26.807   7.617  48.359  1.00  0.00    -0.053 P 
HETATM    9  C19 UNL     1      26.220   6.038  49.152  1.00  0.00     0.015 C 
HETATM   10  H23 UNL     1      26.138   8.751  48.916  1.00  0.00     0.068 HD
BRANCH   7  11
HETATM   11  N1  UNL     1      29.226   8.757  49.253  1.00  0.00    -0.302 N 
HETATM   12  C3  UNL     1      30.229   9.511  48.647  1.00  0.00     0.365 C 
HETATM   13  O2  UNL     1      30.698   9.183  47.553  1.00  0.00    -0.238 OA
HETATM   14  H6  UNL     1      28.926   9.148  50.171  1.00  0.00     0.171 HD
BRANCH  12  15
HETATM   15  O1  UNL     1      30.782  10.661  49.189  1.00  0.00    -0.304 OA
BRANCH  15  16
HETATM   16  C2  UNL     1      30.702  11.918  48.580  1.00  0.00     0.176 C 
HETATM   17  C1  UNL     1      29.462  12.650  49.001  1.00  0.00     0.034 C 
ENDBRANCH  15  16
ENDBRANCH  12  15
ENDBRANCH   7  11
ENDBRANCH   3   4
ENDBRANCH   1   3
BRANCH   1  18
HETATM   18  C9  UNL     1      26.411   2.600  51.663  1.00  0.00     0.137 A 
HETATM   19  N3  UNL     1      27.665   2.372  52.096  1.00  0.00    -0.224 NA
HETATM   20  C10 UNL     1      27.863   1.333  52.923  1.00  0.00     0.235 A 
HETATM   21  N4  UNL     1      26.890   0.486  53.362  1.00  0.00    -0.241 NA
HETATM   22  C11 UNL     1      25.612   0.676  52.953  1.00  0.00     0.075 A 
HETATM   23  C12 UNL     1      24.611  -0.160  53.378  1.00  0.00     0.072 A 
HETATM   24  C18 UNL     1      25.403   1.739  52.106  1.00  0.00     0.041 A 
HETATM   25  C13 UNL     1      23.318   0.050  52.950  1.00  0.00     0.103 A 
HETATM   26  C15 UNL     1      23.066   1.109  52.098  1.00  0.00     0.102 A 
HETATM   27  C17 UNL     1      24.105   1.923  51.696  1.00  0.00     0.057 A 
BRANCH  25  28
HETATM   28  O3  UNL     1      22.328  -0.800  53.387  1.00  0.00    -0.353 OA
HETATM   29  C14 UNL     1      22.220  -1.066  54.771  1.00  0.00     0.210 C 
ENDBRANCH  25  28
BRANCH  26  30
HETATM   30  O4  UNL     1      21.738   1.247  51.717  1.00  0.00    -0.353 OA
HETATM   31  C16 UNL     1      20.970   2.370  52.128  1.00  0.00     0.210 C 
ENDBRANCH  26  30
ENDBRANCH   1  18
TORSDOF 8
ENDMDL
MODEL 7
REMARK VINA RESULT:      -7.0      5.522      8.211
REMARK  8 active torsions:
REMARK  status: ('A' for Active; 'I' for Inactive)
REMARK    1  A    between atoms: C2_2  and  O1_3 
REMARK    2  A    between atoms: O1_3  and  C3_4 
REMARK       I    between atoms: C3_4  and  N1_6 
REMARK    3  A    between atoms: N1_6  and  C4_7 
REMARK    4  A    between atoms: C7_10  and  C8_11 
REMARK    5  A    between atoms: C8_11  and  N2_12 
REMARK    6  A    between atoms: N2_12  and  C9_13 
REMARK    7  A    between atoms: C13_19  and  O3_20 
REMARK    8  A    between atoms: C15_22  and  O4_23 
ROOT
HETATM    1  N2  UNL     1      23.100   1.562  51.399  1.00  0.00    -0.370 N 
HETATM    2  H12 UNL     1      22.624   1.179  52.242  1.00  0.00     0.161 HD
ENDROOT
BRANCH   1   3
HETATM    3  C8  UNL     1      22.304   1.707  50.202  1.00  0.00     0.155 C 
BRANCH   3   4
HETATM    4  C7  UNL     1      20.916   1.279  50.353  1.00  0.00    -0.058 C 
HETATM    5  C6  UNL     1      19.965   1.329  49.207  1.00  0.00     0.065 C 
HETATM    6  C5  UNL     1      18.724   2.065  49.488  1.00  0.00     0.008 C 
HETATM    7  C4  UNL     1      17.955   1.752  50.517  1.00  0.00     0.038 C 
HETATM    8  P1  UNL     1      18.651   0.342  51.467  1.00  0.00    -0.053 P 
HETATM    9  C19 UNL     1      20.448   0.823  51.535  1.00  0.00     0.015 C 
HETATM   10  H23 UNL     1      18.094   0.247  52.781  1.00  0.00     0.068 HD
BRANCH   7  11
HETATM   11  N1  UNL     1      16.737   2.344  50.936  1.00  0.00    -0.302 N 
HETATM   12  C3  UNL     1      16.533   3.471  51.730  1.00  0.00     0.365 C 
HETATM   13  O2  UNL     1      17.487   4.112  52.182  1.00  0.00    -0.238 OA
HETATM   14  H6  UNL     1      15.846   1.902  50.626  1.00  0.00     0.171 HD
BRANCH  12  15
HETATM   15  O1  UNL     1      15.287   3.968  52.082  1.00  0.00    -0.304 OA
BRANCH  15  16
HETATM   16  C2  UNL     1      14.437   3.341  53.000  1.00  0.00     0.176 C 
HETATM   17  C1  UNL     1      13.582   4.341  53.722  1.00  0.00     0.034 C 
ENDBRANCH  15  16
ENDBRANCH  12  15
ENDBRANCH   7  11
ENDBRANCH   3   4
ENDBRANCH   1   3
BRANCH   1  18
HETATM   18  C9  UNL     1      24.468   1.948  51.347  1.00  0.00     0.137 A 
HETATM   19  N3  UNL     1      24.856   2.921  50.503  1.00  0.00    -0.224 NA
HETATM   20  C10 UNL     1      26.156   3.254  50.485  1.00  0.00     0.235 A 
HETATM   21  N4  UNL     1      27.120   2.682  51.259  1.00  0.00    -0.241 NA
HETATM   22  C11 UNL     1      26.778   1.697  52.125  1.00  0.00     0.075 A 
HETATM   23  C12 UNL     1      27.727   1.103  52.917  1.00  0.00     0.072 A 
HETATM   24  C18 UNL     1      25.447   1.352  52.147  1.00  0.00     0.041 A 
HETATM   25  C13 UNL     1      27.358   0.102  53.791  1.00  0.00     0.103 A 
HETATM   26  C15 UNL     1      26.029  -0.273  53.843  1.00  0.00     0.102 A 
HETATM   27  C17 UNL     1      25.109   0.353  53.027  1.00  0.00     0.057 A 
BRANCH  25  28
HETATM   28  O3  UNL     1      28.324  -0.482  54.577  1.00  0.00    -0.353 OA
HETATM   29  C14 UNL     1      29.590  -0.754  54.011  1.00  0.00     0.210 C 
ENDBRANCH  25  28
BRANCH  26  30
HETATM   30  O4  UNL     1      25.746  -1.287  54.750  1.00  0.00    -0.353 OA
HETATM   31  C16 UNL     1      24.629  -1.197  55.626  1.00  0.00     0.210 C 
ENDBRANCH  26  30
ENDBRANCH   1  18
TORSDOF 8
ENDMDL
MODEL 8
REMARK VINA RESULT:      -6.8      4.206      6.865
REMARK  8 active torsions:
REMARK  status: ('A' for Active; 'I' for Inactive)
REMARK    1  A    between atoms: C2_2  and  O1_3 
REMARK    2  A    between atoms: O1_3  and  C3_4 
REMARK       I    between atoms: C3_4  and  N1_6 
REMARK    3  A    between atoms: N1_6  and  C4_7 
REMARK    4  A    between atoms: C7_10  and  C8_11 
REMARK    5  A    between atoms: C8_11  and  N2_12 
REMARK    6  A    between atoms: N2_12  and  C9_13 
REMARK    7  A    between atoms: C13_19  and  O3_20 
REMARK    8  A    between atoms: C15_22  and  O4_23 
ROOT
HETATM    1  N2  UNL     1      25.959   3.042  49.785  1.00  0.00    -0.370 N 
HETATM    2  H12 UNL     1      25.840   2.492  48.910  1.00  0.00     0.161 HD
ENDROOT
BRANCH   1   3
HETATM    3  C8  UNL     1      25.941   4.482  49.666  1.00  0.00     0.155 C 
BRANCH   3   4
HETATM    4  C7  UNL     1      24.604   5.067  49.701  1.00  0.00    -0.058 C 
HETATM    5  C6  UNL     1      24.059   5.672  50.949  1.00  0.00     0.065 C 
HETATM    6  C5  UNL     1      22.752   5.135  51.355  1.00  0.00     0.008 C 
HETATM    7  C4  UNL     1      21.718   5.141  50.531  1.00  0.00     0.038 C 
HETATM    8  P1  UNL     1      22.162   5.880  48.908  1.00  0.00    -0.053 P 
HETATM    9  C19 UNL     1      23.816   5.080  48.604  1.00  0.00     0.015 C 
HETATM   10  H23 UNL     1      21.228   5.535  47.882  1.00  0.00     0.068 HD
BRANCH   7  11
HETATM   11  N1  UNL     1      20.399   4.673  50.748  1.00  0.00    -0.302 N 
HETATM   12  C3  UNL     1      19.892   3.927  51.810  1.00  0.00     0.365 C 
HETATM   13  O2  UNL     1      20.618   3.575  52.744  1.00  0.00    -0.238 OA
HETATM   14  H6  UNL     1      19.676   4.899  50.032  1.00  0.00     0.171 HD
BRANCH  12  15
HETATM   15  O1  UNL     1      18.571   3.518  51.923  1.00  0.00    -0.304 OA
BRANCH  15  16
HETATM   16  C2  UNL     1      17.536   4.027  51.131  1.00  0.00     0.176 C 
HETATM   17  C1  UNL     1      16.200   3.819  51.782  1.00  0.00     0.034 C 
ENDBRANCH  15  16
ENDBRANCH  12  15
ENDBRANCH   7  11
ENDBRANCH   3   4
ENDBRANCH   1   3
BRANCH   1  18
HETATM   18  C9  UNL     1      26.134   2.478  51.079  1.00  0.00     0.137 A 
HETATM   19  N3  UNL     1      27.327   2.574  51.694  1.00  0.00    -0.224 NA
HETATM   20  C10 UNL     1      27.450   2.027  52.914  1.00  0.00     0.235 A 
HETATM   21  N4  UNL     1      26.456   1.378  53.583  1.00  0.00    -0.241 NA
HETATM   22  C11 UNL     1      25.237   1.256  53.004  1.00  0.00     0.075 A 
HETATM   23  C12 UNL     1      24.217   0.608  53.654  1.00  0.00     0.072 A 
HETATM   24  C18 UNL     1      25.106   1.814  51.754  1.00  0.00     0.041 A 
HETATM   25  C13 UNL     1      22.985   0.493  53.046  1.00  0.00     0.103 A 
HETATM   26  C15 UNL     1      22.812   1.042  51.790  1.00  0.00     0.102 A 
HETATM   27  C17 UNL     1      23.867   1.685  51.175  1.00  0.00     0.057 A 
BRANCH  25  28
HETATM   28  O3  UNL     1      21.975  -0.160  53.714  1.00  0.00    -0.353 OA
HETATM   29  C14 UNL     1      22.068  -1.559  53.892  1.00  0.00     0.210 C 
ENDBRANCH  25  28
BRANCH  26  30
HETATM   30  O4  UNL     1      21.541   0.882  51.254  1.00  0.00    -0.353 OA
HETATM   31  C16 UNL     1      21.311   1.017  49.857  1.00  0.00     0.210 C 
ENDBRANCH  26  30
ENDBRANCH   1  18
TORSDOF 8
ENDMDL
MODEL 9
REMARK VINA RESULT:      -6.7      2.311      2.746
REMARK  8 active torsions:
REMARK  status: ('A' for Active; 'I' for Inactive)
REMARK    1  A    between atoms: C2_2  and  O1_3 
REMARK    2  A    between atoms: O1_3  and  C3_4 
REMARK       I    between atoms: C3_4  and  N1_6 
REMARK    3  A    between atoms: N1_6  and  C4_7 
REMARK    4  A    between atoms: C7_10  and  C8_11 
REMARK    5  A    between atoms: C8_11  and  N2_12 
REMARK    6  A    between atoms: N2_12  and  C9_13 
REMARK    7  A    between atoms: C13_19  and  O3_20 
REMARK    8  A    between atoms: C15_22  and  O4_23 
ROOT
HETATM    1  N2  UNL     1      21.621   2.400  52.208  1.00  0.00    -0.370 N 
HETATM    2  H12 UNL     1      21.780   3.351  52.597  1.00  0.00     0.161 HD
ENDROOT
BRANCH   1   3
HETATM    3  C8  UNL     1      21.091   2.316  50.866  1.00  0.00     0.155 C 
BRANCH   3   4
HETATM    4  C7  UNL     1      21.825   3.110  49.885  1.00  0.00    -0.058 C 
HETATM    5  C6  UNL     1      23.132   2.645  49.338  1.00  0.00     0.065 C 
HETATM    6  C5  UNL     1      24.220   3.625  49.469  1.00  0.00     0.008 C 
HETATM    7  C4  UNL     1      24.103   4.852  48.992  1.00  0.00     0.038 C 
HETATM    8  P1  UNL     1      22.466   5.108  48.197  1.00  0.00    -0.053 P 
HETATM    9  C19 UNL     1      21.346   4.292  49.440  1.00  0.00     0.015 C 
HETATM   10  H23 UNL     1      22.146   6.493  48.048  1.00  0.00     0.068 HD
BRANCH   7  11
HETATM   11  N1  UNL     1      25.037   5.917  49.026  1.00  0.00    -0.302 N 
HETATM   12  C3  UNL     1      26.422   5.880  48.876  1.00  0.00     0.365 C 
HETATM   13  O2  UNL     1      27.012   4.813  48.683  1.00  0.00    -0.238 OA
HETATM   14  H6  UNL     1      24.674   6.881  49.184  1.00  0.00     0.171 HD
BRANCH  12  15
HETATM   15  O1  UNL     1      27.248   6.993  48.927  1.00  0.00    -0.304 OA
BRANCH  15  16
HETATM   16  C2  UNL     1      26.771   8.308  48.930  1.00  0.00     0.176 C 
HETATM   17  C1  UNL     1      27.169   9.031  50.184  1.00  0.00     0.034 C 
ENDBRANCH  15  16
ENDBRANCH  12  15
ENDBRANCH   7  11
ENDBRANCH   3   4
ENDBRANCH   1   3
BRANCH   1  18
HETATM   18  C9  UNL     1      21.887   1.186  52.901  1.00  0.00     0.137 A 
HETATM   19  N3  UNL     1      20.866   0.418  53.321  1.00  0.00    -0.224 NA
HETATM   20  C10 UNL     1      21.162  -0.718  53.972  1.00  0.00     0.235 A 
HETATM   21  N4  UNL     1      22.423  -1.159  54.242  1.00  0.00    -0.241 NA
HETATM   22  C11 UNL     1      23.484  -0.419  53.838  1.00  0.00     0.075 A 
HETATM   23  C12 UNL     1      24.765  -0.837  54.095  1.00  0.00     0.072 A 
HETATM   24  C18 UNL     1      23.187   0.746  53.171  1.00  0.00     0.041 A 
HETATM   25  C13 UNL     1      25.831  -0.069  53.677  1.00  0.00     0.103 A 
HETATM   26  C15 UNL     1      25.573   1.110  53.002  1.00  0.00     0.102 A 
HETATM   27  C17 UNL     1      24.268   1.490  52.767  1.00  0.00     0.057 A 
BRANCH  25  28
HETATM   28  O3  UNL     1      27.108  -0.505  53.945  1.00  0.00    -0.353 OA
HETATM   29  C14 UNL     1      27.846   0.131  54.968  1.00  0.00     0.210 C 
ENDBRANCH  25  28
BRANCH  26  30
HETATM   30  O4  UNL     1      26.703   1.819  52.617  1.00  0.00    -0.353 OA
HETATM   31  C16 UNL     1      26.822   2.356  51.306  1.00  0.00     0.210 C 
ENDBRANCH  26  30
ENDBRANCH   1  18
TORSDOF 8
ENDMDL
