MODEL 1
REMARK VINA RESULT:      -8.5      0.000      0.000
REMARK  1 active torsions:
REMARK  status: ('A' for Active; 'I' for Inactive)
REMARK    1  A    between atoms: C2_2  and  C3_3 
ROOT
HETATM    1  C3  UNL     1      24.944   2.011  52.502  1.00  0.00     0.038 C 
HETATM    2  C4  UNL     1      24.059   3.111  52.974  1.00  0.00     0.009 C 
HETATM    3  C5  UNL     1      23.060   3.437  52.170  1.00  0.00     0.082 C 
HETATM    4  N1  UNL     1      22.237   3.344  50.981  1.00  0.00    -0.375 N 
HETATM    5  C6  UNL     1      21.901   1.947  51.312  1.00  0.00     0.393 C 
HETATM    6  N2  UNL     1      21.743   1.998  52.748  1.00  0.00     0.109 N 
HETATM    7  C7  UNL     1      21.929   0.797  53.413  1.00  0.00     0.252 C 
HETATM    8  C8  UNL     1      21.226  -0.379  52.792  1.00  0.00     0.044 C 
HETATM    9  C9  UNL     1      22.384  -1.137  53.451  1.00  0.00     0.039 C 
HETATM   10  C10 UNL     1      23.240   0.099  53.109  1.00  0.00    -0.043 C 
HETATM   11  C11 UNL     1      24.451   0.665  52.808  1.00  0.00    -0.054 C 
HETATM   12  C12 UNL     1      25.548  -0.395  52.868  1.00  0.00     0.062 C 
HETATM   13  C13 UNL     1      26.123  -0.210  54.261  1.00  0.00    -0.025 C 
HETATM   14  C14 UNL     1      27.200   0.162  54.919  1.00  0.00    -0.010 C 
HETATM   15  C15 UNL     1      28.268   0.558  53.996  1.00  0.00     0.168 C 
HETATM   16  N3  UNL     1      28.502   2.012  54.151  1.00  0.00    -0.311 N 
HETATM   17  N4  UNL     1      27.196   2.486  54.107  1.00  0.00    -0.194 NA
HETATM   18  C16 UNL     1      26.244   2.185  53.310  1.00  0.00     0.129 C 
HETATM   19  H8  UNL     1      22.134   4.147  50.327  1.00  0.00     0.160 HD
HETATM   20  H11 UNL     1      20.887   2.490  53.018  1.00  0.00     0.318 HD
HETATM   21  H23 UNL     1      28.659   3.023  54.259  1.00  0.00     0.182 HD
ENDROOT
BRANCH   1  22
HETATM   22  C2  UNL     1      25.348   2.336  51.098  1.00  0.00     0.019 C 
HETATM   23  C1  UNL     1      26.687   2.907  50.839  1.00  0.00     0.007 C 
ENDBRANCH   1  22
TORSDOF 1
ENDMDL
MODEL 2
REMARK VINA RESULT:      -8.4      2.187      4.177
REMARK  1 active torsions:
REMARK  status: ('A' for Active; 'I' for Inactive)
REMARK    1  A    between atoms: C2_2  and  C3_3 
ROOT
HETATM    1  C3  UNL     1      25.960   1.711  52.437  1.00  0.00     0.038 C 
HETATM    2  C4  UNL     1      26.341   0.300  52.156  1.00  0.00     0.009 C 
HETATM    3  C5  UNL     1      26.442  -0.493  53.211  1.00  0.00     0.082 C 
HETATM    4  N1  UNL     1      26.397  -0.832  54.618  1.00  0.00    -0.375 N 
HETATM    5  C6  UNL     1      24.970  -0.461  54.669  1.00  0.00     0.393 C 
HETATM    6  N2  UNL     1      24.473  -0.963  53.408  1.00  0.00     0.109 N 
HETATM    7  C7  UNL     1      23.329  -0.346  52.928  1.00  0.00     0.252 C 
HETATM    8  C8  UNL     1      22.241  -0.161  53.950  1.00  0.00     0.044 C 
HETATM    9  C9  UNL     1      21.895   1.024  53.040  1.00  0.00     0.039 C 
HETATM   10  C10 UNL     1      23.415   1.164  52.831  1.00  0.00    -0.043 C 
HETATM   11  C11 UNL     1      24.516   1.935  52.561  1.00  0.00    -0.054 C 
HETATM   12  C12 UNL     1      24.086   3.370  52.271  1.00  0.00     0.062 C 
HETATM   13  C13 UNL     1      24.035   3.409  50.754  1.00  0.00    -0.025 C 
HETATM   14  C14 UNL     1      24.600   3.939  49.690  1.00  0.00    -0.010 C 
HETATM   15  C15 UNL     1      25.700   4.830  50.071  1.00  0.00     0.168 C 
HETATM   16  N3  UNL     1      26.970   4.228  49.604  1.00  0.00    -0.311 N 
HETATM   17  N4  UNL     1      26.812   2.922  50.054  1.00  0.00    -0.194 NA
HETATM   18  C16 UNL     1      26.407   2.490  51.186  1.00  0.00     0.129 C 
HETATM   19  H8  UNL     1      27.239  -1.177  55.122  1.00  0.00     0.160 HD
HETATM   20  H11 UNL     1      24.424  -1.985  53.401  1.00  0.00     0.318 HD
HETATM   21  H23 UNL     1      27.851   3.804  49.282  1.00  0.00     0.182 HD
ENDROOT
BRANCH   1  22
HETATM   22  C2  UNL     1      26.869   2.212  53.516  1.00  0.00     0.019 C 
HETATM   23  C1  UNL     1      28.305   2.407  53.225  1.00  0.00     0.007 C 
ENDBRANCH   1  22
TORSDOF 1
ENDMDL
MODEL 3
REMARK VINA RESULT:      -7.6      1.939      2.778
REMARK  1 active torsions:
REMARK  status: ('A' for Active; 'I' for Inactive)
REMARK    1  A    between atoms: C2_2  and  C3_3 
ROOT
HETATM    1  C3  UNL     1      22.705   1.689  51.750  1.00  0.00     0.038 C 
HETATM    2  C4  UNL     1      21.591   2.511  52.296  1.00  0.00     0.009 C 
HETATM    3  C5  UNL     1      20.372   2.032  52.106  1.00  0.00     0.082 C 
HETATM    4  N1  UNL     1      19.383   1.085  51.632  1.00  0.00    -0.375 N 
HETATM    5  C6  UNL     1      19.984   0.029  52.467  1.00  0.00     0.393 C 
HETATM    6  N2  UNL     1      20.320   0.742  53.678  1.00  0.00     0.109 N 
HETATM    7  C7  UNL     1      21.333   0.183  54.441  1.00  0.00     0.252 C 
HETATM    8  C8  UNL     1      21.209  -1.301  54.655  1.00  0.00     0.044 C 
HETATM    9  C9  UNL     1      22.734  -1.187  54.764  1.00  0.00     0.039 C 
HETATM   10  C10 UNL     1      22.618  -0.092  53.685  1.00  0.00    -0.043 C 
HETATM   11  C11 UNL     1      23.150   0.608  52.635  1.00  0.00    -0.054 C 
HETATM   12  C12 UNL     1      24.587   0.158  52.385  1.00  0.00     0.062 C 
HETATM   13  C13 UNL     1      25.403   1.199  53.128  1.00  0.00    -0.025 C 
HETATM   14  C14 UNL     1      26.260   2.185  52.965  1.00  0.00    -0.010 C 
HETATM   15  C15 UNL     1      26.561   2.388  51.545  1.00  0.00     0.168 C 
HETATM   16  N3  UNL     1      26.015   3.702  51.137  1.00  0.00    -0.311 N 
HETATM   17  N4  UNL     1      24.736   3.625  51.675  1.00  0.00    -0.194 NA
HETATM   18  C16 UNL     1      23.891   2.667  51.641  1.00  0.00     0.129 C 
HETATM   19  H8  UNL     1      18.652   1.361  50.946  1.00  0.00     0.160 HD
HETATM   20  H11 UNL     1      19.485   0.987  54.218  1.00  0.00     0.318 HD
HETATM   21  H23 UNL     1      25.630   4.615  50.856  1.00  0.00     0.182 HD
ENDROOT
BRANCH   1  22
HETATM   22  C2  UNL     1      22.369   1.373  50.326  1.00  0.00     0.019 C 
HETATM   23  C1  UNL     1      22.715   2.341  49.263  1.00  0.00     0.007 C 
ENDBRANCH   1  22
TORSDOF 1
ENDMDL
MODEL 4
REMARK VINA RESULT:      -7.5      1.520      4.856
REMARK  1 active torsions:
REMARK  status: ('A' for Active; 'I' for Inactive)
REMARK    1  A    between atoms: C2_2  and  C3_3 
ROOT
HETATM    1  C3  UNL     1      24.135   2.235  51.930  1.00  0.00     0.038 C 
HETATM    2  C4  UNL     1      25.519   1.884  51.507  1.00  0.00     0.009 C 
HETATM    3  C5  UNL     1      26.470   2.096  52.402  1.00  0.00     0.082 C 
HETATM    4  N1  UNL     1      27.013   2.512  53.680  1.00  0.00    -0.375 N 
HETATM    5  C6  UNL     1      26.185   1.504  54.368  1.00  0.00     0.393 C 
HETATM    6  N2  UNL     1      26.254   0.376  53.467  1.00  0.00     0.109 N 
HETATM    7  C7  UNL     1      25.205  -0.524  53.554  1.00  0.00     0.252 C 
HETATM    8  C8  UNL     1      24.836  -0.922  54.956  1.00  0.00     0.044 C 
HETATM    9  C9  UNL     1      23.465  -1.125  54.300  1.00  0.00     0.039 C 
HETATM   10  C10 UNL     1      23.826   0.094  53.428  1.00  0.00    -0.043 C 
HETATM   11  C11 UNL     1      23.450   1.186  52.692  1.00  0.00    -0.054 C 
HETATM   12  C12 UNL     1      21.928   1.270  52.626  1.00  0.00     0.062 C 
HETATM   13  C13 UNL     1      21.609   0.613  51.296  1.00  0.00    -0.025 C 
HETATM   14  C14 UNL     1      21.130   0.842  50.092  1.00  0.00    -0.010 C 
HETATM   15  C15 UNL     1      20.757   2.251  49.936  1.00  0.00     0.168 C 
HETATM   16  N3  UNL     1      21.670   2.868  48.947  1.00  0.00    -0.311 N 
HETATM   17  N4  UNL     1      22.897   2.417  49.418  1.00  0.00    -0.194 NA
HETATM   18  C16 UNL     1      23.353   2.387  50.612  1.00  0.00     0.129 C 
HETATM   19  H8  UNL     1      27.711   3.280  53.750  1.00  0.00     0.160 HD
HETATM   20  H11 UNL     1      27.178  -0.065  53.482  1.00  0.00     0.318 HD
HETATM   21  H23 UNL     1      22.310   3.294  48.262  1.00  0.00     0.182 HD
ENDROOT
BRANCH   1  22
HETATM   22  C2  UNL     1      24.178   3.626  52.483  1.00  0.00     0.019 C 
HETATM   23  C1  UNL     1      23.115   4.587  52.120  1.00  0.00     0.007 C 
ENDBRANCH   1  22
TORSDOF 1
ENDMDL
MODEL 5
REMARK VINA RESULT:      -7.5      2.050      4.224
REMARK  1 active torsions:
REMARK  status: ('A' for Active; 'I' for Inactive)
REMARK    1  A    between atoms: C2_2  and  C3_3 
ROOT
HETATM    1  C3  UNL     1      24.694   0.603  53.116  1.00  0.00     0.038 C 
HETATM    2  C4  UNL     1      25.552   1.657  53.723  1.00  0.00     0.009 C 
HETATM    3  C5  UNL     1      26.364   2.292  52.893  1.00  0.00     0.082 C 
HETATM    4  N1  UNL     1      26.971   2.596  51.613  1.00  0.00    -0.375 N 
HETATM    5  C6  UNL     1      25.651   2.959  51.064  1.00  0.00     0.393 C 
HETATM    6  N2  UNL     1      25.034   3.652  52.172  1.00  0.00     0.109 N 
HETATM    7  C7  UNL     1      23.648   3.669  52.169  1.00  0.00     0.252 C 
HETATM    8  C8  UNL     1      23.029   4.021  50.845  1.00  0.00     0.044 C 
HETATM    9  C9  UNL     1      21.888   3.161  51.402  1.00  0.00     0.039 C 
HETATM   10  C10 UNL     1      22.997   2.306  52.046  1.00  0.00    -0.043 C 
HETATM   11  C11 UNL     1      23.453   1.103  52.517  1.00  0.00    -0.054 C 
HETATM   12  C12 UNL     1      22.346   0.057  52.428  1.00  0.00     0.062 C 
HETATM   13  C13 UNL     1      21.758   0.063  53.827  1.00  0.00    -0.025 C 
HETATM   14  C14 UNL     1      21.609  -0.662  54.915  1.00  0.00    -0.010 C 
HETATM   15  C15 UNL     1      22.236  -1.978  54.757  1.00  0.00     0.168 C 
HETATM   16  N3  UNL     1      23.388  -2.058  55.684  1.00  0.00    -0.311 N 
HETATM   17  N4  UNL     1      24.011  -0.844  55.422  1.00  0.00    -0.194 NA
HETATM   18  C16 UNL     1      24.270  -0.282  54.303  1.00  0.00     0.129 C 
HETATM   19  H8  UNL     1      27.994   2.486  51.457  1.00  0.00     0.160 HD
HETATM   20  H11 UNL     1      25.457   4.571  52.327  1.00  0.00     0.318 HD
HETATM   21  H23 UNL     1      24.191  -2.109  56.327  1.00  0.00     0.182 HD
ENDROOT
BRANCH   1  22
HETATM   22  C2  UNL     1      25.586  -0.286  52.307  1.00  0.00     0.019 C 
HETATM   23  C1  UNL     1      26.448  -1.273  52.994  1.00  0.00     0.007 C 
ENDBRANCH   1  22
TORSDOF 1
ENDMDL
MODEL 6
REMARK VINA RESULT:      -7.5      1.979      3.734
REMARK  1 active torsions:
REMARK  status: ('A' for Active; 'I' for Inactive)
REMARK    1  A    between atoms: C2_2  and  C3_3 
ROOT
HETATM    1  C3  UNL     1      23.834  -0.407  53.726  1.00  0.00     0.038 C 
HETATM    2  C4  UNL     1      22.870  -1.334  53.072  1.00  0.00     0.009 C 
HETATM    3  C5  UNL     1      21.657  -1.376  53.601  1.00  0.00     0.082 C 
HETATM    4  N1  UNL     1      20.610  -1.016  54.536  1.00  0.00    -0.375 N 
HETATM    5  C6  UNL     1      20.685   0.388  54.090  1.00  0.00     0.393 C 
HETATM    6  N2  UNL     1      20.877   0.252  52.664  1.00  0.00     0.109 N 
HETATM    7  C7  UNL     1      21.483   1.329  52.036  1.00  0.00     0.252 C 
HETATM    8  C8  UNL     1      20.929   2.672  52.423  1.00  0.00     0.044 C 
HETATM    9  C9  UNL     1      22.352   3.115  52.064  1.00  0.00     0.039 C 
HETATM   10  C10 UNL     1      22.801   1.761  52.648  1.00  0.00    -0.043 C 
HETATM   11  C11 UNL     1      23.744   0.982  53.266  1.00  0.00    -0.054 C 
HETATM   12  C12 UNL     1      25.029   1.781  53.461  1.00  0.00     0.062 C 
HETATM   13  C13 UNL     1      25.872   1.365  52.269  1.00  0.00    -0.025 C 
HETATM   14  C14 UNL     1      26.967   0.724  51.920  1.00  0.00    -0.010 C 
HETATM   15  C15 UNL     1      27.660   0.193  53.098  1.00  0.00     0.168 C 
HETATM   16  N3  UNL     1      27.595  -1.286  53.048  1.00  0.00    -0.311 N 
HETATM   17  N4  UNL     1      26.247  -1.472  52.768  1.00  0.00    -0.194 NA
HETATM   18  C16 UNL     1      25.219  -0.915  53.284  1.00  0.00     0.129 C 
HETATM   19  H8  UNL     1      20.174  -1.722  55.162  1.00  0.00     0.160 HD
HETATM   20  H11 UNL     1      20.026  -0.072  52.197  1.00  0.00     0.318 HD
HETATM   21  H23 UNL     1      27.544  -2.314  53.012  1.00  0.00     0.182 HD
ENDROOT
BRANCH   1  22
HETATM   22  C2  UNL     1      23.799  -0.691  55.195  1.00  0.00     0.019 C 
HETATM   23  C1  UNL     1      25.059  -0.984  55.910  1.00  0.00     0.007 C 
ENDBRANCH   1  22
TORSDOF 1
ENDMDL
MODEL 7
REMARK VINA RESULT:      -7.3      1.815      5.235
REMARK  1 active torsions:
REMARK  status: ('A' for Active; 'I' for Inactive)
REMARK    1  A    between atoms: C2_2  and  C3_3 
ROOT
HETATM    1  C3  UNL     1      23.448   1.187  52.641  1.00  0.00     0.038 C 
HETATM    2  C4  UNL     1      24.037   2.340  53.376  1.00  0.00     0.009 C 
HETATM    3  C5  UNL     1      25.313   2.590  53.133  1.00  0.00     0.082 C 
HETATM    4  N1  UNL     1      26.605   2.382  52.512  1.00  0.00    -0.375 N 
HETATM    5  C6  UNL     1      26.008   2.596  51.180  1.00  0.00     0.393 C 
HETATM    6  N2  UNL     1      25.076   3.673  51.427  1.00  0.00     0.109 N 
HETATM    7  C7  UNL     1      24.018   3.763  50.537  1.00  0.00     0.252 C 
HETATM    8  C8  UNL     1      24.407   3.652  49.089  1.00  0.00     0.044 C 
HETATM    9  C9  UNL     1      22.976   3.112  48.977  1.00  0.00     0.039 C 
HETATM   10  C10 UNL     1      23.223   2.484  50.363  1.00  0.00    -0.043 C 
HETATM   11  C11 UNL     1      22.977   1.506  51.290  1.00  0.00    -0.054 C 
HETATM   12  C12 UNL     1      21.898   0.560  50.772  1.00  0.00     0.062 C 
HETATM   13  C13 UNL     1      20.634   1.099  51.418  1.00  0.00    -0.025 C 
HETATM   14  C14 UNL     1      19.692   0.820  52.294  1.00  0.00    -0.010 C 
HETATM   15  C15 UNL     1      19.913  -0.497  52.898  1.00  0.00     0.168 C 
HETATM   16  N3  UNL     1      20.237  -0.304  54.330  1.00  0.00    -0.311 N 
HETATM   17  N4  UNL     1      21.193   0.701  54.241  1.00  0.00    -0.194 NA
HETATM   18  C16 UNL     1      22.194   0.810  53.453  1.00  0.00     0.129 C 
HETATM   19  H8  UNL     1      27.452   2.167  53.077  1.00  0.00     0.160 HD
HETATM   20  H11 UNL     1      25.557   4.562  51.587  1.00  0.00     0.318 HD
HETATM   21  H23 UNL     1      20.466  -0.165  55.324  1.00  0.00     0.182 HD
ENDROOT
BRANCH   1  22
HETATM   22  C2  UNL     1      24.364   0.019  52.835  1.00  0.00     0.019 C 
HETATM   23  C1  UNL     1      24.384  -0.683  54.136  1.00  0.00     0.007 C 
ENDBRANCH   1  22
TORSDOF 1
ENDMDL
MODEL 8
REMARK VINA RESULT:      -7.0      2.605      5.751
REMARK  1 active torsions:
REMARK  status: ('A' for Active; 'I' for Inactive)
REMARK    1  A    between atoms: C2_2  and  C3_3 
ROOT
HETATM    1  C3  UNL     1      20.971   1.040  52.443  1.00  0.00     0.038 C 
HETATM    2  C4  UNL     1      20.836   0.851  53.914  1.00  0.00     0.009 C 
HETATM    3  C5  UNL     1      20.936  -0.394  54.349  1.00  0.00     0.082 C 
HETATM    4  N1  UNL     1      21.116  -1.827  54.225  1.00  0.00    -0.375 N 
HETATM    5  C6  UNL     1      22.453  -1.615  53.639  1.00  0.00     0.393 C 
HETATM    6  N2  UNL     1      22.966  -0.513  54.421  1.00  0.00     0.109 N 
HETATM    7  C7  UNL     1      23.952   0.245  53.811  1.00  0.00     0.252 C 
HETATM    8  C8  UNL     1      25.041  -0.557  53.152  1.00  0.00     0.044 C 
HETATM    9  C9  UNL     1      25.119   0.693  52.268  1.00  0.00     0.039 C 
HETATM   10  C10 UNL     1      23.589   0.773  52.437  1.00  0.00    -0.043 C 
HETATM   11  C11 UNL     1      22.355   1.141  51.970  1.00  0.00    -0.054 C 
HETATM   12  C12 UNL     1      22.502   1.885  50.646  1.00  0.00     0.062 C 
HETATM   13  C13 UNL     1      22.465   3.342  51.069  1.00  0.00    -0.025 C 
HETATM   14  C14 UNL     1      21.758   4.449  50.988  1.00  0.00    -0.010 C 
HETATM   15  C15 UNL     1      20.537   4.235  50.206  1.00  0.00     0.168 C 
HETATM   16  N3  UNL     1      19.375   4.367  51.114  1.00  0.00    -0.311 N 
HETATM   17  N4  UNL     1      19.789   3.572  52.176  1.00  0.00    -0.194 NA
HETATM   18  C16 UNL     1      20.325   2.411  52.168  1.00  0.00     0.129 C 
HETATM   19  H8  UNL     1      20.378  -2.495  54.525  1.00  0.00     0.160 HD
HETATM   20  H11 UNL     1      23.198  -0.803  55.375  1.00  0.00     0.318 HD
HETATM   21  H23 UNL     1      18.569   4.455  51.749  1.00  0.00     0.182 HD
ENDROOT
BRANCH   1  22
HETATM   22  C2  UNL     1      20.044   0.068  51.782  1.00  0.00     0.019 C 
HETATM   23  C1  UNL     1      19.010   0.566  50.850  1.00  0.00     0.007 C 
ENDBRANCH   1  22
TORSDOF 1
ENDMDL
MODEL 9
REMARK VINA RESULT:      -6.8      9.512     11.497
REMARK  1 active torsions:
REMARK  status: ('A' for Active; 'I' for Inactive)
REMARK    1  A    between atoms: C2_2  and  C3_3 
ROOT
HETATM    1  C3  UNL     1      33.071   5.981  47.609  1.00  0.00     0.038 C 
HETATM    2  C4  UNL     1      32.200   5.337  48.629  1.00  0.00     0.009 C 
HETATM    3  C5  UNL     1      31.798   6.115  49.622  1.00  0.00     0.082 C 
HETATM    4  N1  UNL     1      31.699   7.347  50.377  1.00  0.00    -0.375 N 
HETATM    5  C6  UNL     1      31.085   8.018  49.216  1.00  0.00     0.393 C 
HETATM    6  N2  UNL     1      30.220   6.990  48.683  1.00  0.00     0.109 N 
HETATM    7  C7  UNL     1      29.902   7.111  47.340  1.00  0.00     0.252 C 
HETATM    8  C8  UNL     1      29.491   8.494  46.917  1.00  0.00     0.044 C 
HETATM    9  C9  UNL     1      30.053   8.009  45.575  1.00  0.00     0.039 C 
HETATM   10  C10 UNL     1      31.096   7.246  46.415  1.00  0.00    -0.043 C 
HETATM   11  C11 UNL     1      32.344   6.699  46.558  1.00  0.00    -0.054 C 
HETATM   12  C12 UNL     1      33.127   6.849  45.257  1.00  0.00     0.062 C 
HETATM   13  C13 UNL     1      32.923   5.506  44.580  1.00  0.00    -0.025 C 
HETATM   14  C14 UNL     1      33.544   4.412  44.192  1.00  0.00    -0.010 C 
HETATM   15  C15 UNL     1      34.970   4.474  44.523  1.00  0.00     0.168 C 
HETATM   16  N3  UNL     1      35.253   3.450  45.555  1.00  0.00    -0.311 N 
HETATM   17  N4  UNL     1      34.217   3.697  46.449  1.00  0.00    -0.194 NA
HETATM   18  C16 UNL     1      33.782   4.806  46.910  1.00  0.00     0.129 C 
HETATM   19  H8  UNL     1      32.036   7.412  51.359  1.00  0.00     0.160 HD
HETATM   20  H11 UNL     1      29.408   6.829  49.286  1.00  0.00     0.318 HD
HETATM   21  H23 UNL     1      35.445   2.740  46.276  1.00  0.00     0.182 HD
ENDROOT
BRANCH   1  22
HETATM   22  C2  UNL     1      34.172   6.682  48.341  1.00  0.00     0.019 C 
HETATM   23  C1  UNL     1      35.325   5.903  48.842  1.00  0.00     0.007 C 
ENDBRANCH   1  22
TORSDOF 1
ENDMDL
