MODEL 1
REMARK VINA RESULT:      -9.0      0.000      0.000
REMARK  4 active torsions:
REMARK  status: ('A' for Active; 'I' for Inactive)
REMARK    1  A    between atoms: O1_2  and  C2_3 
REMARK    2  A    between atoms: C6_9  and  N3_10 
REMARK    3  A    between atoms: C11_16  and  S1_17 
REMARK    4  A    between atoms: S1_17  and  C12_18 
ROOT
HETATM    1  N3  UNL     1      21.962   1.517  51.543  1.00  0.00    -0.348 N 
HETATM    2  C7  UNL     1      22.257   1.271  50.146  1.00  0.00     0.152 C 
HETATM    3  C8  UNL     1      21.095   1.455  49.260  1.00  0.00    -0.009 C 
HETATM    4  C9  UNL     1      20.164   2.308  49.663  1.00  0.00     0.000 C 
HETATM    5  C10 UNL     1      20.180   3.087  50.905  1.00  0.00     0.161 A 
HETATM    6  N4  UNL     1      21.017   4.238  50.751  1.00  0.00    -0.273 NA
HETATM    7  C11 UNL     1      21.951   3.984  51.591  1.00  0.00     0.096 A 
HETATM    8  C18 UNL     1      21.216   2.704  51.906  1.00  0.00     0.173 A 
ENDROOT
BRANCH   1   9
HETATM    9  C6  UNL     1      22.346   0.689  52.650  1.00  0.00     0.140 A 
HETATM   10  N2  UNL     1      21.270   0.285  53.350  1.00  0.00    -0.224 NA
HETATM   11  C5  UNL     1      21.430  -0.507  54.450  1.00  0.00     0.236 A 
HETATM   12  N1  UNL     1      22.641  -0.911  54.873  1.00  0.00    -0.241 NA
HETATM   13  C4  UNL     1      23.720  -0.511  54.177  1.00  0.00     0.075 A 
HETATM   14  C3  UNL     1      25.016  -0.860  54.507  1.00  0.00     0.072 A 
HETATM   15  C19 UNL     1      23.585   0.289  53.063  1.00  0.00     0.042 A 
HETATM   16  C2  UNL     1      26.103  -0.417  53.747  1.00  0.00     0.108 A 
HETATM   17  C21 UNL     1      25.907   0.395  52.623  1.00  0.00     0.150 A 
HETATM   18  C20 UNL     1      24.620   0.753  52.279  1.00  0.00     0.062 A 
HETATM   19  F1  UNL     1      26.986   0.803  51.912  1.00  0.00    -0.203 F 
BRANCH  16  20
HETATM   20  O1  UNL     1      27.408  -0.757  54.064  1.00  0.00    -0.353 OA
HETATM   21  C1  UNL     1      28.219   0.127  54.819  1.00  0.00     0.210 C 
ENDBRANCH  16  20
ENDBRANCH   1   9
BRANCH   7  22
HETATM   22  S1  UNL     1      23.424   4.869  52.071  1.00  0.00    -0.073 SA
BRANCH  22  23
HETATM   23  C12 UNL     1      24.729   4.666  50.867  1.00  0.00     0.006 A 
HETATM   24  C13 UNL     1      25.071   5.866  50.231  1.00  0.00     0.019 A 
HETATM   25  C14 UNL     1      26.064   5.850  49.280  1.00  0.00     0.001 A 
HETATM   26  C15 UNL     1      26.754   4.721  48.905  1.00  0.00     0.000 A 
HETATM   27  C16 UNL     1      26.391   3.563  49.550  1.00  0.00     0.001 A 
HETATM   28  C17 UNL     1      25.404   3.518  50.511  1.00  0.00     0.019 A 
ENDBRANCH  22  23
ENDBRANCH   7  22
TORSDOF 4
ENDMDL
MODEL 2
REMARK VINA RESULT:      -8.6      1.935      3.083
REMARK  4 active torsions:
REMARK  status: ('A' for Active; 'I' for Inactive)
REMARK    1  A    between atoms: O1_2  and  C2_3 
REMARK    2  A    between atoms: C6_9  and  N3_10 
REMARK    3  A    between atoms: C11_16  and  S1_17 
REMARK    4  A    between atoms: S1_17  and  C12_18 
ROOT
HETATM    1  N3  UNL     1      22.680   1.997  51.248  1.00  0.00    -0.348 N 
HETATM    2  C7  UNL     1      21.905   1.006  50.530  1.00  0.00     0.152 C 
HETATM    3  C8  UNL     1      20.852   0.380  51.348  1.00  0.00    -0.009 C 
HETATM    4  C9  UNL     1      20.357   1.104  52.342  1.00  0.00     0.000 C 
HETATM    5  C10 UNL     1      20.755   2.467  52.706  1.00  0.00     0.161 A 
HETATM    6  N4  UNL     1      20.116   3.412  51.842  1.00  0.00    -0.273 NA
HETATM    7  C11 UNL     1      21.123   3.912  51.227  1.00  0.00     0.096 A 
HETATM    8  C18 UNL     1      21.988   2.986  52.048  1.00  0.00     0.173 A 
ENDROOT
BRANCH   1   9
HETATM    9  C6  UNL     1      24.110   2.119  51.250  1.00  0.00     0.140 A 
HETATM   10  N2  UNL     1      24.525   2.982  50.306  1.00  0.00    -0.224 NA
HETATM   11  C5  UNL     1      25.858   3.228  50.145  1.00  0.00     0.236 A 
HETATM   12  N1  UNL     1      26.794   2.632  50.905  1.00  0.00    -0.241 NA
HETATM   13  C4  UNL     1      26.385   1.769  51.851  1.00  0.00     0.075 A 
HETATM   14  C3  UNL     1      27.245   1.096  52.697  1.00  0.00     0.072 A 
HETATM   15  C19 UNL     1      25.044   1.504  52.034  1.00  0.00     0.042 A 
HETATM   16  C2  UNL     1      26.766   0.208  53.666  1.00  0.00     0.108 A 
HETATM   17  C21 UNL     1      25.392  -0.023  53.807  1.00  0.00     0.150 A 
HETATM   18  C20 UNL     1      24.518   0.641  52.971  1.00  0.00     0.062 A 
HETATM   19  F1  UNL     1      24.967  -0.889  54.758  1.00  0.00    -0.203 F 
BRANCH  16  20
HETATM   20  O1  UNL     1      27.616  -0.474  54.521  1.00  0.00    -0.353 OA
HETATM   21  C1  UNL     1      28.993  -0.142  54.582  1.00  0.00     0.210 C 
ENDBRANCH  16  20
ENDBRANCH   1   9
BRANCH   7  22
HETATM   22  S1  UNL     1      21.274   5.164  49.965  1.00  0.00    -0.073 SA
BRANCH  22  23
HETATM   23  C12 UNL     1      22.901   5.902  49.969  1.00  0.00     0.006 A 
HETATM   24  C13 UNL     1      23.480   5.945  48.695  1.00  0.00     0.019 A 
HETATM   25  C14 UNL     1      24.735   6.490  48.557  1.00  0.00     0.001 A 
HETATM   26  C15 UNL     1      25.472   7.003  49.599  1.00  0.00     0.000 A 
HETATM   27  C16 UNL     1      24.872   6.942  50.835  1.00  0.00     0.001 A 
HETATM   28  C17 UNL     1      23.616   6.408  51.033  1.00  0.00     0.019 A 
ENDBRANCH  22  23
ENDBRANCH   7  22
TORSDOF 4
ENDMDL
MODEL 3
REMARK VINA RESULT:      -8.5      2.308      3.681
REMARK  4 active torsions:
REMARK  status: ('A' for Active; 'I' for Inactive)
REMARK    1  A    between atoms: O1_2  and  C2_3 
REMARK    2  A    between atoms: C6_9  and  N3_10 
REMARK    3  A    between atoms: C11_16  and  S1_17 
REMARK    4  A    between atoms: S1_17  and  C12_18 
ROOT
HETATM    1  N3  UNL     1      22.645   1.886  51.331  1.00  0.00    -0.348 N 
HETATM    2  C7  UNL     1      21.852   1.025  50.478  1.00  0.00     0.152 C 
HETATM    3  C8  UNL     1      20.851   0.232  51.212  1.00  0.00    -0.009 C 
HETATM    4  C9  UNL     1      20.394   0.747  52.345  1.00  0.00     0.000 C 
HETATM    5  C10 UNL     1      20.788   2.028  52.937  1.00  0.00     0.161 A 
HETATM    6  N4  UNL     1      20.091   3.101  52.294  1.00  0.00    -0.273 NA
HETATM    7  C11 UNL     1      21.058   3.731  51.739  1.00  0.00     0.096 A 
HETATM    8  C18 UNL     1      21.978   2.692  52.333  1.00  0.00     0.173 A 
ENDROOT
BRANCH   1   9
HETATM    9  C6  UNL     1      24.071   2.041  51.291  1.00  0.00     0.140 A 
HETATM   10  N2  UNL     1      24.433   2.958  50.375  1.00  0.00    -0.224 NA
HETATM   11  C5  UNL     1      25.755   3.242  50.181  1.00  0.00     0.236 A 
HETATM   12  N1  UNL     1      26.730   2.634  50.879  1.00  0.00    -0.241 NA
HETATM   13  C4  UNL     1      26.373   1.717  51.796  1.00  0.00     0.075 A 
HETATM   14  C3  UNL     1      27.278   1.025  52.579  1.00  0.00     0.072 A 
HETATM   15  C19 UNL     1      25.046   1.412  52.012  1.00  0.00     0.042 A 
HETATM   16  C2  UNL     1      26.852   0.082  53.521  1.00  0.00     0.108 A 
HETATM   17  C21 UNL     1      25.490  -0.188  53.698  1.00  0.00     0.150 A 
HETATM   18  C20 UNL     1      24.572   0.494  52.924  1.00  0.00     0.062 A 
HETATM   19  F1  UNL     1      25.117  -1.107  54.619  1.00  0.00    -0.203 F 
BRANCH  16  20
HETATM   20  O1  UNL     1      27.746  -0.619  54.313  1.00  0.00    -0.353 OA
HETATM   21  C1  UNL     1      29.034  -0.092  54.583  1.00  0.00     0.210 C 
ENDBRANCH  16  20
ENDBRANCH   1   9
BRANCH   7  22
HETATM   22  S1  UNL     1      21.126   5.199  50.726  1.00  0.00    -0.073 SA
BRANCH  22  23
HETATM   23  C12 UNL     1      21.375   4.794  49.005  1.00  0.00     0.006 A 
HETATM   24  C13 UNL     1      20.554   3.747  48.569  1.00  0.00     0.019 A 
HETATM   25  C14 UNL     1      20.646   3.335  47.260  1.00  0.00     0.001 A 
HETATM   26  C15 UNL     1      21.501   3.888  46.336  1.00  0.00     0.000 A 
HETATM   27  C16 UNL     1      22.292   4.913  46.800  1.00  0.00     0.001 A 
HETATM   28  C17 UNL     1      22.243   5.368  48.100  1.00  0.00     0.019 A 
ENDBRANCH  22  23
ENDBRANCH   7  22
TORSDOF 4
ENDMDL
MODEL 4
REMARK VINA RESULT:      -8.4      2.266      4.947
REMARK  4 active torsions:
REMARK  status: ('A' for Active; 'I' for Inactive)
REMARK    1  A    between atoms: O1_2  and  C2_3 
REMARK    2  A    between atoms: C6_9  and  N3_10 
REMARK    3  A    between atoms: C11_16  and  S1_17 
REMARK    4  A    between atoms: S1_17  and  C12_18 
ROOT
HETATM    1  N3  UNL     1      23.137   3.491  51.185  1.00  0.00    -0.348 N 
HETATM    2  C7  UNL     1      22.432   3.966  52.357  1.00  0.00     0.152 C 
HETATM    3  C8  UNL     1      21.517   5.086  52.077  1.00  0.00    -0.009 C 
HETATM    4  C9  UNL     1      21.014   5.156  50.853  1.00  0.00     0.000 C 
HETATM    5  C10 UNL     1      21.280   4.226  49.751  1.00  0.00     0.161 A 
HETATM    6  N4  UNL     1      20.478   3.050  49.898  1.00  0.00    -0.273 NA
HETATM    7  C11 UNL     1      21.375   2.156  50.089  1.00  0.00     0.096 A 
HETATM    8  C18 UNL     1      22.395   3.261  49.963  1.00  0.00     0.173 A 
ENDROOT
BRANCH   1   9
HETATM    9  C6  UNL     1      24.541   3.205  51.097  1.00  0.00     0.140 A 
HETATM   10  N2  UNL     1      25.129   3.953  50.145  1.00  0.00    -0.224 NA
HETATM   11  C5  UNL     1      26.466   3.819  49.903  1.00  0.00     0.236 A 
HETATM   12  N1  UNL     1      27.237   2.955  50.588  1.00  0.00    -0.241 NA
HETATM   13  C4  UNL     1      26.653   2.206  51.540  1.00  0.00     0.075 A 
HETATM   14  C3  UNL     1      27.335   1.285  52.314  1.00  0.00     0.072 A 
HETATM   15  C19 UNL     1      25.305   2.322  51.805  1.00  0.00     0.042 A 
HETATM   16  C2  UNL     1      26.679   0.532  53.293  1.00  0.00     0.108 A 
HETATM   17  C21 UNL     1      25.306   0.692  53.519  1.00  0.00     0.150 A 
HETATM   18  C20 UNL     1      24.611   1.606  52.755  1.00  0.00     0.062 A 
HETATM   19  F1  UNL     1      24.708  -0.056  54.476  1.00  0.00    -0.203 F 
BRANCH  16  20
HETATM   20  O1  UNL     1      27.348  -0.394  54.076  1.00  0.00    -0.353 OA
HETATM   21  C1  UNL     1      28.757  -0.333  54.218  1.00  0.00     0.210 C 
ENDBRANCH  16  20
ENDBRANCH   1   9
BRANCH   7  22
HETATM   22  S1  UNL     1      21.294   0.395  50.367  1.00  0.00    -0.073 SA
BRANCH  22  23
HETATM   23  C12 UNL     1      21.378   0.005  52.108  1.00  0.00     0.006 A 
HETATM   24  C13 UNL     1      20.696   0.932  52.906  1.00  0.00     0.019 A 
HETATM   25  C14 UNL     1      20.683   0.748  54.269  1.00  0.00     0.001 A 
HETATM   26  C15 UNL     1      21.302  -0.298  54.912  1.00  0.00     0.000 A 
HETATM   27  C16 UNL     1      21.962  -1.187  54.097  1.00  0.00     0.001 A 
HETATM   28  C17 UNL     1      22.009  -1.054  52.725  1.00  0.00     0.019 A 
ENDBRANCH  22  23
ENDBRANCH   7  22
TORSDOF 4
ENDMDL
MODEL 5
REMARK VINA RESULT:      -8.2      1.871      4.398
REMARK  4 active torsions:
REMARK  status: ('A' for Active; 'I' for Inactive)
REMARK    1  A    between atoms: O1_2  and  C2_3 
REMARK    2  A    between atoms: C6_9  and  N3_10 
REMARK    3  A    between atoms: C11_16  and  S1_17 
REMARK    4  A    between atoms: S1_17  and  C12_18 
ROOT
HETATM    1  N3  UNL     1      23.285   2.898  51.632  1.00  0.00    -0.348 N 
HETATM    2  C7  UNL     1      22.625   4.076  52.154  1.00  0.00     0.152 C 
HETATM    3  C8  UNL     1      23.373   5.323  51.916  1.00  0.00    -0.009 C 
HETATM    4  C9  UNL     1      24.168   5.350  50.856  1.00  0.00     0.000 C 
HETATM    5  C10 UNL     1      24.374   4.260  49.898  1.00  0.00     0.161 A 
HETATM    6  N4  UNL     1      23.298   4.225  48.956  1.00  0.00    -0.273 NA
HETATM    7  C11 UNL     1      22.761   3.095  49.229  1.00  0.00     0.096 A 
HETATM    8  C18 UNL     1      23.824   2.931  50.288  1.00  0.00     0.173 A 
ENDROOT
BRANCH   1   9
HETATM    9  C6  UNL     1      23.468   1.652  52.320  1.00  0.00     0.140 A 
HETATM   10  N2  UNL     1      22.368   0.882  52.230  1.00  0.00    -0.224 NA
HETATM   11  C5  UNL     1      22.342  -0.344  52.829  1.00  0.00     0.236 A 
HETATM   12  N1  UNL     1      23.390  -0.826  53.520  1.00  0.00    -0.241 NA
HETATM   13  C4  UNL     1      24.492  -0.062  53.613  1.00  0.00     0.075 A 
HETATM   14  C3  UNL     1      25.634  -0.444  54.291  1.00  0.00     0.072 A 
HETATM   15  C19 UNL     1      24.544   1.180  53.017  1.00  0.00     0.042 A 
HETATM   16  C2  UNL     1      26.755   0.391  54.356  1.00  0.00     0.108 A 
HETATM   17  C21 UNL     1      26.751   1.643  53.730  1.00  0.00     0.150 A 
HETATM   18  C20 UNL     1      25.619   2.041  53.049  1.00  0.00     0.062 A 
HETATM   19  F1  UNL     1      27.856   2.422  53.815  1.00  0.00    -0.203 F 
BRANCH  16  20
HETATM   20  O1  UNL     1      27.906   0.021  55.032  1.00  0.00    -0.353 OA
HETATM   21  C1  UNL     1      29.040  -0.444  54.320  1.00  0.00     0.210 C 
ENDBRANCH  16  20
ENDBRANCH   1   9
BRANCH   7  22
HETATM   22  S1  UNL     1      21.358   2.223  48.553  1.00  0.00    -0.073 SA
BRANCH  22  23
HETATM   23  C12 UNL     1      20.028   2.107  49.739  1.00  0.00     0.006 A 
HETATM   24  C13 UNL     1      19.600   0.791  49.948  1.00  0.00     0.019 A 
HETATM   25  C14 UNL     1      18.579   0.561  50.840  1.00  0.00     0.001 A 
HETATM   26  C15 UNL     1      17.938   1.549  51.550  1.00  0.00     0.000 A 
HETATM   27  C16 UNL     1      18.384   2.829  51.318  1.00  0.00     0.001 A 
HETATM   28  C17 UNL     1      19.404   3.120  50.437  1.00  0.00     0.019 A 
ENDBRANCH  22  23
ENDBRANCH   7  22
TORSDOF 4
ENDMDL
MODEL 6
REMARK VINA RESULT:      -8.1      2.360      4.927
REMARK  4 active torsions:
REMARK  status: ('A' for Active; 'I' for Inactive)
REMARK    1  A    between atoms: O1_2  and  C2_3 
REMARK    2  A    between atoms: C6_9  and  N3_10 
REMARK    3  A    between atoms: C11_16  and  S1_17 
REMARK    4  A    between atoms: S1_17  and  C12_18 
ROOT
HETATM    1  N3  UNL     1      21.864   1.441  51.694  1.00  0.00    -0.348 N 
HETATM    2  C7  UNL     1      21.758   2.885  51.703  1.00  0.00     0.152 C 
HETATM    3  C8  UNL     1      22.328   3.523  50.503  1.00  0.00    -0.009 C 
HETATM    4  C9  UNL     1      22.332   2.805  49.389  1.00  0.00     0.000 C 
HETATM    5  C10 UNL     1      21.824   1.439  49.235  1.00  0.00     0.161 A 
HETATM    6  N4  UNL     1      20.400   1.458  49.091  1.00  0.00    -0.273 NA
HETATM    7  C11 UNL     1      20.030   0.847  50.153  1.00  0.00     0.096 A 
HETATM    8  C18 UNL     1      21.495   0.716  50.497  1.00  0.00     0.173 A 
ENDROOT
BRANCH   1   9
HETATM    9  C6  UNL     1      22.305   0.616  52.782  1.00  0.00     0.140 A 
HETATM   10  N2  UNL     1      21.264   0.193  53.523  1.00  0.00    -0.224 NA
HETATM   11  C5  UNL     1      21.480  -0.601  54.613  1.00  0.00     0.236 A 
HETATM   12  N1  UNL     1      22.713  -0.986  54.986  1.00  0.00    -0.241 NA
HETATM   13  C4  UNL     1      23.757  -0.567  54.249  1.00  0.00     0.075 A 
HETATM   14  C3  UNL     1      25.071  -0.895  54.526  1.00  0.00     0.072 A 
HETATM   15  C19 UNL     1      23.566   0.235  53.144  1.00  0.00     0.042 A 
HETATM   16  C2  UNL     1      26.120  -0.433  53.725  1.00  0.00     0.108 A 
HETATM   17  C21 UNL     1      25.867   0.380  52.613  1.00  0.00     0.150 A 
HETATM   18  C20 UNL     1      24.561   0.717  52.322  1.00  0.00     0.062 A 
HETATM   19  F1  UNL     1      26.909   0.807  51.862  1.00  0.00    -0.203 F 
BRANCH  16  20
HETATM   20  O1  UNL     1      27.441  -0.753  53.989  1.00  0.00    -0.353 OA
HETATM   21  C1  UNL     1      28.241   0.098  54.792  1.00  0.00     0.210 C 
ENDBRANCH  16  20
ENDBRANCH   1   9
BRANCH   7  22
HETATM   22  S1  UNL     1      18.429   0.411  50.808  1.00  0.00    -0.073 SA
BRANCH  22  23
HETATM   23  C12 UNL     1      17.495   1.862  51.270  1.00  0.00     0.006 A 
HETATM   24  C13 UNL     1      16.201   1.557  51.709  1.00  0.00     0.019 A 
HETATM   25  C14 UNL     1      15.375   2.586  52.097  1.00  0.00     0.001 A 
HETATM   26  C15 UNL     1      15.736   3.912  52.082  1.00  0.00     0.000 A 
HETATM   27  C16 UNL     1      17.013   4.173  51.644  1.00  0.00     0.001 A 
HETATM   28  C17 UNL     1      17.886   3.184  51.245  1.00  0.00     0.019 A 
ENDBRANCH  22  23
ENDBRANCH   7  22
TORSDOF 4
ENDMDL
MODEL 7
REMARK VINA RESULT:      -8.0      2.591      5.090
REMARK  4 active torsions:
REMARK  status: ('A' for Active; 'I' for Inactive)
REMARK    1  A    between atoms: O1_2  and  C2_3 
REMARK    2  A    between atoms: C6_9  and  N3_10 
REMARK    3  A    between atoms: C11_16  and  S1_17 
REMARK    4  A    between atoms: S1_17  and  C12_18 
ROOT
HETATM    1  N3  UNL     1      23.171   4.680  50.191  1.00  0.00    -0.348 N 
HETATM    2  C7  UNL     1      22.416   5.164  51.328  1.00  0.00     0.152 C 
HETATM    3  C8  UNL     1      21.740   6.449  51.080  1.00  0.00    -0.009 C 
HETATM    4  C9  UNL     1      21.409   6.718  49.825  1.00  0.00     0.000 C 
HETATM    5  C10 UNL     1      21.649   5.860  48.661  1.00  0.00     0.161 A 
HETATM    6  N4  UNL     1      20.652   4.836  48.592  1.00  0.00    -0.273 NA
HETATM    7  C11 UNL     1      21.359   3.784  48.775  1.00  0.00     0.096 A 
HETATM    8  C18 UNL     1      22.556   4.698  48.880  1.00  0.00     0.173 A 
ENDROOT
BRANCH   1   9
HETATM    9  C6  UNL     1      24.508   4.159  50.218  1.00  0.00     0.140 A 
HETATM   10  N2  UNL     1      25.299   4.809  49.345  1.00  0.00    -0.224 NA
HETATM   11  C5  UNL     1      26.611   4.452  49.218  1.00  0.00     0.236 A 
HETATM   12  N1  UNL     1      27.158   3.459  49.942  1.00  0.00    -0.241 NA
HETATM   13  C4  UNL     1      26.371   2.807  50.817  1.00  0.00     0.075 A 
HETATM   14  C3  UNL     1      26.813   1.773  51.620  1.00  0.00     0.072 A 
HETATM   15  C19 UNL     1      25.044   3.149  50.964  1.00  0.00     0.042 A 
HETATM   16  C2  UNL     1      25.952   1.129  52.515  1.00  0.00     0.108 A 
HETATM   17  C21 UNL     1      24.611   1.518  52.623  1.00  0.00     0.150 A 
HETATM   18  C20 UNL     1      24.153   2.549  51.828  1.00  0.00     0.062 A 
HETATM   19  F1  UNL     1      23.809   0.871  53.502  1.00  0.00    -0.203 F 
BRANCH  16  20
HETATM   20  O1  UNL     1      26.380   0.092  53.326  1.00  0.00    -0.353 OA
HETATM   21  C1  UNL     1      26.984   0.361  54.580  1.00  0.00     0.210 C 
ENDBRANCH  16  20
ENDBRANCH   1   9
BRANCH   7  22
HETATM   22  S1  UNL     1      20.954   2.048  48.847  1.00  0.00    -0.073 SA
BRANCH  22  23
HETATM   23  C12 UNL     1      20.859   1.468  50.534  1.00  0.00     0.006 A 
HETATM   24  C13 UNL     1      20.368   2.440  51.414  1.00  0.00     0.019 A 
HETATM   25  C14 UNL     1      20.244   2.124  52.747  1.00  0.00     0.001 A 
HETATM   26  C15 UNL     1      20.573   0.901  53.283  1.00  0.00     0.000 A 
HETATM   27  C16 UNL     1      21.052  -0.028  52.389  1.00  0.00     0.001 A 
HETATM   28  C17 UNL     1      21.197   0.232  51.043  1.00  0.00     0.019 A 
ENDBRANCH  22  23
ENDBRANCH   7  22
TORSDOF 4
ENDMDL
MODEL 8
REMARK VINA RESULT:      -7.9      2.656      5.273
REMARK  4 active torsions:
REMARK  status: ('A' for Active; 'I' for Inactive)
REMARK    1  A    between atoms: O1_2  and  C2_3 
REMARK    2  A    between atoms: C6_9  and  N3_10 
REMARK    3  A    between atoms: C11_16  and  S1_17 
REMARK    4  A    between atoms: S1_17  and  C12_18 
ROOT
HETATM    1  N3  UNL     1      22.332   1.560  51.439  1.00  0.00    -0.348 N 
HETATM    2  C7  UNL     1      22.772   2.922  51.214  1.00  0.00     0.152 C 
HETATM    3  C8  UNL     1      23.254   3.165  49.844  1.00  0.00    -0.009 C 
HETATM    4  C9  UNL     1      22.745   2.402  48.887  1.00  0.00     0.000 C 
HETATM    5  C10 UNL     1      21.747   1.343  49.060  1.00  0.00     0.161 A 
HETATM    6  N4  UNL     1      20.438   1.912  49.156  1.00  0.00    -0.273 NA
HETATM    7  C11 UNL     1      20.115   1.601  50.355  1.00  0.00     0.096 A 
HETATM    8  C18 UNL     1      21.464   0.932  50.464  1.00  0.00     0.173 A 
ENDROOT
BRANCH   1   9
HETATM    9  C6  UNL     1      22.667   0.735  52.563  1.00  0.00     0.140 A 
HETATM   10  N2  UNL     1      21.565   0.378  53.248  1.00  0.00    -0.224 NA
HETATM   11  C5  UNL     1      21.677  -0.406  54.361  1.00  0.00     0.236 A 
HETATM   12  N1  UNL     1      22.865  -0.845  54.811  1.00  0.00    -0.241 NA
HETATM   13  C4  UNL     1      23.970  -0.492  54.130  1.00  0.00     0.075 A 
HETATM   14  C3  UNL     1      25.247  -0.880  54.489  1.00  0.00     0.072 A 
HETATM   15  C19 UNL     1      23.884   0.298  53.004  1.00  0.00     0.042 A 
HETATM   16  C2  UNL     1      26.363  -0.485  53.743  1.00  0.00     0.108 A 
HETATM   17  C21 UNL     1      26.216   0.318  52.606  1.00  0.00     0.150 A 
HETATM   18  C20 UNL     1      24.947   0.715  52.234  1.00  0.00     0.062 A 
HETATM   19  F1  UNL     1      27.320   0.679  51.911  1.00  0.00    -0.203 F 
BRANCH  16  20
HETATM   20  O1  UNL     1      27.648  -0.867  54.090  1.00  0.00    -0.353 OA
HETATM   21  C1  UNL     1      28.456  -0.025  54.895  1.00  0.00     0.210 C 
ENDBRANCH  16  20
ENDBRANCH   1   9
BRANCH   7  22
HETATM   22  S1  UNL     1      18.655   1.902  51.336  1.00  0.00    -0.073 SA
BRANCH  22  23
HETATM   23  C12 UNL     1      17.553   0.496  51.314  1.00  0.00     0.006 A 
HETATM   24  C13 UNL     1      16.887   0.347  50.092  1.00  0.00     0.019 A 
HETATM   25  C14 UNL     1      16.007  -0.699  49.941  1.00  0.00     0.001 A 
HETATM   26  C15 UNL     1      15.731  -1.622  50.923  1.00  0.00     0.000 A 
HETATM   27  C16 UNL     1      16.403  -1.444  52.109  1.00  0.00     0.001 A 
HETATM   28  C17 UNL     1      17.297  -0.415  52.317  1.00  0.00     0.019 A 
ENDBRANCH  22  23
ENDBRANCH   7  22
TORSDOF 4
ENDMDL
MODEL 9
REMARK VINA RESULT:      -7.8      1.975      2.585
REMARK  4 active torsions:
REMARK  status: ('A' for Active; 'I' for Inactive)
REMARK    1  A    between atoms: O1_2  and  C2_3 
REMARK    2  A    between atoms: C6_9  and  N3_10 
REMARK    3  A    between atoms: C11_16  and  S1_17 
REMARK    4  A    between atoms: S1_17  and  C12_18 
ROOT
HETATM    1  N3  UNL     1      22.190   2.715  49.827  1.00  0.00    -0.348 N 
HETATM    2  C7  UNL     1      22.634   2.882  48.459  1.00  0.00     0.152 C 
HETATM    3  C8  UNL     1      21.572   2.651  47.464  1.00  0.00    -0.009 C 
HETATM    4  C9  UNL     1      20.327   2.885  47.854  1.00  0.00     0.000 C 
HETATM    5  C10 UNL     1      19.905   3.351  49.178  1.00  0.00     0.161 A 
HETATM    6  N4  UNL     1      20.089   4.767  49.280  1.00  0.00    -0.273 NA
HETATM    7  C11 UNL     1      20.987   4.839  50.190  1.00  0.00     0.096 A 
HETATM    8  C18 UNL     1      20.947   3.331  50.243  1.00  0.00     0.173 A 
ENDROOT
BRANCH   1   9
HETATM    9  C6  UNL     1      22.872   1.985  50.858  1.00  0.00     0.140 A 
HETATM   10  N2  UNL     1      22.037   1.135  51.483  1.00  0.00    -0.224 NA
HETATM   11  C5  UNL     1      22.498   0.354  52.504  1.00  0.00     0.236 A 
HETATM   12  N1  UNL     1      23.776   0.398  52.920  1.00  0.00    -0.241 NA
HETATM   13  C4  UNL     1      24.614   1.245  52.297  1.00  0.00     0.075 A 
HETATM   14  C3  UNL     1      25.950   1.382  52.628  1.00  0.00     0.072 A 
HETATM   15  C19 UNL     1      24.174   2.044  51.264  1.00  0.00     0.042 A 
HETATM   16  C2  UNL     1      26.779   2.278  51.947  1.00  0.00     0.108 A 
HETATM   17  C21 UNL     1      26.277   3.066  50.903  1.00  0.00     0.150 A 
HETATM   18  C20 UNL     1      24.947   2.943  50.560  1.00  0.00     0.062 A 
HETATM   19  F1  UNL     1      27.112   3.922  50.268  1.00  0.00    -0.203 F 
BRANCH  16  20
HETATM   20  O1  UNL     1      28.119   2.426  52.267  1.00  0.00    -0.353 OA
HETATM   21  C1  UNL     1      28.560   2.274  53.605  1.00  0.00     0.210 C 
ENDBRANCH  16  20
ENDBRANCH   1   9
BRANCH   7  22
HETATM   22  S1  UNL     1      21.826   6.212  50.962  1.00  0.00    -0.073 SA
BRANCH  22  23
HETATM   23  C12 UNL     1      23.444   6.471  50.252  1.00  0.00     0.006 A 
HETATM   24  C13 UNL     1      23.443   6.387  48.854  1.00  0.00     0.019 A 
HETATM   25  C14 UNL     1      24.628   6.567  48.180  1.00  0.00     0.001 A 
HETATM   26  C15 UNL     1      25.832   6.829  48.792  1.00  0.00     0.000 A 
HETATM   27  C16 UNL     1      25.794   6.904  50.164  1.00  0.00     0.001 A 
HETATM   28  C17 UNL     1      24.636   6.733  50.893  1.00  0.00     0.019 A 
ENDBRANCH  22  23
ENDBRANCH   7  22
TORSDOF 4
ENDMDL
