MODEL 1
REMARK VINA RESULT:      -6.7      0.000      0.000
REMARK  9 active torsions:
REMARK  status: ('A' for Active; 'I' for Inactive)
REMARK    1  A    between atoms: O1_2  and  C2_3 
REMARK    2  A    between atoms: C8_9  and  C9_10 
REMARK    3  A    between atoms: C9_10  and  C10_11 
REMARK    4  A    between atoms: C10_11  and  N1_12 
REMARK    5  A    between atoms: N1_12  and  C11_13 
REMARK    6  A    between atoms: C11_13  and  C12_14 
REMARK    7  A    between atoms: C11_13  and  O2_17 
REMARK    8  A    between atoms: C11_13  and  C15_19 
REMARK    9  A    between atoms: C13_15  and  N2_16 
ROOT
HETATM    1  N1  UNL     1      25.667   0.620  52.003  1.00  0.00     0.129 N 
HETATM    2  H14 UNL     1      25.887  -0.329  51.576  1.00  0.00     0.320 HD
ENDROOT
BRANCH   1   3
HETATM    3  C10 UNL     1      24.373   0.550  52.617  1.00  0.00     0.279 C 
BRANCH   3   4
HETATM    4  C9  UNL     1      23.464   1.713  52.337  1.00  0.00     0.072 C 
BRANCH   4   5
HETATM    5  C8  UNL     1      23.022   1.828  50.948  1.00  0.00    -0.017 A 
HETATM    6  C2  UNL     1      23.685   2.678  50.059  1.00  0.00     0.075 A 
HETATM    7  C3  UNL     1      23.234   2.729  48.757  1.00  0.00     0.037 A 
HETATM    8  C4  UNL     1      22.175   2.007  48.254  1.00  0.00     0.003 A 
HETATM    9  C5  UNL     1      21.538   1.177  49.151  1.00  0.00     0.007 A 
HETATM   10  C6  UNL     1      21.964   1.100  50.470  1.00  0.00    -0.053 A 
HETATM   11  C7  UNL     1      21.193   0.161  51.355  1.00  0.00     0.049 C 
BRANCH   6  12
HETATM   12  O1  UNL     1      24.745   3.403  50.572  1.00  0.00    -0.355 OA
HETATM   13  C1  UNL     1      25.117   4.613  49.952  1.00  0.00     0.210 C 
ENDBRANCH   6  12
ENDBRANCH   4   5
ENDBRANCH   3   4
ENDBRANCH   1   3
BRANCH   1  14
HETATM   14  C11 UNL     1      26.665   0.735  53.095  1.00  0.00     0.319 C 
BRANCH  14  15
HETATM   15  C12 UNL     1      27.487  -0.494  53.068  1.00  0.00     0.067 C 
HETATM   16  C13 UNL     1      27.348  -1.790  52.840  1.00  0.00     0.081 C 
BRANCH  16  17
HETATM   17  N2  UNL     1      28.134  -2.991  52.812  1.00  0.00    -0.408 N 
HETATM   18  H17 UNL     1      28.424  -3.505  51.929  1.00  0.00     0.155 HD
HETATM   19  H18 UNL     1      28.438  -3.380  53.736  1.00  0.00     0.155 HD
ENDBRANCH  16  17
ENDBRANCH  14  15
BRANCH  14  20
HETATM   20  O2  UNL     1      25.919   0.884  54.233  1.00  0.00    -0.350 OA
HETATM   21  C14 UNL     1      26.303   0.166  55.328  1.00  0.00     0.205 C 
ENDBRANCH  14  20
BRANCH  14  22
HETATM   22  C15 UNL     1      27.548   1.893  52.773  1.00  0.00     0.069 C 
HETATM   23  C16 UNL     1      28.737   2.089  53.676  1.00  0.00     0.070 C 
HETATM   24  N3  UNL     1      27.453   2.764  51.823  1.00  0.00    -0.304 NA
HETATM   25  H25 UNL     1      28.101   3.524  51.677  1.00  0.00     0.186 HD
ENDBRANCH  14  22
ENDBRANCH   1  14
TORSDOF 9
ENDMDL
MODEL 2
REMARK VINA RESULT:      -6.6      2.300      4.135
REMARK  9 active torsions:
REMARK  status: ('A' for Active; 'I' for Inactive)
REMARK    1  A    between atoms: O1_2  and  C2_3 
REMARK    2  A    between atoms: C8_9  and  C9_10 
REMARK    3  A    between atoms: C9_10  and  C10_11 
REMARK    4  A    between atoms: C10_11  and  N1_12 
REMARK    5  A    between atoms: N1_12  and  C11_13 
REMARK    6  A    between atoms: C11_13  and  C12_14 
REMARK    7  A    between atoms: C11_13  and  O2_17 
REMARK    8  A    between atoms: C11_13  and  C15_19 
REMARK    9  A    between atoms: C13_15  and  N2_16 
ROOT
HETATM    1  N1  UNL     1      26.463   1.291  51.398  1.00  0.00     0.129 N 
HETATM    2  H14 UNL     1      25.511   1.012  51.014  1.00  0.00     0.320 HD
ENDROOT
BRANCH   1   3
HETATM    3  C10 UNL     1      26.741   2.636  50.984  1.00  0.00     0.279 C 
BRANCH   3   4
HETATM    4  C9  UNL     1      26.565   2.907  49.517  1.00  0.00     0.072 C 
BRANCH   4   5
HETATM    5  C8  UNL     1      26.155   4.271  49.188  1.00  0.00    -0.017 A 
HETATM    6  C2  UNL     1      27.097   5.215  48.769  1.00  0.00     0.075 A 
HETATM    7  C3  UNL     1      26.648   6.479  48.453  1.00  0.00     0.037 A 
HETATM    8  C4  UNL     1      25.337   6.896  48.519  1.00  0.00     0.003 A 
HETATM    9  C5  UNL     1      24.428   5.948  48.937  1.00  0.00     0.007 A 
HETATM   10  C6  UNL     1      24.845   4.664  49.262  1.00  0.00    -0.053 A 
HETATM   11  C7  UNL     1      23.765   3.717  49.705  1.00  0.00     0.049 C 
BRANCH   6  12
HETATM   12  O1  UNL     1      28.412   4.790  48.708  1.00  0.00    -0.355 OA
HETATM   13  C1  UNL     1      29.387   5.644  48.154  1.00  0.00     0.210 C 
ENDBRANCH   6  12
ENDBRANCH   4   5
ENDBRANCH   3   4
ENDBRANCH   1   3
BRANCH   1  14
HETATM   14  C11 UNL     1      26.237   1.321  52.864  1.00  0.00     0.319 C 
BRANCH  14  15
HETATM   15  C12 UNL     1      27.403   1.998  53.472  1.00  0.00     0.067 C 
HETATM   16  C13 UNL     1      28.596   1.701  53.960  1.00  0.00     0.081 C 
BRANCH  16  17
HETATM   17  N2  UNL     1      29.733   2.345  54.552  1.00  0.00    -0.408 N 
HETATM   18  H17 UNL     1      30.659   1.869  54.763  1.00  0.00     0.155 HD
HETATM   19  H18 UNL     1      29.631   3.361  54.790  1.00  0.00     0.155 HD
ENDBRANCH  16  17
ENDBRANCH  14  15
BRANCH  14  20
HETATM   20  O2  UNL     1      26.105   0.006  53.223  1.00  0.00    -0.350 OA
HETATM   21  C14 UNL     1      26.613  -0.927  52.367  1.00  0.00     0.205 C 
ENDBRANCH  14  20
BRANCH  14  22
HETATM   22  C15 UNL     1      25.029   2.159  53.113  1.00  0.00     0.069 C 
HETATM   23  C16 UNL     1      23.705   1.530  52.768  1.00  0.00     0.070 C 
HETATM   24  N3  UNL     1      24.940   3.357  53.589  1.00  0.00    -0.304 NA
HETATM   25  H25 UNL     1      24.072   3.855  53.725  1.00  0.00     0.186 HD
ENDBRANCH  14  22
ENDBRANCH   1  14
TORSDOF 9
ENDMDL
MODEL 3
REMARK VINA RESULT:      -6.5      2.176      3.553
REMARK  9 active torsions:
REMARK  status: ('A' for Active; 'I' for Inactive)
REMARK    1  A    between atoms: O1_2  and  C2_3 
REMARK    2  A    between atoms: C8_9  and  C9_10 
REMARK    3  A    between atoms: C9_10  and  C10_11 
REMARK    4  A    between atoms: C10_11  and  N1_12 
REMARK    5  A    between atoms: N1_12  and  C11_13 
REMARK    6  A    between atoms: C11_13  and  C12_14 
REMARK    7  A    between atoms: C11_13  and  O2_17 
REMARK    8  A    between atoms: C11_13  and  C15_19 
REMARK    9  A    between atoms: C13_15  and  N2_16 
ROOT
HETATM    1  N1  UNL     1      26.358  -0.641  54.170  1.00  0.00     0.129 N 
HETATM    2  H14 UNL     1      26.753  -0.446  55.137  1.00  0.00     0.320 HD
ENDROOT
BRANCH   1   3
HETATM    3  C10 UNL     1      25.174   0.150  53.997  1.00  0.00     0.279 C 
BRANCH   3   4
HETATM    4  C9  UNL     1      24.095  -0.480  53.162  1.00  0.00     0.072 C 
BRANCH   4   5
HETATM    5  C8  UNL     1      22.813   0.220  53.182  1.00  0.00    -0.017 A 
HETATM    6  C2  UNL     1      22.583   1.308  52.335  1.00  0.00     0.075 A 
HETATM    7  C3  UNL     1      21.347   1.916  52.385  1.00  0.00     0.037 A 
HETATM    8  C4  UNL     1      20.309   1.538  53.208  1.00  0.00     0.003 A 
HETATM    9  C5  UNL     1      20.561   0.464  54.033  1.00  0.00     0.007 A 
HETATM   10  C6  UNL     1      21.794  -0.172  54.010  1.00  0.00    -0.053 A 
HETATM   11  C7  UNL     1      21.952  -1.331  54.954  1.00  0.00     0.049 C 
BRANCH   6  12
HETATM   12  O1  UNL     1      23.631   1.683  51.514  1.00  0.00    -0.355 OA
HETATM   13  C1  UNL     1      23.351   2.302  50.279  1.00  0.00     0.210 C 
ENDBRANCH   6  12
ENDBRANCH   4   5
ENDBRANCH   3   4
ENDBRANCH   1   3
BRANCH   1  14
HETATM   14  C11 UNL     1      27.393  -0.082  53.266  1.00  0.00     0.319 C 
BRANCH  14  15
HETATM   15  C12 UNL     1      26.888   1.219  52.774  1.00  0.00     0.067 C 
HETATM   16  C13 UNL     1      27.029   2.022  51.733  1.00  0.00     0.081 C 
BRANCH  16  17
HETATM   17  N2  UNL     1      26.548   3.283  51.245  1.00  0.00    -0.408 N 
HETATM   18  H17 UNL     1      26.887   3.759  50.358  1.00  0.00     0.155 HD
HETATM   19  H18 UNL     1      25.808   3.760  51.813  1.00  0.00     0.155 HD
ENDBRANCH  16  17
ENDBRANCH  14  15
BRANCH  14  20
HETATM   20  O2  UNL     1      27.548  -1.027  52.287  1.00  0.00    -0.350 OA
HETATM   21  C14 UNL     1      27.202  -2.309  52.599  1.00  0.00     0.205 C 
ENDBRANCH  14  20
BRANCH  14  22
HETATM   22  C15 UNL     1      28.613   0.171  54.086  1.00  0.00     0.069 C 
HETATM   23  C16 UNL     1      29.885  -0.467  53.594  1.00  0.00     0.070 C 
HETATM   24  N3  UNL     1      28.750   0.867  55.166  1.00  0.00    -0.304 NA
HETATM   25  H25 UNL     1      29.621   0.986  55.662  1.00  0.00     0.186 HD
ENDBRANCH  14  22
ENDBRANCH   1  14
TORSDOF 9
ENDMDL
MODEL 4
REMARK VINA RESULT:      -6.4      2.262      4.252
REMARK  9 active torsions:
REMARK  status: ('A' for Active; 'I' for Inactive)
REMARK    1  A    between atoms: O1_2  and  C2_3 
REMARK    2  A    between atoms: C8_9  and  C9_10 
REMARK    3  A    between atoms: C9_10  and  C10_11 
REMARK    4  A    between atoms: C10_11  and  N1_12 
REMARK    5  A    between atoms: N1_12  and  C11_13 
REMARK    6  A    between atoms: C11_13  and  C12_14 
REMARK    7  A    between atoms: C11_13  and  O2_17 
REMARK    8  A    between atoms: C11_13  and  C15_19 
REMARK    9  A    between atoms: C13_15  and  N2_16 
ROOT
HETATM    1  N1  UNL     1      26.970   1.529  51.755  1.00  0.00     0.129 N 
HETATM    2  H14 UNL     1      26.306   0.859  51.264  1.00  0.00     0.320 HD
ENDROOT
BRANCH   1   3
HETATM    3  C10 UNL     1      26.735   2.850  51.250  1.00  0.00     0.279 C 
BRANCH   3   4
HETATM    4  C9  UNL     1      26.513   2.942  49.767  1.00  0.00     0.072 C 
BRANCH   4   5
HETATM    5  C8  UNL     1      26.069   4.250  49.291  1.00  0.00    -0.017 A 
HETATM    6  C2  UNL     1      26.994   5.187  48.820  1.00  0.00     0.075 A 
HETATM    7  C3  UNL     1      26.514   6.396  48.365  1.00  0.00     0.037 A 
HETATM    8  C4  UNL     1      25.186   6.764  48.335  1.00  0.00     0.003 A 
HETATM    9  C5  UNL     1      24.295   5.823  48.806  1.00  0.00     0.007 A 
HETATM   10  C6  UNL     1      24.743   4.595  49.271  1.00  0.00    -0.053 A 
HETATM   11  C7  UNL     1      23.680   3.651  49.759  1.00  0.00     0.049 C 
BRANCH   6  12
HETATM   12  O1  UNL     1      28.325   4.812  48.855  1.00  0.00    -0.355 OA
HETATM   13  C1  UNL     1      29.283   5.610  48.199  1.00  0.00     0.210 C 
ENDBRANCH   6  12
ENDBRANCH   4   5
ENDBRANCH   3   4
ENDBRANCH   1   3
BRANCH   1  14
HETATM   14  C11 UNL     1      26.492   1.505  53.160  1.00  0.00     0.319 C 
BRANCH  14  15
HETATM   15  C12 UNL     1      25.068   1.906  53.144  1.00  0.00     0.067 C 
HETATM   16  C13 UNL     1      23.884   1.395  52.852  1.00  0.00     0.081 C 
BRANCH  16  17
HETATM   17  N2  UNL     1      22.499   1.771  52.830  1.00  0.00    -0.408 N 
HETATM   18  H17 UNL     1      22.113   2.635  52.347  1.00  0.00     0.155 HD
HETATM   19  H18 UNL     1      21.829   1.141  53.331  1.00  0.00     0.155 HD
ENDBRANCH  16  17
ENDBRANCH  14  15
BRANCH  14  20
HETATM   20  O2  UNL     1      27.311   2.380  53.821  1.00  0.00    -0.350 OA
HETATM   21  C14 UNL     1      28.649   2.113  53.808  1.00  0.00     0.205 C 
ENDBRANCH  14  20
BRANCH  14  22
HETATM   22  C15 UNL     1      26.573   0.094  53.636  1.00  0.00     0.069 C 
HETATM   23  C16 UNL     1      26.893  -0.939  52.589  1.00  0.00     0.070 C 
HETATM   24  N3  UNL     1      26.414  -0.385  54.825  1.00  0.00    -0.304 NA
HETATM   25  H25 UNL     1      26.486  -1.364  55.061  1.00  0.00     0.186 HD
ENDBRANCH  14  22
ENDBRANCH   1  14
TORSDOF 9
ENDMDL
MODEL 5
REMARK VINA RESULT:      -6.4      2.023      4.382
REMARK  9 active torsions:
REMARK  status: ('A' for Active; 'I' for Inactive)
REMARK    1  A    between atoms: O1_2  and  C2_3 
REMARK    2  A    between atoms: C8_9  and  C9_10 
REMARK    3  A    between atoms: C9_10  and  C10_11 
REMARK    4  A    between atoms: C10_11  and  N1_12 
REMARK    5  A    between atoms: N1_12  and  C11_13 
REMARK    6  A    between atoms: C11_13  and  C12_14 
REMARK    7  A    between atoms: C11_13  and  O2_17 
REMARK    8  A    between atoms: C11_13  and  C15_19 
REMARK    9  A    between atoms: C13_15  and  N2_16 
ROOT
HETATM    1  N1  UNL     1      26.460   1.284  51.417  1.00  0.00     0.129 N 
HETATM    2  H14 UNL     1      25.497   1.053  51.031  1.00  0.00     0.320 HD
ENDROOT
BRANCH   1   3
HETATM    3  C10 UNL     1      26.788   2.629  51.042  1.00  0.00     0.279 C 
BRANCH   3   4
HETATM    4  C9  UNL     1      26.387   3.024  49.649  1.00  0.00     0.072 C 
BRANCH   4   5
HETATM    5  C8  UNL     1      25.973   4.418  49.500  1.00  0.00    -0.017 A 
HETATM    6  C2  UNL     1      24.715   4.837  49.943  1.00  0.00     0.075 A 
HETATM    7  C3  UNL     1      24.389   6.168  49.793  1.00  0.00     0.037 A 
HETATM    8  C4  UNL     1      25.204   7.129  49.237  1.00  0.00     0.003 A 
HETATM    9  C5  UNL     1      26.438   6.690  48.807  1.00  0.00     0.007 A 
HETATM   10  C6  UNL     1      26.801   5.357  48.942  1.00  0.00    -0.053 A 
HETATM   11  C7  UNL     1      28.170   4.995  48.438  1.00  0.00     0.049 C 
BRANCH   6  12
HETATM   12  O1  UNL     1      23.900   3.867  50.497  1.00  0.00    -0.355 OA
HETATM   13  C1  UNL     1      22.592   3.698  50.000  1.00  0.00     0.210 C 
ENDBRANCH   6  12
ENDBRANCH   4   5
ENDBRANCH   3   4
ENDBRANCH   1   3
BRANCH   1  14
HETATM   14  C11 UNL     1      26.244   1.278  52.885  1.00  0.00     0.319 C 
BRANCH  14  15
HETATM   15  C12 UNL     1      27.400   1.968  53.499  1.00  0.00     0.067 C 
HETATM   16  C13 UNL     1      28.593   1.682  53.994  1.00  0.00     0.081 C 
BRANCH  16  17
HETATM   17  N2  UNL     1      29.720   2.339  54.593  1.00  0.00    -0.408 N 
HETATM   18  H17 UNL     1      29.811   2.564  55.627  1.00  0.00     0.155 HD
HETATM   19  H18 UNL     1      30.504   2.611  53.953  1.00  0.00     0.155 HD
ENDBRANCH  16  17
ENDBRANCH  14  15
BRANCH  14  20
HETATM   20  O2  UNL     1      26.143  -0.046  53.217  1.00  0.00    -0.350 OA
HETATM   21  C14 UNL     1      26.637  -0.952  52.323  1.00  0.00     0.205 C 
ENDBRANCH  14  20
BRANCH  14  22
HETATM   22  C15 UNL     1      25.020   2.084  53.159  1.00  0.00     0.069 C 
HETATM   23  C16 UNL     1      23.705   1.377  52.964  1.00  0.00     0.070 C 
HETATM   24  N3  UNL     1      24.911   3.311  53.548  1.00  0.00    -0.304 NA
HETATM   25  H25 UNL     1      24.034   3.783  53.711  1.00  0.00     0.186 HD
ENDBRANCH  14  22
ENDBRANCH   1  14
TORSDOF 9
ENDMDL
MODEL 6
REMARK VINA RESULT:      -6.3      2.820      6.013
REMARK  9 active torsions:
REMARK  status: ('A' for Active; 'I' for Inactive)
REMARK    1  A    between atoms: O1_2  and  C2_3 
REMARK    2  A    between atoms: C8_9  and  C9_10 
REMARK    3  A    between atoms: C9_10  and  C10_11 
REMARK    4  A    between atoms: C10_11  and  N1_12 
REMARK    5  A    between atoms: N1_12  and  C11_13 
REMARK    6  A    between atoms: C11_13  and  C12_14 
REMARK    7  A    between atoms: C11_13  and  O2_17 
REMARK    8  A    between atoms: C11_13  and  C15_19 
REMARK    9  A    between atoms: C13_15  and  N2_16 
ROOT
HETATM    1  N1  UNL     1      25.908   4.318  50.755  1.00  0.00     0.129 N 
HETATM    2  H14 UNL     1      26.116   4.923  51.604  1.00  0.00     0.320 HD
ENDROOT
BRANCH   1   3
HETATM    3  C10 UNL     1      24.930   3.337  51.127  1.00  0.00     0.279 C 
BRANCH   3   4
HETATM    4  C9  UNL     1      25.025   2.838  52.541  1.00  0.00     0.072 C 
BRANCH   4   5
HETATM    5  C8  UNL     1      25.515   1.468  52.680  1.00  0.00    -0.017 A 
HETATM    6  C2  UNL     1      26.886   1.197  52.658  1.00  0.00     0.075 A 
HETATM    7  C3  UNL     1      27.288  -0.112  52.813  1.00  0.00     0.037 A 
HETATM    8  C4  UNL     1      26.445  -1.187  52.988  1.00  0.00     0.003 A 
HETATM    9  C5  UNL     1      25.098  -0.893  53.005  1.00  0.00     0.007 A 
HETATM   10  C6  UNL     1      24.657   0.413  52.852  1.00  0.00    -0.053 A 
HETATM   11  C7  UNL     1      23.167   0.611  52.886  1.00  0.00     0.049 C 
BRANCH   6  12
HETATM   12  O1  UNL     1      27.727   2.281  52.479  1.00  0.00    -0.355 OA
HETATM   13  C1  UNL     1      28.683   2.583  53.470  1.00  0.00     0.210 C 
ENDBRANCH   6  12
ENDBRANCH   4   5
ENDBRANCH   3   4
ENDBRANCH   1   3
BRANCH   1  14
HETATM   14  C11 UNL     1      25.246   5.264  49.823  1.00  0.00     0.319 C 
BRANCH  14  15
HETATM   15  C12 UNL     1      23.951   4.663  49.436  1.00  0.00     0.067 C 
HETATM   16  C13 UNL     1      22.838   4.996  48.804  1.00  0.00     0.081 C 
BRANCH  16  17
HETATM   17  N2  UNL     1      21.577   4.425  48.423  1.00  0.00    -0.408 N 
HETATM   18  H17 UNL     1      20.969   4.775  47.626  1.00  0.00     0.155 HD
HETATM   19  H18 UNL     1      21.243   3.603  48.980  1.00  0.00     0.155 HD
ENDBRANCH  16  17
ENDBRANCH  14  15
BRANCH  14  20
HETATM   20  O2  UNL     1      26.129   5.406  48.786  1.00  0.00    -0.350 OA
HETATM   21  C14 UNL     1      27.303   4.715  48.868  1.00  0.00     0.205 C 
ENDBRANCH  14  20
BRANCH  14  22
HETATM   22  C15 UNL     1      24.970   6.518  50.581  1.00  0.00     0.069 C 
HETATM   23  C16 UNL     1      25.306   7.805  49.876  1.00  0.00     0.070 C 
HETATM   24  N3  UNL     1      24.475   6.674  51.765  1.00  0.00    -0.304 NA
HETATM   25  H25 UNL     1      24.321   7.569  52.206  1.00  0.00     0.186 HD
ENDBRANCH  14  22
ENDBRANCH   1  14
TORSDOF 9
ENDMDL
MODEL 7
REMARK VINA RESULT:      -6.3      2.440      5.950
REMARK  9 active torsions:
REMARK  status: ('A' for Active; 'I' for Inactive)
REMARK    1  A    between atoms: O1_2  and  C2_3 
REMARK    2  A    between atoms: C8_9  and  C9_10 
REMARK    3  A    between atoms: C9_10  and  C10_11 
REMARK    4  A    between atoms: C10_11  and  N1_12 
REMARK    5  A    between atoms: N1_12  and  C11_13 
REMARK    6  A    between atoms: C11_13  and  C12_14 
REMARK    7  A    between atoms: C11_13  and  O2_17 
REMARK    8  A    between atoms: C11_13  and  C15_19 
REMARK    9  A    between atoms: C13_15  and  N2_16 
ROOT
HETATM    1  N1  UNL     1      24.522   4.353  51.896  1.00  0.00     0.129 N 
HETATM    2  H14 UNL     1      23.716   5.011  52.115  1.00  0.00     0.320 HD
ENDROOT
BRANCH   1   3
HETATM    3  C10 UNL     1      24.155   3.032  52.317  1.00  0.00     0.279 C 
BRANCH   3   4
HETATM    4  C9  UNL     1      24.945   2.482  53.470  1.00  0.00     0.072 C 
BRANCH   4   5
HETATM    5  C8  UNL     1      25.582   1.191  53.219  1.00  0.00    -0.017 A 
HETATM    6  C2  UNL     1      26.948   1.115  52.931  1.00  0.00     0.075 A 
HETATM    7  C3  UNL     1      27.496  -0.132  52.723  1.00  0.00     0.037 A 
HETATM    8  C4  UNL     1      26.805  -1.323  52.774  1.00  0.00     0.003 A 
HETATM    9  C5  UNL     1      25.460  -1.221  53.058  1.00  0.00     0.007 A 
HETATM   10  C6  UNL     1      24.874   0.019  53.274  1.00  0.00    -0.053 A 
HETATM   11  C7  UNL     1      23.402   0.005  53.575  1.00  0.00     0.049 C 
BRANCH   6  12
HETATM   12  O1  UNL     1      27.635   2.315  52.879  1.00  0.00    -0.355 OA
HETATM   13  C1  UNL     1      28.782   2.487  53.679  1.00  0.00     0.210 C 
ENDBRANCH   6  12
ENDBRANCH   4   5
ENDBRANCH   3   4
ENDBRANCH   1   3
BRANCH   1  14
HETATM   14  C11 UNL     1      24.555   4.347  50.412  1.00  0.00     0.319 C 
BRANCH  14  15
HETATM   15  C12 UNL     1      23.872   5.576  49.954  1.00  0.00     0.067 C 
HETATM   16  C13 UNL     1      23.058   6.508  50.424  1.00  0.00     0.081 C 
BRANCH  16  17
HETATM   17  N2  UNL     1      22.389   7.702  49.992  1.00  0.00    -0.408 N 
HETATM   18  H17 UNL     1      21.669   7.744  49.212  1.00  0.00     0.155 HD
HETATM   19  H18 UNL     1      22.637   8.590  50.489  1.00  0.00     0.155 HD
ENDBRANCH  16  17
ENDBRANCH  14  15
BRANCH  14  20
HETATM   20  O2  UNL     1      23.918   3.188  50.055  1.00  0.00    -0.350 OA
HETATM   21  C14 UNL     1      23.327   3.155  48.826  1.00  0.00     0.205 C 
ENDBRANCH  14  20
BRANCH  14  22
HETATM   22  C15 UNL     1      25.985   4.425  49.996  1.00  0.00     0.069 C 
HETATM   23  C16 UNL     1      26.309   5.440  48.932  1.00  0.00     0.070 C 
HETATM   24  N3  UNL     1      27.004   3.751  50.417  1.00  0.00    -0.304 NA
HETATM   25  H25 UNL     1      27.947   3.869  50.076  1.00  0.00     0.186 HD
ENDBRANCH  14  22
ENDBRANCH   1  14
TORSDOF 9
ENDMDL
MODEL 8
REMARK VINA RESULT:      -6.3      2.501      6.177
REMARK  9 active torsions:
REMARK  status: ('A' for Active; 'I' for Inactive)
REMARK    1  A    between atoms: O1_2  and  C2_3 
REMARK    2  A    between atoms: C8_9  and  C9_10 
REMARK    3  A    between atoms: C9_10  and  C10_11 
REMARK    4  A    between atoms: C10_11  and  N1_12 
REMARK    5  A    between atoms: N1_12  and  C11_13 
REMARK    6  A    between atoms: C11_13  and  C12_14 
REMARK    7  A    between atoms: C11_13  and  O2_17 
REMARK    8  A    between atoms: C11_13  and  C15_19 
REMARK    9  A    between atoms: C13_15  and  N2_16 
ROOT
HETATM    1  N1  UNL     1      25.511   3.848  51.241  1.00  0.00     0.129 N 
HETATM    2  H14 UNL     1      25.862   4.576  51.931  1.00  0.00     0.320 HD
ENDROOT
BRANCH   1   3
HETATM    3  C10 UNL     1      24.741   2.875  51.961  1.00  0.00     0.279 C 
BRANCH   3   4
HETATM    4  C9  UNL     1      25.339   2.418  53.262  1.00  0.00     0.072 C 
BRANCH   4   5
HETATM    5  C8  UNL     1      26.087   1.164  53.188  1.00  0.00    -0.017 A 
HETATM    6  C2  UNL     1      25.423  -0.051  53.002  1.00  0.00     0.075 A 
HETATM    7  C3  UNL     1      26.184  -1.197  52.920  1.00  0.00     0.037 A 
HETATM    8  C4  UNL     1      27.558  -1.247  53.009  1.00  0.00     0.003 A 
HETATM    9  C5  UNL     1      28.189  -0.035  53.193  1.00  0.00     0.007 A 
HETATM   10  C6  UNL     1      27.455   1.139  53.280  1.00  0.00    -0.053 A 
HETATM   11  C7  UNL     1      28.251   2.398  53.481  1.00  0.00     0.049 C 
BRANCH   6  12
HETATM   12  O1  UNL     1      24.044   0.006  52.917  1.00  0.00    -0.355 OA
HETATM   13  C1  UNL     1      23.265  -0.660  53.885  1.00  0.00     0.210 C 
ENDBRANCH   6  12
ENDBRANCH   4   5
ENDBRANCH   3   4
ENDBRANCH   1   3
BRANCH   1  14
HETATM   14  C11 UNL     1      24.564   4.616  50.395  1.00  0.00     0.319 C 
BRANCH  14  15
HETATM   15  C12 UNL     1      23.558   3.659  49.885  1.00  0.00     0.067 C 
HETATM   16  C13 UNL     1      23.242   3.038  48.760  1.00  0.00     0.081 C 
BRANCH  16  17
HETATM   17  N2  UNL     1      22.271   2.112  48.252  1.00  0.00    -0.408 N 
HETATM   18  H17 UNL     1      22.254   1.736  47.258  1.00  0.00     0.155 HD
HETATM   19  H18 UNL     1      21.531   1.789  48.919  1.00  0.00     0.155 HD
ENDBRANCH  16  17
ENDBRANCH  14  15
BRANCH  14  20
HETATM   20  O2  UNL     1      25.344   5.179  49.421  1.00  0.00    -0.350 OA
HETATM   21  C14 UNL     1      26.588   4.649  49.236  1.00  0.00     0.205 C 
ENDBRANCH  14  20
BRANCH  14  22
HETATM   22  C15 UNL     1      23.869   5.595  51.280  1.00  0.00     0.069 C 
HETATM   23  C16 UNL     1      22.364   5.552  51.261  1.00  0.00     0.070 C 
HETATM   24  N3  UNL     1      24.365   6.485  52.075  1.00  0.00    -0.304 NA
HETATM   25  H25 UNL     1      23.816   7.114  52.642  1.00  0.00     0.186 HD
ENDBRANCH  14  22
ENDBRANCH   1  14
TORSDOF 9
ENDMDL
MODEL 9
REMARK VINA RESULT:      -6.3      1.824      3.430
REMARK  9 active torsions:
REMARK  status: ('A' for Active; 'I' for Inactive)
REMARK    1  A    between atoms: O1_2  and  C2_3 
REMARK    2  A    between atoms: C8_9  and  C9_10 
REMARK    3  A    between atoms: C9_10  and  C10_11 
REMARK    4  A    between atoms: C10_11  and  N1_12 
REMARK    5  A    between atoms: N1_12  and  C11_13 
REMARK    6  A    between atoms: C11_13  and  C12_14 
REMARK    7  A    between atoms: C11_13  and  O2_17 
REMARK    8  A    between atoms: C11_13  and  C15_19 
REMARK    9  A    between atoms: C13_15  and  N2_16 
ROOT
HETATM    1  N1  UNL     1      27.047   1.020  52.561  1.00  0.00     0.129 N 
HETATM    2  H14 UNL     1      27.677   0.589  51.820  1.00  0.00     0.320 HD
ENDROOT
BRANCH   1   3
HETATM    3  C10 UNL     1      25.700   0.598  52.310  1.00  0.00     0.279 C 
BRANCH   3   4
HETATM    4  C9  UNL     1      24.665   1.686  52.361  1.00  0.00     0.072 C 
BRANCH   4   5
HETATM    5  C8  UNL     1      23.417   1.382  51.664  1.00  0.00    -0.017 A 
HETATM    6  C2  UNL     1      22.490   0.495  52.219  1.00  0.00     0.075 A 
HETATM    7  C3  UNL     1      21.322   0.264  51.524  1.00  0.00     0.037 A 
HETATM    8  C4  UNL     1      20.989   0.837  50.316  1.00  0.00     0.003 A 
HETATM    9  C5  UNL     1      21.920   1.706  49.790  1.00  0.00     0.007 A 
HETATM   10  C6  UNL     1      23.107   1.963  50.462  1.00  0.00    -0.053 A 
HETATM   11  C7  UNL     1      24.045   2.928  49.792  1.00  0.00     0.049 C 
BRANCH   6  12
HETATM   12  O1  UNL     1      22.832  -0.079  53.430  1.00  0.00    -0.355 OA
HETATM   13  C1  UNL     1      21.938  -0.979  54.043  1.00  0.00     0.210 C 
ENDBRANCH   6  12
ENDBRANCH   4   5
ENDBRANCH   3   4
ENDBRANCH   1   3
BRANCH   1  14
HETATM   14  C11 UNL     1      27.491   0.350  53.809  1.00  0.00     0.319 C 
BRANCH  14  15
HETATM   15  C12 UNL     1      26.276  -0.121  54.508  1.00  0.00     0.067 C 
HETATM   16  C13 UNL     1      25.939  -0.761  55.615  1.00  0.00     0.081 C 
BRANCH  16  17
HETATM   17  N2  UNL     1      24.767  -1.224  56.304  1.00  0.00    -0.408 N 
HETATM   18  H17 UNL     1      24.566  -1.063  57.334  1.00  0.00     0.155 HD
HETATM   19  H18 UNL     1      24.067  -1.760  55.738  1.00  0.00     0.155 HD
ENDBRANCH  16  17
ENDBRANCH  14  15
BRANCH  14  20
HETATM   20  O2  UNL     1      28.190   1.311  54.489  1.00  0.00    -0.350 OA
HETATM   21  C14 UNL     1      28.549   2.430  53.795  1.00  0.00     0.205 C 
ENDBRANCH  14  20
BRANCH  14  22
HETATM   22  C15 UNL     1      28.294  -0.843  53.414  1.00  0.00     0.069 C 
HETATM   23  C16 UNL     1      29.790  -0.687  53.487  1.00  0.00     0.070 C 
HETATM   24  N3  UNL     1      27.900  -2.008  53.018  1.00  0.00    -0.304 NA
HETATM   25  H25 UNL     1      28.518  -2.765  52.767  1.00  0.00     0.186 HD
ENDBRANCH  14  22
ENDBRANCH   1  14
TORSDOF 9
ENDMDL
