MODEL 1
REMARK VINA RESULT:      -8.6      0.000      0.000
REMARK  8 active torsions:
REMARK  status: ('A' for Active; 'I' for Inactive)
REMARK    1  A    between atoms: N1_1  and  C1_2 
REMARK    2  A    between atoms: C2_3  and  C3_4 
REMARK    3  A    between atoms: C3_4  and  C4_5 
REMARK    4  A    between atoms: C4_5  and  C19_25 
REMARK    5  A    between atoms: N2_6  and  C5_7 
REMARK    6  A    between atoms: C5_7  and  N3_8 
REMARK    7  A    between atoms: C9_12  and  N4_13 
REMARK       I    between atoms: N4_13  and  C10_14 
REMARK    8  A    between atoms: C10_14  and  C11_16 
ROOT
HETATM    1  N3  UNL     1      22.010   3.807  51.376  1.00  0.00    -0.348 N 
HETATM    2  C6  UNL     1      22.557   4.023  50.074  1.00  0.00     0.092 C 
HETATM    3  C7  UNL     1      23.742   3.776  49.539  1.00  0.00     0.019 C 
HETATM    4  C8  UNL     1      24.915   3.164  50.181  1.00  0.00     0.031 C 
HETATM    5  C9  UNL     1      25.041   2.984  51.502  1.00  0.00     0.036 C 
HETATM    6  C17 UNL     1      24.135   3.309  52.615  1.00  0.00     0.046 C 
HETATM    7  C18 UNL     1      22.860   3.653  52.535  1.00  0.00     0.094 C 
ENDROOT
BRANCH   1   8
HETATM    8  C5  UNL     1      20.546   3.736  51.541  1.00  0.00     0.277 C 
BRANCH   8   9
HETATM    9  N2  UNL     1      19.972   2.510  51.209  1.00  0.00    -0.273 NA
HETATM   10  C4  UNL     1      20.039   1.325  51.567  1.00  0.00     0.045 C 
BRANCH  10  11
HETATM   11  C3  UNL     1      19.091   0.531  50.722  1.00  0.00     0.088 C 
BRANCH  11  12
HETATM   12  C2  UNL     1      17.954   0.043  51.585  1.00  0.00    -0.004 C 
HETATM   13  C1  UNL     1      17.401  -0.875  52.337  1.00  0.00     0.076 C 
BRANCH  13  14
HETATM   14  N1  UNL     1      16.242  -1.112  53.089  1.00  0.00    -0.408 N 
HETATM   15  H1  UNL     1      16.198  -1.735  53.939  1.00  0.00     0.155 HD
HETATM   16  H2  UNL     1      15.412  -0.585  52.698  1.00  0.00     0.155 HD
ENDBRANCH  13  14
ENDBRANCH  11  12
ENDBRANCH  10  11
BRANCH  10  17
HETATM   17  C19 UNL     1      20.755   0.574  52.562  1.00  0.00     0.006 A 
HETATM   18  C20 UNL     1      21.690  -0.411  52.325  1.00  0.00     0.016 A 
HETATM   19  C21 UNL     1      22.372  -1.140  53.272  1.00  0.00     0.020 A 
HETATM   20  C22 UNL     1      22.103  -0.872  54.598  1.00  0.00     0.116 A 
HETATM   21  N5  UNL     1      21.187   0.092  54.874  1.00  0.00    -0.272 NA
HETATM   22  C23 UNL     1      20.560   0.765  53.910  1.00  0.00     0.129 A 
ENDBRANCH  10  17
ENDBRANCH   8   9
ENDBRANCH   1   8
BRANCH   5  23
HETATM   23  N4  UNL     1      26.246   2.375  51.948  1.00  0.00    -0.323 N 
HETATM   24  C10 UNL     1      26.252   1.007  52.349  1.00  0.00     0.256 C 
HETATM   25  O1  UNL     1      25.110   0.465  52.254  1.00  0.00    -0.267 OA
HETATM   26  H12 UNL     1      27.142   2.933  51.984  1.00  0.00     0.169 HD
BRANCH  24  27
HETATM   27  C11 UNL     1      27.442   0.325  52.814  1.00  0.00     0.032 A 
HETATM   28  C12 UNL     1      27.627  -1.044  52.792  1.00  0.00     0.020 A 
HETATM   29  C13 UNL     1      28.788  -1.636  53.251  1.00  0.00     0.043 A 
HETATM   30  C14 UNL     1      29.805  -0.838  53.753  1.00  0.00     0.116 A 
HETATM   31  F1  UNL     1      30.952  -1.412  54.206  1.00  0.00    -0.206 F 
HETATM   32  C15 UNL     1      29.611   0.531  53.770  1.00  0.00     0.043 A 
HETATM   33  C16 UNL     1      28.453   1.135  53.313  1.00  0.00     0.020 A 
ENDBRANCH  24  27
ENDBRANCH   5  23
TORSDOF 8
ENDMDL
MODEL 2
REMARK VINA RESULT:      -8.2      4.059      5.887
REMARK  8 active torsions:
REMARK  status: ('A' for Active; 'I' for Inactive)
REMARK    1  A    between atoms: N1_1  and  C1_2 
REMARK    2  A    between atoms: C2_3  and  C3_4 
REMARK    3  A    between atoms: C3_4  and  C4_5 
REMARK    4  A    between atoms: C4_5  and  C19_25 
REMARK    5  A    between atoms: N2_6  and  C5_7 
REMARK    6  A    between atoms: C5_7  and  N3_8 
REMARK    7  A    between atoms: C9_12  and  N4_13 
REMARK       I    between atoms: N4_13  and  C10_14 
REMARK    8  A    between atoms: C10_14  and  C11_16 
ROOT
HETATM    1  N3  UNL     1      22.558   3.127  51.435  1.00  0.00    -0.348 N 
HETATM    2  C6  UNL     1      22.481   2.671  50.084  1.00  0.00     0.092 C 
HETATM    3  C7  UNL     1      23.285   2.796  49.040  1.00  0.00     0.019 C 
HETATM    4  C8  UNL     1      24.579   3.491  48.973  1.00  0.00     0.031 C 
HETATM    5  C9  UNL     1      25.034   4.328  49.915  1.00  0.00     0.036 C 
HETATM    6  C17 UNL     1      24.439   4.770  51.186  1.00  0.00     0.046 C 
HETATM    7  C18 UNL     1      23.395   4.246  51.807  1.00  0.00     0.094 C 
ENDROOT
BRANCH   1   8
HETATM    8  C5  UNL     1      21.770   2.440  52.475  1.00  0.00     0.277 C 
BRANCH   8   9
HETATM    9  N2  UNL     1      22.333   1.262  52.963  1.00  0.00    -0.273 NA
HETATM   10  C4  UNL     1      23.458   0.781  53.158  1.00  0.00     0.045 C 
BRANCH  10  11
HETATM   11  C3  UNL     1      23.284  -0.592  53.730  1.00  0.00     0.088 C 
BRANCH  11  12
HETATM   12  C2  UNL     1      21.819  -0.948  53.719  1.00  0.00    -0.004 C 
HETATM   13  C1  UNL     1      20.773  -1.510  54.271  1.00  0.00     0.076 C 
BRANCH  13  14
HETATM   14  N1  UNL     1      19.406  -1.724  54.046  1.00  0.00    -0.408 N 
HETATM   15  H1  UNL     1      18.651  -1.573  54.766  1.00  0.00     0.155 HD
HETATM   16  H2  UNL     1      19.225  -2.057  53.058  1.00  0.00     0.155 HD
ENDBRANCH  13  14
ENDBRANCH  11  12
ENDBRANCH  10  11
BRANCH  10  17
HETATM   17  C19 UNL     1      24.820   1.212  52.994  1.00  0.00     0.006 A 
HETATM   18  C20 UNL     1      25.577   1.110  51.846  1.00  0.00     0.016 A 
HETATM   19  C21 UNL     1      26.883   1.511  51.686  1.00  0.00     0.020 A 
HETATM   20  C22 UNL     1      27.516   2.073  52.776  1.00  0.00     0.116 A 
HETATM   21  N5  UNL     1      26.805   2.190  53.927  1.00  0.00    -0.272 NA
HETATM   22  C23 UNL     1      25.539   1.782  54.019  1.00  0.00     0.129 A 
ENDBRANCH  10  17
ENDBRANCH   8   9
ENDBRANCH   1   8
BRANCH   5  23
HETATM   23  N4  UNL     1      26.310   4.912  49.684  1.00  0.00    -0.323 N 
HETATM   24  C10 UNL     1      26.431   6.063  48.852  1.00  0.00     0.256 C 
HETATM   25  O1  UNL     1      25.317   6.450  48.388  1.00  0.00    -0.267 OA
HETATM   26  H12 UNL     1      27.172   4.496  50.129  1.00  0.00     0.169 HD
BRANCH  24  27
HETATM   27  C11 UNL     1      27.699   6.707  48.575  1.00  0.00     0.032 A 
HETATM   28  C12 UNL     1      27.944   8.059  48.712  1.00  0.00     0.020 A 
HETATM   29  C13 UNL     1      29.176   8.615  48.431  1.00  0.00     0.043 A 
HETATM   30  C14 UNL     1      30.207   7.796  47.995  1.00  0.00     0.116 A 
HETATM   31  F1  UNL     1      31.426   8.335  47.716  1.00  0.00    -0.206 F 
HETATM   32  C15 UNL     1      29.953   6.444  47.861  1.00  0.00     0.043 A 
HETATM   33  C16 UNL     1      28.722   5.876  48.139  1.00  0.00     0.020 A 
ENDBRANCH  24  27
ENDBRANCH   5  23
TORSDOF 8
ENDMDL
MODEL 3
REMARK VINA RESULT:      -8.0      2.531      5.068
REMARK  8 active torsions:
REMARK  status: ('A' for Active; 'I' for Inactive)
REMARK    1  A    between atoms: N1_1  and  C1_2 
REMARK    2  A    between atoms: C2_3  and  C3_4 
REMARK    3  A    between atoms: C3_4  and  C4_5 
REMARK    4  A    between atoms: C4_5  and  C19_25 
REMARK    5  A    between atoms: N2_6  and  C5_7 
REMARK    6  A    between atoms: C5_7  and  N3_8 
REMARK    7  A    between atoms: C9_12  and  N4_13 
REMARK       I    between atoms: N4_13  and  C10_14 
REMARK    8  A    between atoms: C10_14  and  C11_16 
ROOT
HETATM    1  N3  UNL     1      21.604   3.172  51.387  1.00  0.00    -0.348 N 
HETATM    2  C6  UNL     1      22.090   4.362  52.009  1.00  0.00     0.092 C 
HETATM    3  C7  UNL     1      23.159   4.626  52.744  1.00  0.00     0.019 C 
HETATM    4  C8  UNL     1      24.226   3.700  53.155  1.00  0.00     0.031 C 
HETATM    5  C9  UNL     1      24.147   2.367  53.051  1.00  0.00     0.036 C 
HETATM    6  C17 UNL     1      23.075   1.498  52.540  1.00  0.00     0.046 C 
HETATM    7  C18 UNL     1      22.013   1.862  51.841  1.00  0.00     0.094 C 
ENDROOT
BRANCH   1   8
HETATM    8  C5  UNL     1      20.666   3.282  50.254  1.00  0.00     0.277 C 
BRANCH   8   9
HETATM    9  N2  UNL     1      21.229   3.065  48.997  1.00  0.00    -0.273 NA
HETATM   10  C4  UNL     1      22.241   3.393  48.363  1.00  0.00     0.045 C 
BRANCH  10  11
HETATM   11  C3  UNL     1      22.171   2.752  47.010  1.00  0.00     0.088 C 
BRANCH  11  12
HETATM   12  C2  UNL     1      21.714   3.778  46.004  1.00  0.00    -0.004 C 
HETATM   13  C1  UNL     1      21.274   4.095  44.812  1.00  0.00     0.076 C 
BRANCH  13  14
HETATM   14  N1  UNL     1      20.892   5.210  44.054  1.00  0.00    -0.408 N 
HETATM   15  H1  UNL     1      20.395   6.055  44.442  1.00  0.00     0.155 HD
HETATM   16  H2  UNL     1      21.165   5.098  43.038  1.00  0.00     0.155 HD
ENDBRANCH  13  14
ENDBRANCH  11  12
ENDBRANCH  10  11
BRANCH  10  17
HETATM   17  C19 UNL     1      23.417   4.183  48.610  1.00  0.00     0.006 A 
HETATM   18  C20 UNL     1      24.574   3.756  49.225  1.00  0.00     0.016 A 
HETATM   19  C21 UNL     1      25.698   4.510  49.473  1.00  0.00     0.020 A 
HETATM   20  C22 UNL     1      25.682   5.830  49.073  1.00  0.00     0.116 A 
HETATM   21  N5  UNL     1      24.560   6.290  48.463  1.00  0.00    -0.272 NA
HETATM   22  C23 UNL     1      23.501   5.508  48.251  1.00  0.00     0.129 A 
ENDBRANCH  10  17
ENDBRANCH   8   9
ENDBRANCH   1   8
BRANCH   5  23
HETATM   23  N4  UNL     1      25.275   1.627  53.499  1.00  0.00    -0.323 N 
HETATM   24  C10 UNL     1      26.242   1.158  52.562  1.00  0.00     0.256 C 
HETATM   25  O1  UNL     1      25.961   1.477  51.368  1.00  0.00    -0.267 OA
HETATM   26  H12 UNL     1      25.401   1.422  54.526  1.00  0.00     0.169 HD
BRANCH  24  27
HETATM   27  C11 UNL     1      27.413   0.398  52.949  1.00  0.00     0.032 A 
HETATM   28  C12 UNL     1      27.533  -0.974  52.849  1.00  0.00     0.020 A 
HETATM   29  C13 UNL     1      28.678  -1.642  53.236  1.00  0.00     0.043 A 
HETATM   30  C14 UNL     1      29.747  -0.919  53.744  1.00  0.00     0.116 A 
HETATM   31  F1  UNL     1      30.880  -1.569  54.128  1.00  0.00    -0.206 F 
HETATM   32  C15 UNL     1      29.619   0.454  53.840  1.00  0.00     0.043 A 
HETATM   33  C16 UNL     1      28.476   1.134  53.456  1.00  0.00     0.020 A 
ENDBRANCH  24  27
ENDBRANCH   5  23
TORSDOF 8
ENDMDL
MODEL 4
REMARK VINA RESULT:      -7.9      1.962      2.839
REMARK  8 active torsions:
REMARK  status: ('A' for Active; 'I' for Inactive)
REMARK    1  A    between atoms: N1_1  and  C1_2 
REMARK    2  A    between atoms: C2_3  and  C3_4 
REMARK    3  A    between atoms: C3_4  and  C4_5 
REMARK    4  A    between atoms: C4_5  and  C19_25 
REMARK    5  A    between atoms: N2_6  and  C5_7 
REMARK    6  A    between atoms: C5_7  and  N3_8 
REMARK    7  A    between atoms: C9_12  and  N4_13 
REMARK       I    between atoms: N4_13  and  C10_14 
REMARK    8  A    between atoms: C10_14  and  C11_16 
ROOT
HETATM    1  N3  UNL     1      22.650   5.086  50.988  1.00  0.00    -0.348 N 
HETATM    2  C6  UNL     1      23.246   4.920  49.700  1.00  0.00     0.092 C 
HETATM    3  C7  UNL     1      24.098   4.036  49.206  1.00  0.00     0.019 C 
HETATM    4  C8  UNL     1      24.716   2.892  49.894  1.00  0.00     0.031 C 
HETATM    5  C9  UNL     1      24.698   2.712  51.221  1.00  0.00     0.036 C 
HETATM    6  C17 UNL     1      24.110   3.523  52.300  1.00  0.00     0.046 C 
HETATM    7  C18 UNL     1      23.249   4.519  52.175  1.00  0.00     0.094 C 
ENDROOT
BRANCH   1   8
HETATM    8  C5  UNL     1      21.396   5.852  51.109  1.00  0.00     0.277 C 
BRANCH   8   9
HETATM    9  N2  UNL     1      20.232   5.121  50.874  1.00  0.00    -0.273 NA
HETATM   10  C4  UNL     1      19.842   3.947  50.942  1.00  0.00     0.045 C 
BRANCH  10  11
HETATM   11  C3  UNL     1      18.407   3.909  50.517  1.00  0.00     0.088 C 
BRANCH  11  12
HETATM   12  C2  UNL     1      18.339   3.596  49.043  1.00  0.00    -0.004 C 
HETATM   13  C1  UNL     1      18.882   3.134  47.945  1.00  0.00     0.076 C 
BRANCH  13  14
HETATM   14  N1  UNL     1      18.592   2.934  46.588  1.00  0.00    -0.408 N 
HETATM   15  H1  UNL     1      18.253   2.025  46.177  1.00  0.00     0.155 HD
HETATM   16  H2  UNL     1      18.757   3.815  46.024  1.00  0.00     0.155 HD
ENDBRANCH  13  14
ENDBRANCH  11  12
ENDBRANCH  10  11
BRANCH  10  17
HETATM   17  C19 UNL     1      20.403   2.682  51.333  1.00  0.00     0.006 A 
HETATM   18  C20 UNL     1      21.089   1.807  50.520  1.00  0.00     0.016 A 
HETATM   19  C21 UNL     1      21.620   0.591  50.885  1.00  0.00     0.020 A 
HETATM   20  C22 UNL     1      21.455   0.191  52.195  1.00  0.00     0.116 A 
HETATM   21  N5  UNL     1      20.784   1.025  53.029  1.00  0.00    -0.272 NA
HETATM   22  C23 UNL     1      20.293   2.193  52.614  1.00  0.00     0.129 A 
ENDBRANCH  10  17
ENDBRANCH   8   9
ENDBRANCH   1   8
BRANCH   5  23
HETATM   23  N4  UNL     1      25.347   1.547  51.714  1.00  0.00    -0.323 N 
HETATM   24  C10 UNL     1      26.755   1.550  51.935  1.00  0.00     0.256 C 
HETATM   25  O1  UNL     1      27.292   2.661  51.646  1.00  0.00    -0.267 OA
HETATM   26  H12 UNL     1      24.788   0.675  51.919  1.00  0.00     0.169 HD
BRANCH  24  27
HETATM   27  C11 UNL     1      27.479   0.399  52.434  1.00  0.00     0.032 A 
HETATM   28  C12 UNL     1      28.682   0.456  53.110  1.00  0.00     0.020 A 
HETATM   29  C13 UNL     1      29.325  -0.680  53.562  1.00  0.00     0.043 A 
HETATM   30  C14 UNL     1      28.752  -1.922  53.333  1.00  0.00     0.116 A 
HETATM   31  F1  UNL     1      29.378  -3.046  53.775  1.00  0.00    -0.206 F 
HETATM   32  C15 UNL     1      27.548  -1.969  52.655  1.00  0.00     0.043 A 
HETATM   33  C16 UNL     1      26.895  -0.838  52.197  1.00  0.00     0.020 A 
ENDBRANCH  24  27
ENDBRANCH   5  23
TORSDOF 8
ENDMDL
MODEL 5
REMARK VINA RESULT:      -7.9      4.143      8.761
REMARK  8 active torsions:
REMARK  status: ('A' for Active; 'I' for Inactive)
REMARK    1  A    between atoms: N1_1  and  C1_2 
REMARK    2  A    between atoms: C2_3  and  C3_4 
REMARK    3  A    between atoms: C3_4  and  C4_5 
REMARK    4  A    between atoms: C4_5  and  C19_25 
REMARK    5  A    between atoms: N2_6  and  C5_7 
REMARK    6  A    between atoms: C5_7  and  N3_8 
REMARK    7  A    between atoms: C9_12  and  N4_13 
REMARK       I    between atoms: N4_13  and  C10_14 
REMARK    8  A    between atoms: C10_14  and  C11_16 
ROOT
HETATM    1  N3  UNL     1      25.448   2.525  51.387  1.00  0.00    -0.348 N 
HETATM    2  C6  UNL     1      25.963   1.409  52.116  1.00  0.00     0.092 C 
HETATM    3  C7  UNL     1      25.388   0.433  52.800  1.00  0.00     0.019 C 
HETATM    4  C8  UNL     1      23.951   0.204  53.017  1.00  0.00     0.031 C 
HETATM    5  C9  UNL     1      22.997   1.107  52.754  1.00  0.00     0.036 C 
HETATM    6  C17 UNL     1      23.081   2.475  52.217  1.00  0.00     0.046 C 
HETATM    7  C18 UNL     1      24.126   3.049  51.646  1.00  0.00     0.094 C 
ENDROOT
BRANCH   1   8
HETATM    8  C5  UNL     1      26.282   3.153  50.346  1.00  0.00     0.277 C 
BRANCH   8   9
HETATM    9  N2  UNL     1      25.704   4.249  49.707  1.00  0.00    -0.273 NA
HETATM   10  C4  UNL     1      26.063   5.268  49.101  1.00  0.00     0.045 C 
BRANCH  10  11
HETATM   11  C3  UNL     1      24.835   6.013  48.675  1.00  0.00     0.088 C 
BRANCH  11  12
HETATM   12  C2  UNL     1      23.911   6.155  49.857  1.00  0.00    -0.004 C 
HETATM   13  C1  UNL     1      22.714   6.320  50.361  1.00  0.00     0.076 C 
BRANCH  13  14
HETATM   14  N1  UNL     1      22.058   6.429  51.595  1.00  0.00    -0.408 N 
HETATM   15  H1  UNL     1      21.411   5.698  51.995  1.00  0.00     0.155 HD
HETATM   16  H2  UNL     1      22.293   7.340  52.079  1.00  0.00     0.155 HD
ENDBRANCH  13  14
ENDBRANCH  11  12
ENDBRANCH  10  11
BRANCH  10  17
HETATM   17  C19 UNL     1      27.312   5.864  48.710  1.00  0.00     0.006 A 
HETATM   18  C20 UNL     1      28.466   5.192  48.369  1.00  0.00     0.016 A 
HETATM   19  C21 UNL     1      29.667   5.757  48.005  1.00  0.00     0.020 A 
HETATM   20  C22 UNL     1      29.740   7.134  47.973  1.00  0.00     0.116 A 
HETATM   21  N5  UNL     1      28.625   7.833  48.303  1.00  0.00    -0.272 NA
HETATM   22  C23 UNL     1      27.489   7.227  48.648  1.00  0.00     0.129 A 
ENDBRANCH  10  17
ENDBRANCH   8   9
ENDBRANCH   1   8
BRANCH   5  23
HETATM   23  N4  UNL     1      21.658   0.714  53.025  1.00  0.00    -0.323 N 
HETATM   24  C10 UNL     1      20.832   0.212  51.978  1.00  0.00     0.256 C 
HETATM   25  O1  UNL     1      21.429   0.175  50.860  1.00  0.00    -0.267 OA
HETATM   26  H12 UNL     1      21.270   0.793  54.004  1.00  0.00     0.169 HD
BRANCH  24  27
HETATM   27  C11 UNL     1      19.460  -0.205  52.184  1.00  0.00     0.032 A 
HETATM   28  C12 UNL     1      19.007  -0.916  53.277  1.00  0.00     0.020 A 
HETATM   29  C13 UNL     1      17.684  -1.285  53.417  1.00  0.00     0.043 A 
HETATM   30  C14 UNL     1      16.774  -0.936  52.431  1.00  0.00     0.116 A 
HETATM   31  F1  UNL     1      15.467  -1.295  52.560  1.00  0.00    -0.206 F 
HETATM   32  C15 UNL     1      17.236  -0.224  51.339  1.00  0.00     0.043 A 
HETATM   33  C16 UNL     1      18.559   0.151  51.189  1.00  0.00     0.020 A 
ENDBRANCH  24  27
ENDBRANCH   5  23
TORSDOF 8
ENDMDL
MODEL 6
REMARK VINA RESULT:      -7.8      6.108      8.808
REMARK  8 active torsions:
REMARK  status: ('A' for Active; 'I' for Inactive)
REMARK    1  A    between atoms: N1_1  and  C1_2 
REMARK    2  A    between atoms: C2_3  and  C3_4 
REMARK    3  A    between atoms: C3_4  and  C4_5 
REMARK    4  A    between atoms: C4_5  and  C19_25 
REMARK    5  A    between atoms: N2_6  and  C5_7 
REMARK    6  A    between atoms: C5_7  and  N3_8 
REMARK    7  A    between atoms: C9_12  and  N4_13 
REMARK       I    between atoms: N4_13  and  C10_14 
REMARK    8  A    between atoms: C10_14  and  C11_16 
ROOT
HETATM    1  N3  UNL     1      25.373   4.489  49.943  1.00  0.00    -0.348 N 
HETATM    2  C6  UNL     1      26.620   4.078  49.380  1.00  0.00     0.092 C 
HETATM    3  C7  UNL     1      27.577   4.725  48.734  1.00  0.00     0.019 C 
HETATM    4  C8  UNL     1      27.631   6.153  48.389  1.00  0.00     0.031 C 
HETATM    5  C9  UNL     1      26.584   6.985  48.464  1.00  0.00     0.036 C 
HETATM    6  C17 UNL     1      25.190   6.753  48.876  1.00  0.00     0.046 C 
HETATM    7  C18 UNL     1      24.705   5.691  49.498  1.00  0.00     0.094 C 
ENDROOT
BRANCH   1   8
HETATM    8  C5  UNL     1      24.755   3.671  51.003  1.00  0.00     0.277 C 
BRANCH   8   9
HETATM    9  N2  UNL     1      25.456   2.514  51.341  1.00  0.00    -0.273 NA
HETATM   10  C4  UNL     1      25.260   1.454  51.953  1.00  0.00     0.045 C 
BRANCH  10  11
HETATM   11  C3  UNL     1      26.524   0.652  51.908  1.00  0.00     0.088 C 
BRANCH  11  12
HETATM   12  C2  UNL     1      27.594   1.375  52.687  1.00  0.00    -0.004 C 
HETATM   13  C1  UNL     1      28.384   1.473  53.726  1.00  0.00     0.076 C 
BRANCH  13  14
HETATM   14  N1  UNL     1      29.371   2.307  54.269  1.00  0.00    -0.408 N 
HETATM   15  H1  UNL     1      30.371   2.344  53.937  1.00  0.00     0.155 HD
HETATM   16  H2  UNL     1      28.986   2.900  55.056  1.00  0.00     0.155 HD
ENDBRANCH  13  14
ENDBRANCH  11  12
ENDBRANCH  10  11
BRANCH  10  17
HETATM   17  C19 UNL     1      24.161   0.833  52.640  1.00  0.00     0.006 A 
HETATM   18  C20 UNL     1      22.834   1.200  52.558  1.00  0.00     0.016 A 
HETATM   19  C21 UNL     1      21.779   0.617  53.220  1.00  0.00     0.020 A 
HETATM   20  C22 UNL     1      22.059  -0.443  54.057  1.00  0.00     0.116 A 
HETATM   21  N5  UNL     1      23.354  -0.836  54.167  1.00  0.00    -0.272 NA
HETATM   22  C23 UNL     1      24.334  -0.229  53.497  1.00  0.00     0.129 A 
ENDBRANCH  10  17
ENDBRANCH   8   9
ENDBRANCH   1   8
BRANCH   5  23
HETATM   23  N4  UNL     1      26.818   8.337  48.091  1.00  0.00    -0.323 N 
HETATM   24  C10 UNL     1      27.138   9.309  49.083  1.00  0.00     0.256 C 
HETATM   25  O1  UNL     1      27.177   8.820  50.251  1.00  0.00    -0.267 OA
HETATM   26  H12 UNL     1      26.756   8.626  47.077  1.00  0.00     0.169 HD
BRANCH  24  27
HETATM   27  C11 UNL     1      27.387  10.702  48.772  1.00  0.00     0.032 A 
HETATM   28  C12 UNL     1      28.598  11.344  48.943  1.00  0.00     0.020 A 
HETATM   29  C13 UNL     1      28.773  12.677  48.628  1.00  0.00     0.043 A 
HETATM   30  C14 UNL     1      27.704  13.403  48.125  1.00  0.00     0.116 A 
HETATM   31  F1  UNL     1      27.867  14.717  47.811  1.00  0.00    -0.206 F 
HETATM   32  C15 UNL     1      26.496  12.752  47.957  1.00  0.00     0.043 A 
HETATM   33  C16 UNL     1      26.308  11.417  48.269  1.00  0.00     0.020 A 
ENDBRANCH  24  27
ENDBRANCH   5  23
TORSDOF 8
ENDMDL
MODEL 7
REMARK VINA RESULT:      -7.8      4.377      6.153
REMARK  8 active torsions:
REMARK  status: ('A' for Active; 'I' for Inactive)
REMARK    1  A    between atoms: N1_1  and  C1_2 
REMARK    2  A    between atoms: C2_3  and  C3_4 
REMARK    3  A    between atoms: C3_4  and  C4_5 
REMARK    4  A    between atoms: C4_5  and  C19_25 
REMARK    5  A    between atoms: N2_6  and  C5_7 
REMARK    6  A    between atoms: C5_7  and  N3_8 
REMARK    7  A    between atoms: C9_12  and  N4_13 
REMARK       I    between atoms: N4_13  and  C10_14 
REMARK    8  A    between atoms: C10_14  and  C11_16 
ROOT
HETATM    1  N3  UNL     1      22.914   5.495  51.053  1.00  0.00    -0.348 N 
HETATM    2  C6  UNL     1      22.308   5.542  49.760  1.00  0.00     0.092 C 
HETATM    3  C7  UNL     1      22.764   5.858  48.558  1.00  0.00     0.019 C 
HETATM    4  C8  UNL     1      24.124   6.278  48.189  1.00  0.00     0.031 C 
HETATM    5  C9  UNL     1      25.063   6.649  49.069  1.00  0.00     0.036 C 
HETATM    6  C17 UNL     1      25.031   6.741  50.538  1.00  0.00     0.046 C 
HETATM    7  C18 UNL     1      24.113   6.246  51.351  1.00  0.00     0.094 C 
ENDROOT
BRANCH   1   8
HETATM    8  C5  UNL     1      22.306   4.659  52.105  1.00  0.00     0.277 C 
BRANCH   8   9
HETATM    9  N2  UNL     1      22.409   3.284  51.902  1.00  0.00    -0.273 NA
HETATM   10  C4  UNL     1      23.283   2.405  51.917  1.00  0.00     0.045 C 
BRANCH  10  11
HETATM   11  C3  UNL     1      22.631   1.097  51.589  1.00  0.00     0.088 C 
BRANCH  11  12
HETATM   12  C2  UNL     1      21.961   0.558  52.827  1.00  0.00    -0.004 C 
HETATM   13  C1  UNL     1      21.032   0.626  53.748  1.00  0.00     0.076 C 
BRANCH  13  14
HETATM   14  N1  UNL     1      20.579  -0.050  54.889  1.00  0.00    -0.408 N 
HETATM   15  H1  UNL     1      20.298  -1.066  54.910  1.00  0.00     0.155 HD
HETATM   16  H2  UNL     1      20.554   0.589  55.732  1.00  0.00     0.155 HD
ENDBRANCH  13  14
ENDBRANCH  11  12
ENDBRANCH  10  11
BRANCH  10  17
HETATM   17  C19 UNL     1      24.694   2.341  52.182  1.00  0.00     0.006 A 
HETATM   18  C20 UNL     1      25.286   2.032  53.388  1.00  0.00     0.016 A 
HETATM   19  C21 UNL     1      26.636   1.979  53.650  1.00  0.00     0.020 A 
HETATM   20  C22 UNL     1      27.499   2.263  52.612  1.00  0.00     0.116 A 
HETATM   21  N5  UNL     1      26.956   2.573  51.407  1.00  0.00    -0.272 NA
HETATM   22  C23 UNL     1      25.637   2.607  51.216  1.00  0.00     0.129 A 
ENDBRANCH  10  17
ENDBRANCH   8   9
ENDBRANCH   1   8
BRANCH   5  23
HETATM   23  N4  UNL     1      26.325   7.025  48.533  1.00  0.00    -0.323 N 
HETATM   24  C10 UNL     1      27.366   6.060  48.405  1.00  0.00     0.256 C 
HETATM   25  O1  UNL     1      27.020   4.911  48.812  1.00  0.00    -0.267 OA
HETATM   26  H12 UNL     1      26.495   8.021  48.226  1.00  0.00     0.169 HD
BRANCH  24  27
HETATM   27  C11 UNL     1      28.674   6.375  47.868  1.00  0.00     0.032 A 
HETATM   28  C12 UNL     1      28.971   7.499  47.121  1.00  0.00     0.020 A 
HETATM   29  C13 UNL     1      30.241   7.743  46.636  1.00  0.00     0.043 A 
HETATM   30  C14 UNL     1      31.256   6.837  46.901  1.00  0.00     0.116 A 
HETATM   31  F1  UNL     1      32.510   7.070  46.427  1.00  0.00    -0.206 F 
HETATM   32  C15 UNL     1      30.949   5.715  47.649  1.00  0.00     0.043 A 
HETATM   33  C16 UNL     1      29.681   5.459  48.141  1.00  0.00     0.020 A 
ENDBRANCH  24  27
ENDBRANCH   5  23
TORSDOF 8
ENDMDL
MODEL 8
REMARK VINA RESULT:      -7.8      3.653      4.971
REMARK  8 active torsions:
REMARK  status: ('A' for Active; 'I' for Inactive)
REMARK    1  A    between atoms: N1_1  and  C1_2 
REMARK    2  A    between atoms: C2_3  and  C3_4 
REMARK    3  A    between atoms: C3_4  and  C4_5 
REMARK    4  A    between atoms: C4_5  and  C19_25 
REMARK    5  A    between atoms: N2_6  and  C5_7 
REMARK    6  A    between atoms: C5_7  and  N3_8 
REMARK    7  A    between atoms: C9_12  and  N4_13 
REMARK       I    between atoms: N4_13  and  C10_14 
REMARK    8  A    between atoms: C10_14  and  C11_16 
ROOT
HETATM    1  N3  UNL     1      21.168   3.417  51.284  1.00  0.00    -0.348 N 
HETATM    2  C6  UNL     1      21.261   2.412  50.273  1.00  0.00     0.092 C 
HETATM    3  C7  UNL     1      22.044   2.263  49.216  1.00  0.00     0.019 C 
HETATM    4  C8  UNL     1      23.117   3.154  48.751  1.00  0.00     0.031 C 
HETATM    5  C9  UNL     1      23.306   4.402  49.200  1.00  0.00     0.036 C 
HETATM    6  C17 UNL     1      22.571   5.193  50.200  1.00  0.00     0.046 C 
HETATM    7  C18 UNL     1      21.675   4.754  51.067  1.00  0.00     0.094 C 
ENDROOT
BRANCH   1   8
HETATM    8  C5  UNL     1      20.545   3.083  52.578  1.00  0.00     0.277 C 
BRANCH   8   9
HETATM    9  N2  UNL     1      20.040   1.787  52.674  1.00  0.00    -0.273 NA
HETATM   10  C4  UNL     1      20.418   0.667  53.046  1.00  0.00     0.045 C 
BRANCH  10  11
HETATM   11  C3  UNL     1      19.286  -0.295  52.850  1.00  0.00     0.088 C 
BRANCH  11  12
HETATM   12  C2  UNL     1      18.578   0.036  51.560  1.00  0.00    -0.004 C 
HETATM   13  C1  UNL     1      17.672  -0.227  50.652  1.00  0.00     0.076 C 
BRANCH  13  14
HETATM   14  N1  UNL     1      17.165   0.272  49.444  1.00  0.00    -0.408 N 
HETATM   15  H1  UNL     1      16.726  -0.320  48.690  1.00  0.00     0.155 HD
HETATM   16  H2  UNL     1      17.278   1.322  49.382  1.00  0.00     0.155 HD
ENDBRANCH  13  14
ENDBRANCH  11  12
ENDBRANCH  10  11
BRANCH  10  17
HETATM   17  C19 UNL     1      21.614   0.104  53.612  1.00  0.00     0.006 A 
HETATM   18  C20 UNL     1      21.688  -0.706  54.725  1.00  0.00     0.016 A 
HETATM   19  C21 UNL     1      22.830  -1.239  55.277  1.00  0.00     0.020 A 
HETATM   20  C22 UNL     1      24.031  -0.943  54.668  1.00  0.00     0.116 A 
HETATM   21  N5  UNL     1      24.002  -0.148  53.568  1.00  0.00    -0.272 NA
HETATM   22  C23 UNL     1      22.860   0.339  53.080  1.00  0.00     0.129 A 
ENDBRANCH  10  17
ENDBRANCH   8   9
ENDBRANCH   1   8
BRANCH   5  23
HETATM   23  N4  UNL     1      24.396   5.121  48.638  1.00  0.00    -0.323 N 
HETATM   24  C10 UNL     1      25.709   4.964  49.171  1.00  0.00     0.256 C 
HETATM   25  O1  UNL     1      25.748   4.151  50.142  1.00  0.00    -0.267 OA
HETATM   26  H12 UNL     1      24.238   5.774  47.824  1.00  0.00     0.169 HD
BRANCH  24  27
HETATM   27  C11 UNL     1      26.864   5.666  48.648  1.00  0.00     0.032 A 
HETATM   28  C12 UNL     1      26.858   6.974  48.204  1.00  0.00     0.020 A 
HETATM   29  C13 UNL     1      27.994   7.588  47.715  1.00  0.00     0.043 A 
HETATM   30  C14 UNL     1      29.183   6.876  47.662  1.00  0.00     0.116 A 
HETATM   31  F1  UNL     1      30.308   7.473  47.182  1.00  0.00    -0.206 F 
HETATM   32  C15 UNL     1      29.179   5.567  48.108  1.00  0.00     0.043 A 
HETATM   33  C16 UNL     1      28.047   4.941  48.600  1.00  0.00     0.020 A 
ENDBRANCH  24  27
ENDBRANCH   5  23
TORSDOF 8
ENDMDL
MODEL 9
REMARK VINA RESULT:      -7.8      3.799      8.599
REMARK  8 active torsions:
REMARK  status: ('A' for Active; 'I' for Inactive)
REMARK    1  A    between atoms: N1_1  and  C1_2 
REMARK    2  A    between atoms: C2_3  and  C3_4 
REMARK    3  A    between atoms: C3_4  and  C4_5 
REMARK    4  A    between atoms: C4_5  and  C19_25 
REMARK    5  A    between atoms: N2_6  and  C5_7 
REMARK    6  A    between atoms: C5_7  and  N3_8 
REMARK    7  A    between atoms: C9_12  and  N4_13 
REMARK       I    between atoms: N4_13  and  C10_14 
REMARK    8  A    between atoms: C10_14  and  C11_16 
ROOT
HETATM    1  N3  UNL     1      21.916   2.823  51.660  1.00  0.00    -0.348 N 
HETATM    2  C6  UNL     1      20.826   3.743  51.591  1.00  0.00     0.092 C 
HETATM    3  C7  UNL     1      19.511   3.588  51.580  1.00  0.00     0.019 C 
HETATM    4  C8  UNL     1      18.748   2.332  51.640  1.00  0.00     0.031 C 
HETATM    5  C9  UNL     1      19.283   1.117  51.465  1.00  0.00     0.036 C 
HETATM    6  C17 UNL     1      20.667   0.699  51.186  1.00  0.00     0.046 C 
HETATM    7  C18 UNL     1      21.760   1.438  51.276  1.00  0.00     0.094 C 
ENDROOT
BRANCH   1   8
HETATM    8  C5  UNL     1      23.230   3.295  52.135  1.00  0.00     0.277 C 
BRANCH   8   9
HETATM    9  N2  UNL     1      24.299   3.025  51.281  1.00  0.00    -0.273 NA
HETATM   10  C4  UNL     1      25.380   2.419  51.308  1.00  0.00     0.045 C 
BRANCH  10  11
HETATM   11  C3  UNL     1      26.028   2.565  49.965  1.00  0.00     0.088 C 
BRANCH  11  12
HETATM   12  C2  UNL     1      26.526   3.979  49.811  1.00  0.00    -0.004 C 
HETATM   13  C1  UNL     1      26.406   5.188  49.322  1.00  0.00     0.076 C 
BRANCH  13  14
HETATM   14  N1  UNL     1      27.053   6.432  49.322  1.00  0.00    -0.408 N 
HETATM   15  H1  UNL     1      27.435   6.907  48.462  1.00  0.00     0.155 HD
HETATM   16  H2  UNL     1      27.111   6.837  50.298  1.00  0.00     0.155 HD
ENDBRANCH  13  14
ENDBRANCH  11  12
ENDBRANCH  10  11
BRANCH  10  17
HETATM   17  C19 UNL     1      26.111   1.632  52.263  1.00  0.00     0.006 A 
HETATM   18  C20 UNL     1      26.749   0.435  52.017  1.00  0.00     0.016 A 
HETATM   19  C21 UNL     1      27.443  -0.328  52.928  1.00  0.00     0.020 A 
HETATM   20  C22 UNL     1      27.515   0.137  54.225  1.00  0.00     0.116 A 
HETATM   21  N5  UNL     1      26.899   1.313  54.509  1.00  0.00    -0.272 NA
HETATM   22  C23 UNL     1      26.242   2.007  53.580  1.00  0.00     0.129 A 
ENDBRANCH  10  17
ENDBRANCH   8   9
ENDBRANCH   1   8
BRANCH   5  23
HETATM   23  N4  UNL     1      18.394   0.011  51.557  1.00  0.00    -0.323 N 
HETATM   24  C10 UNL     1      18.361  -0.785  52.739  1.00  0.00     0.256 C 
HETATM   25  O1  UNL     1      19.181  -0.387  53.620  1.00  0.00    -0.267 OA
HETATM   26  H12 UNL     1      17.753  -0.224  50.752  1.00  0.00     0.169 HD
BRANCH  24  27
HETATM   27  C11 UNL     1      17.481  -1.925  52.900  1.00  0.00     0.032 A 
HETATM   28  C12 UNL     1      17.791  -3.068  53.610  1.00  0.00     0.020 A 
HETATM   29  C13 UNL     1      16.907  -4.122  53.727  1.00  0.00     0.043 A 
HETATM   30  C14 UNL     1      15.667  -4.041  53.113  1.00  0.00     0.116 A 
HETATM   31  F1  UNL     1      14.789  -5.075  53.223  1.00  0.00    -0.206 F 
HETATM   32  C15 UNL     1      15.364  -2.892  52.404  1.00  0.00     0.043 A 
HETATM   33  C16 UNL     1      16.242  -1.829  52.280  1.00  0.00     0.020 A 
ENDBRANCH  24  27
ENDBRANCH   5  23
TORSDOF 8
ENDMDL
