MODEL 1
REMARK VINA RESULT:      -8.0      0.000      0.000
REMARK  6 active torsions:
REMARK  status: ('A' for Active; 'I' for Inactive)
REMARK    1  A    between atoms: O1_2  and  C2_3 
REMARK    2  A    between atoms: C6_8  and  N1_9 
REMARK    3  A    between atoms: N1_9  and  C7_10 
REMARK    4  A    between atoms: C14_19  and  C15_20 
REMARK    5  A    between atoms: C15_20  and  N2_21 
REMARK    6  A    between atoms: N2_21  and  C16_22 
ROOT
HETATM    1  C2  UNL     1      23.511   0.290  53.380  1.00  0.00     0.063 A 
HETATM    2  C3  UNL     1      23.324   1.241  52.485  1.00  0.00     0.032 A 
HETATM    3  C4  UNL     1      24.454   1.623  51.696  1.00  0.00    -0.019 A 
HETATM    4  C5  UNL     1      24.268   2.575  50.801  1.00  0.00     0.030 A 
HETATM    5  P1  UNL     1      22.384   3.048  50.995  1.00  0.00    -0.002 P 
HETATM    6  C6  UNL     1      22.055   1.902  52.271  1.00  0.00     0.059 A 
HETATM    7  C13 UNL     1      25.729   0.953  51.918  1.00  0.00     0.017 A 
HETATM    8  C14 UNL     1      25.886   0.010  52.816  1.00  0.00    -0.045 A 
HETATM    9  C19 UNL     1      24.773  -0.433  53.659  1.00  0.00     0.101 A 
ENDROOT
BRANCH   6  10
HETATM   10  N1  UNL     1      20.805   1.737  52.882  1.00  0.00    -0.354 N 
HETATM   11  H5  UNL     1      20.800   2.236  53.800  1.00  0.00     0.166 HD
BRANCH  10  12
HETATM   12  C7  UNL     1      19.727   1.018  52.354  1.00  0.00     0.034 A 
HETATM   13  C8  UNL     1      19.118   1.470  51.210  1.00  0.00     0.032 A 
HETATM   14  C9  UNL     1      18.052   0.688  50.759  1.00  0.00     0.046 A 
HETATM   15  C10 UNL     1      17.597  -0.459  51.368  1.00  0.00     0.138 A 
HETATM   16  F1  UNL     1      16.559  -1.162  50.870  1.00  0.00    -0.204 F 
HETATM   17  C11 UNL     1      18.265  -0.843  52.514  1.00  0.00     0.074 A 
HETATM   18 CL1  UNL     1      17.766  -2.295  53.373  1.00  0.00    -0.081 Cl
HETATM   19  C12 UNL     1      19.339  -0.116  53.029  1.00  0.00     0.056 A 
ENDBRANCH  10  12
ENDBRANCH   6  10
BRANCH   1  20
HETATM   20  O1  UNL     1      22.534  -0.195  54.219  1.00  0.00    -0.359 OA
HETATM   21  C1  UNL     1      22.775  -1.290  55.080  1.00  0.00     0.209 C 
ENDBRANCH   1  20
BRANCH   8  22
HETATM   22  C15 UNL     1      27.111  -0.766  53.162  1.00  0.00     0.304 C 
BRANCH  22  23
HETATM   23  N2  UNL     1      27.563  -0.573  54.504  1.00  0.00     0.091 N 
HETATM   24  H12 UNL     1      26.968   0.044  55.065  1.00  0.00     0.316 HD
BRANCH  23  25
HETATM   25  C16 UNL     1      28.953  -0.130  54.493  1.00  0.00     0.212 C 
HETATM   26  C17 UNL     1      29.758  -0.923  53.508  1.00  0.00     0.042 C 
HETATM   27  C18 UNL     1      29.049   1.332  54.099  1.00  0.00     0.042 C 
ENDBRANCH  23  25
ENDBRANCH  22  23
ENDBRANCH   8  22
TORSDOF 6
ENDMDL
MODEL 2
REMARK VINA RESULT:      -7.8      3.764      4.815
REMARK  6 active torsions:
REMARK  status: ('A' for Active; 'I' for Inactive)
REMARK    1  A    between atoms: O1_2  and  C2_3 
REMARK    2  A    between atoms: C6_8  and  N1_9 
REMARK    3  A    between atoms: N1_9  and  C7_10 
REMARK    4  A    between atoms: C14_19  and  C15_20 
REMARK    5  A    between atoms: C15_20  and  N2_21 
REMARK    6  A    between atoms: N2_21  and  C16_22 
ROOT
HETATM    1  C2  UNL     1      24.774   1.645  51.839  1.00  0.00     0.063 A 
HETATM    2  C3  UNL     1      23.548   1.342  52.221  1.00  0.00     0.032 A 
HETATM    3  C4  UNL     1      23.397   0.213  53.085  1.00  0.00    -0.019 A 
HETATM    4  C5  UNL     1      22.170  -0.091  53.467  1.00  0.00     0.030 A 
HETATM    5  P1  UNL     1      21.055   1.256  52.600  1.00  0.00    -0.002 P 
HETATM    6  C6  UNL     1      22.376   2.084  51.813  1.00  0.00     0.059 A 
HETATM    7  C13 UNL     1      24.583  -0.530  53.491  1.00  0.00     0.017 A 
HETATM    8  C14 UNL     1      25.790  -0.206  53.095  1.00  0.00    -0.045 A 
HETATM    9  C19 UNL     1      26.022   0.938  52.211  1.00  0.00     0.101 A 
ENDROOT
BRANCH   6  10
HETATM   10  N1  UNL     1      22.226   3.209  50.991  1.00  0.00    -0.354 N 
HETATM   11  H5  UNL     1      22.125   4.062  51.585  1.00  0.00     0.166 HD
BRANCH  10  12
HETATM   12  C7  UNL     1      22.211   3.200  49.591  1.00  0.00     0.034 A 
HETATM   13  C8  UNL     1      22.113   2.000  48.931  1.00  0.00     0.032 A 
HETATM   14  C9  UNL     1      22.107   2.091  47.537  1.00  0.00     0.046 A 
HETATM   15  C10 UNL     1      22.190   3.261  46.818  1.00  0.00     0.138 A 
HETATM   16  F1  UNL     1      22.177   3.267  45.470  1.00  0.00    -0.204 F 
HETATM   17  C11 UNL     1      22.286   4.423  47.560  1.00  0.00     0.074 A 
HETATM   18 CL1  UNL     1      22.397   5.976  46.743  1.00  0.00    -0.081 Cl
HETATM   19  C12 UNL     1      22.299   4.416  48.956  1.00  0.00     0.056 A 
ENDBRANCH  10  12
ENDBRANCH   6  10
BRANCH   1  20
HETATM   20  O1  UNL     1      25.097   2.696  51.011  1.00  0.00    -0.359 OA
HETATM   21  C1  UNL     1      26.411   2.878  50.524  1.00  0.00     0.209 C 
ENDBRANCH   1  20
BRANCH   8  22
HETATM   22  C15 UNL     1      27.093  -0.857  53.418  1.00  0.00     0.304 C 
BRANCH  22  23
HETATM   23  N2  UNL     1      27.625  -0.493  54.693  1.00  0.00     0.091 N 
HETATM   24  H12 UNL     1      27.077   0.213  55.193  1.00  0.00     0.316 HD
BRANCH  23  25
HETATM   25  C16 UNL     1      29.022  -0.098  54.545  1.00  0.00     0.212 C 
HETATM   26  C17 UNL     1      29.692  -0.898  53.469  1.00  0.00     0.042 C 
HETATM   27  C18 UNL     1      29.128   1.368  54.167  1.00  0.00     0.042 C 
ENDBRANCH  23  25
ENDBRANCH  22  23
ENDBRANCH   8  22
TORSDOF 6
ENDMDL
MODEL 3
REMARK VINA RESULT:      -7.8      3.992      8.003
REMARK  6 active torsions:
REMARK  status: ('A' for Active; 'I' for Inactive)
REMARK    1  A    between atoms: O1_2  and  C2_3 
REMARK    2  A    between atoms: C6_8  and  N1_9 
REMARK    3  A    between atoms: N1_9  and  C7_10 
REMARK    4  A    between atoms: C14_19  and  C15_20 
REMARK    5  A    between atoms: C15_20  and  N2_21 
REMARK    6  A    between atoms: N2_21  and  C16_22 
ROOT
HETATM    1  C2  UNL     1      20.967   0.071  53.525  1.00  0.00     0.063 A 
HETATM    2  C3  UNL     1      21.433   0.712  52.470  1.00  0.00     0.032 A 
HETATM    3  C4  UNL     1      20.590   0.761  51.316  1.00  0.00    -0.019 A 
HETATM    4  C5  UNL     1      21.056   1.401  50.259  1.00  0.00     0.030 A 
HETATM    5  P1  UNL     1      22.816   2.028  50.821  1.00  0.00    -0.002 P 
HETATM    6  C6  UNL     1      22.729   1.352  52.429  1.00  0.00     0.059 A 
HETATM    7  C13 UNL     1      19.286   0.113  51.365  1.00  0.00     0.017 A 
HETATM    8  C14 UNL     1      18.848  -0.517  52.429  1.00  0.00    -0.045 A 
HETATM    9  C19 UNL     1      19.656  -0.608  53.647  1.00  0.00     0.101 A 
ENDROOT
BRANCH   6  10
HETATM   10  N1  UNL     1      23.743   1.462  53.389  1.00  0.00    -0.354 N 
HETATM   11  H5  UNL     1      23.380   1.981  54.219  1.00  0.00     0.166 HD
BRANCH  10  12
HETATM   12  C7  UNL     1      25.043   0.959  53.263  1.00  0.00     0.034 A 
HETATM   13  C8  UNL     1      25.221  -0.363  52.940  1.00  0.00     0.032 A 
HETATM   14  C9  UNL     1      26.552  -0.773  52.838  1.00  0.00     0.046 A 
HETATM   15  C10 UNL     1      27.648   0.034  53.033  1.00  0.00     0.138 A 
HETATM   16  F1  UNL     1      28.906  -0.436  52.916  1.00  0.00    -0.204 F 
HETATM   17  C11 UNL     1      27.381   1.351  53.356  1.00  0.00     0.074 A 
HETATM   18 CL1  UNL     1      28.709   2.472  53.628  1.00  0.00    -0.081 Cl
HETATM   19  C12 UNL     1      26.079   1.838  53.477  1.00  0.00     0.056 A 
ENDBRANCH  10  12
ENDBRANCH   6  10
BRANCH   1  20
HETATM   20  O1  UNL     1      21.646  -0.071  54.715  1.00  0.00    -0.359 OA
HETATM   21  C1  UNL     1      22.271  -1.288  55.069  1.00  0.00     0.209 C 
ENDBRANCH   1  20
BRANCH   8  22
HETATM   22  C15 UNL     1      17.552  -1.224  52.637  1.00  0.00     0.304 C 
BRANCH  22  23
HETATM   23  N2  UNL     1      17.561  -2.149  53.727  1.00  0.00     0.091 N 
HETATM   24  H12 UNL     1      18.476  -2.569  53.915  1.00  0.00     0.316 HD
BRANCH  23  25
HETATM   25  C16 UNL     1      16.528  -3.158  53.521  1.00  0.00     0.212 C 
HETATM   26  C17 UNL     1      15.707  -2.840  52.308  1.00  0.00     0.042 C 
HETATM   27  C18 UNL     1      17.148  -4.527  53.316  1.00  0.00     0.042 C 
ENDBRANCH  23  25
ENDBRANCH  22  23
ENDBRANCH   8  22
TORSDOF 6
ENDMDL
MODEL 4
REMARK VINA RESULT:      -7.8      3.725      7.856
REMARK  6 active torsions:
REMARK  status: ('A' for Active; 'I' for Inactive)
REMARK    1  A    between atoms: O1_2  and  C2_3 
REMARK    2  A    between atoms: C6_8  and  N1_9 
REMARK    3  A    between atoms: N1_9  and  C7_10 
REMARK    4  A    between atoms: C14_19  and  C15_20 
REMARK    5  A    between atoms: C15_20  and  N2_21 
REMARK    6  A    between atoms: N2_21  and  C16_22 
ROOT
HETATM    1  C2  UNL     1      23.143   1.459  52.066  1.00  0.00     0.063 A 
HETATM    2  C3  UNL     1      23.927   2.186  51.292  1.00  0.00     0.032 A 
HETATM    3  C4  UNL     1      23.427   2.526  49.997  1.00  0.00    -0.019 A 
HETATM    4  C5  UNL     1      24.210   3.254  49.222  1.00  0.00     0.030 A 
HETATM    5  P1  UNL     1      25.811   3.541  50.301  1.00  0.00    -0.002 P 
HETATM    6  C6  UNL     1      25.241   2.643  51.686  1.00  0.00     0.059 A 
HETATM    7  C13 UNL     1      22.101   2.062  49.607  1.00  0.00     0.017 A 
HETATM    8  C14 UNL     1      21.344   1.340  50.397  1.00  0.00    -0.045 A 
HETATM    9  C19 UNL     1      21.790   0.954  51.737  1.00  0.00     0.101 A 
ENDROOT
BRANCH   6  10
HETATM   10  N1  UNL     1      25.972   2.465  52.868  1.00  0.00    -0.354 N 
HETATM   11  H5  UNL     1      25.645   3.151  53.585  1.00  0.00     0.166 HD
BRANCH  10  12
HETATM   12  C7  UNL     1      26.985   1.520  53.066  1.00  0.00     0.034 A 
HETATM   13  C8  UNL     1      28.204   1.934  53.543  1.00  0.00     0.032 A 
HETATM   14  C9  UNL     1      29.151   0.921  53.707  1.00  0.00     0.046 A 
HETATM   15  C10 UNL     1      28.943  -0.410  53.430  1.00  0.00     0.138 A 
HETATM   16  F1  UNL     1      29.910  -1.332  53.616  1.00  0.00    -0.204 F 
HETATM   17  C11 UNL     1      27.690  -0.743  52.954  1.00  0.00     0.074 A 
HETATM   18 CL1  UNL     1      27.316  -2.417  52.568  1.00  0.00    -0.081 Cl
HETATM   19  C12 UNL     1      26.689   0.212  52.763  1.00  0.00     0.056 A 
ENDBRANCH  10  12
ENDBRANCH   6  10
BRANCH   1  20
HETATM   20  O1  UNL     1      23.468   1.045  53.337  1.00  0.00    -0.359 OA
HETATM   21  C1  UNL     1      23.171  -0.261  53.788  1.00  0.00     0.209 C 
ENDBRANCH   1  20
BRANCH   8  22
HETATM   22  C15 UNL     1      19.979   0.792  50.149  1.00  0.00     0.304 C 
BRANCH  22  23
HETATM   23  N2  UNL     1      18.926   1.570  50.723  1.00  0.00     0.091 N 
HETATM   24  H12 UNL     1      19.228   2.199  51.473  1.00  0.00     0.316 HD
BRANCH  23  25
HETATM   25  C16 UNL     1      17.845   0.689  51.150  1.00  0.00     0.212 C 
HETATM   26  C17 UNL     1      17.223  -0.002  49.974  1.00  0.00     0.042 C 
HETATM   27  C18 UNL     1      18.362  -0.379  52.095  1.00  0.00     0.042 C 
ENDBRANCH  23  25
ENDBRANCH  22  23
ENDBRANCH   8  22
TORSDOF 6
ENDMDL
MODEL 5
REMARK VINA RESULT:      -7.6      1.423      1.674
REMARK  6 active torsions:
REMARK  status: ('A' for Active; 'I' for Inactive)
REMARK    1  A    between atoms: O1_2  and  C2_3 
REMARK    2  A    between atoms: C6_8  and  N1_9 
REMARK    3  A    between atoms: N1_9  and  C7_10 
REMARK    4  A    between atoms: C14_19  and  C15_20 
REMARK    5  A    between atoms: C15_20  and  N2_21 
REMARK    6  A    between atoms: N2_21  and  C16_22 
ROOT
HETATM    1  C2  UNL     1      23.463   0.547  53.265  1.00  0.00     0.063 A 
HETATM    2  C3  UNL     1      23.374   1.537  52.397  1.00  0.00     0.032 A 
HETATM    3  C4  UNL     1      24.557   1.869  51.666  1.00  0.00    -0.019 A 
HETATM    4  C5  UNL     1      24.469   2.859  50.797  1.00  0.00     0.030 A 
HETATM    5  P1  UNL     1      22.614   3.449  50.936  1.00  0.00    -0.002 P 
HETATM    6  C6  UNL     1      22.160   2.286  52.157  1.00  0.00     0.059 A 
HETATM    7  C13 UNL     1      25.776   1.109  51.913  1.00  0.00     0.017 A 
HETATM    8  C14 UNL     1      25.836   0.130  52.783  1.00  0.00    -0.045 A 
HETATM    9  C19 UNL     1      24.664  -0.266  53.567  1.00  0.00     0.101 A 
ENDROOT
BRANCH   6  10
HETATM   10  N1  UNL     1      20.879   2.185  52.715  1.00  0.00    -0.354 N 
HETATM   11  H5  UNL     1      20.892   2.567  53.686  1.00  0.00     0.166 HD
BRANCH  10  12
HETATM   12  C7  UNL     1      19.751   1.655  52.076  1.00  0.00     0.034 A 
HETATM   13  C8  UNL     1      19.639   0.294  51.935  1.00  0.00     0.032 A 
HETATM   14  C9  UNL     1      18.482  -0.140  51.285  1.00  0.00     0.046 A 
HETATM   15  C10 UNL     1      17.491   0.680  50.799  1.00  0.00     0.138 A 
HETATM   16  F1  UNL     1      16.399   0.184  50.182  1.00  0.00    -0.204 F 
HETATM   17  C11 UNL     1      17.681   2.036  50.982  1.00  0.00     0.074 A 
HETATM   18 CL1  UNL     1      16.475   3.176  50.399  1.00  0.00    -0.081 Cl
HETATM   19  C12 UNL     1      18.811   2.549  51.621  1.00  0.00     0.056 A 
ENDBRANCH  10  12
ENDBRANCH   6  10
BRANCH   1  20
HETATM   20  O1  UNL     1      22.423   0.101  54.049  1.00  0.00    -0.359 OA
HETATM   21  C1  UNL     1      22.496  -1.127  54.745  1.00  0.00     0.209 C 
ENDBRANCH   1  20
BRANCH   8  22
HETATM   22  C15 UNL     1      26.994  -0.735  53.148  1.00  0.00     0.304 C 
BRANCH  22  23
HETATM   23  N2  UNL     1      27.470  -0.539  54.482  1.00  0.00     0.091 N 
HETATM   24  H12 UNL     1      26.918   0.126  55.033  1.00  0.00     0.316 HD
BRANCH  23  25
HETATM   25  C16 UNL     1      28.884  -0.180  54.448  1.00  0.00     0.212 C 
HETATM   26  C17 UNL     1      29.612  -0.977  53.408  1.00  0.00     0.042 C 
HETATM   27  C18 UNL     1      29.058   1.289  54.112  1.00  0.00     0.042 C 
ENDBRANCH  23  25
ENDBRANCH  22  23
ENDBRANCH   8  22
TORSDOF 6
ENDMDL
MODEL 6
REMARK VINA RESULT:      -7.4      4.112      8.251
REMARK  6 active torsions:
REMARK  status: ('A' for Active; 'I' for Inactive)
REMARK    1  A    between atoms: O1_2  and  C2_3 
REMARK    2  A    between atoms: C6_8  and  N1_9 
REMARK    3  A    between atoms: N1_9  and  C7_10 
REMARK    4  A    between atoms: C14_19  and  C15_20 
REMARK    5  A    between atoms: C15_20  and  N2_21 
REMARK    6  A    between atoms: N2_21  and  C16_22 
ROOT
HETATM    1  C2  UNL     1      22.156   0.123  52.659  1.00  0.00     0.063 A 
HETATM    2  C3  UNL     1      23.012   0.947  52.086  1.00  0.00     0.032 A 
HETATM    3  C4  UNL     1      22.543   1.690  50.958  1.00  0.00    -0.019 A 
HETATM    4  C5  UNL     1      23.399   2.515  50.384  1.00  0.00     0.030 A 
HETATM    5  P1  UNL     1      25.032   2.311  51.433  1.00  0.00    -0.002 P 
HETATM    6  C6  UNL     1      24.374   1.129  52.537  1.00  0.00     0.059 A 
HETATM    7  C13 UNL     1      21.169   1.501  50.510  1.00  0.00     0.017 A 
HETATM    8  C14 UNL     1      20.340   0.674  51.099  1.00  0.00    -0.045 A 
HETATM    9  C19 UNL     1      20.750  -0.119  52.259  1.00  0.00     0.101 A 
ENDROOT
BRANCH   6  10
HETATM   10  N1  UNL     1      25.091   0.547  53.591  1.00  0.00    -0.354 N 
HETATM   11  H5  UNL     1      24.446   0.373  54.394  1.00  0.00     0.166 HD
BRANCH  10  12
HETATM   12  C7  UNL     1      26.457   0.245  53.580  1.00  0.00     0.034 A 
HETATM   13  C8  UNL     1      26.873  -0.955  53.057  1.00  0.00     0.032 A 
HETATM   14  C9  UNL     1      28.253  -1.168  53.090  1.00  0.00     0.046 A 
HETATM   15  C10 UNL     1      29.180  -0.285  53.593  1.00  0.00     0.138 A 
HETATM   16  F1  UNL     1      30.499  -0.563  53.588  1.00  0.00    -0.204 F 
HETATM   17  C11 UNL     1      28.678   0.898  54.099  1.00  0.00     0.074 A 
HETATM   18 CL1  UNL     1      29.775   2.100  54.768  1.00  0.00    -0.081 Cl
HETATM   19  C12 UNL     1      27.312   1.186  54.104  1.00  0.00     0.056 A 
ENDBRANCH  10  12
ENDBRANCH   6  10
BRANCH   1  20
HETATM   20  O1  UNL     1      22.443  -0.665  53.751  1.00  0.00    -0.359 OA
HETATM   21  C1  UNL     1      21.606  -0.683  54.890  1.00  0.00     0.209 C 
ENDBRANCH   1  20
BRANCH   8  22
HETATM   22  C15 UNL     1      18.919   0.371  50.766  1.00  0.00     0.304 C 
BRANCH  22  23
HETATM   23  N2  UNL     1      17.973   0.954  51.665  1.00  0.00     0.091 N 
HETATM   24  H12 UNL     1      18.372   1.261  52.557  1.00  0.00     0.316 HD
BRANCH  23  25
HETATM   25  C16 UNL     1      16.851   0.040  51.855  1.00  0.00     0.212 C 
HETATM   26  C17 UNL     1      16.351  -0.472  50.538  1.00  0.00     0.042 C 
HETATM   27  C18 UNL     1      17.268  -1.157  52.689  1.00  0.00     0.042 C 
ENDBRANCH  23  25
ENDBRANCH  22  23
ENDBRANCH   8  22
TORSDOF 6
ENDMDL
MODEL 7
REMARK VINA RESULT:      -7.4      4.031      5.257
REMARK  6 active torsions:
REMARK  status: ('A' for Active; 'I' for Inactive)
REMARK    1  A    between atoms: O1_2  and  C2_3 
REMARK    2  A    between atoms: C6_8  and  N1_9 
REMARK    3  A    between atoms: N1_9  and  C7_10 
REMARK    4  A    between atoms: C14_19  and  C15_20 
REMARK    5  A    between atoms: C15_20  and  N2_21 
REMARK    6  A    between atoms: N2_21  and  C16_22 
ROOT
HETATM    1  C2  UNL     1      24.604   1.630  51.837  1.00  0.00     0.063 A 
HETATM    2  C3  UNL     1      23.376   1.149  51.850  1.00  0.00     0.032 A 
HETATM    3  C4  UNL     1      23.081   0.146  52.826  1.00  0.00    -0.019 A 
HETATM    4  C5  UNL     1      21.852  -0.336  52.839  1.00  0.00     0.030 A 
HETATM    5  P1  UNL     1      20.948   0.626  51.402  1.00  0.00    -0.002 P 
HETATM    6  C6  UNL     1      22.337   1.579  50.940  1.00  0.00     0.059 A 
HETATM    7  C13 UNL     1      24.133  -0.282  53.739  1.00  0.00     0.017 A 
HETATM    8  C14 UNL     1      25.346   0.214  53.704  1.00  0.00    -0.045 A 
HETATM    9  C19 UNL     1      25.720   1.243  52.732  1.00  0.00     0.101 A 
ENDROOT
BRANCH   6  10
HETATM   10  N1  UNL     1      22.340   2.523  49.905  1.00  0.00    -0.354 N 
HETATM   11  H5  UNL     1      22.363   2.029  48.985  1.00  0.00     0.166 HD
BRANCH  10  12
HETATM   12  C7  UNL     1      22.316   3.913  50.069  1.00  0.00     0.034 A 
HETATM   13  C8  UNL     1      21.677   4.448  51.160  1.00  0.00     0.032 A 
HETATM   14  C9  UNL     1      21.705   5.841  51.238  1.00  0.00     0.046 A 
HETATM   15  C10 UNL     1      22.308   6.675  50.325  1.00  0.00     0.138 A 
HETATM   16  F1  UNL     1      22.293   8.015  50.470  1.00  0.00    -0.204 F 
HETATM   17  C11 UNL     1      22.928   6.056  49.256  1.00  0.00     0.074 A 
HETATM   18 CL1  UNL     1      23.731   7.026  48.029  1.00  0.00    -0.081 Cl
HETATM   19  C12 UNL     1      22.944   4.668  49.107  1.00  0.00     0.056 A 
ENDBRANCH  10  12
ENDBRANCH   6  10
BRANCH   1  20
HETATM   20  O1  UNL     1      25.055   2.596  50.967  1.00  0.00    -0.359 OA
HETATM   21  C1  UNL     1      26.433   2.874  50.820  1.00  0.00     0.209 C 
ENDBRANCH   1  20
BRANCH   8  22
HETATM   22  C15 UNL     1      26.522  -0.114  54.559  1.00  0.00     0.304 C 
BRANCH  22  23
HETATM   23  N2  UNL     1      27.600  -0.734  53.854  1.00  0.00     0.091 N 
HETATM   24  H12 UNL     1      27.547  -1.757  53.818  1.00  0.00     0.316 HD
BRANCH  23  25
HETATM   25  C16 UNL     1      28.871  -0.271  54.399  1.00  0.00     0.212 C 
HETATM   26  C17 UNL     1      30.022  -0.956  53.725  1.00  0.00     0.042 C 
HETATM   27  C18 UNL     1      29.034   1.223  54.190  1.00  0.00     0.042 C 
ENDBRANCH  23  25
ENDBRANCH  22  23
ENDBRANCH   8  22
TORSDOF 6
ENDMDL
MODEL 8
REMARK VINA RESULT:      -7.4      4.891      8.200
REMARK  6 active torsions:
REMARK  status: ('A' for Active; 'I' for Inactive)
REMARK    1  A    between atoms: O1_2  and  C2_3 
REMARK    2  A    between atoms: C6_8  and  N1_9 
REMARK    3  A    between atoms: N1_9  and  C7_10 
REMARK    4  A    between atoms: C14_19  and  C15_20 
REMARK    5  A    between atoms: C15_20  and  N2_21 
REMARK    6  A    between atoms: N2_21  and  C16_22 
ROOT
HETATM    1  C2  UNL     1      23.811   2.481  50.494  1.00  0.00     0.063 A 
HETATM    2  C3  UNL     1      23.117   1.592  51.179  1.00  0.00     0.032 A 
HETATM    3  C4  UNL     1      21.938   1.071  50.560  1.00  0.00    -0.019 A 
HETATM    4  C5  UNL     1      21.242   0.183  51.244  1.00  0.00     0.030 A 
HETATM    5  P1  UNL     1      22.234  -0.014  52.914  1.00  0.00    -0.002 P 
HETATM    6  C6  UNL     1      23.485   1.133  52.500  1.00  0.00     0.059 A 
HETATM    7  C13 UNL     1      21.574   1.540  49.229  1.00  0.00     0.017 A 
HETATM    8  C14 UNL     1      22.283   2.425  48.571  1.00  0.00    -0.045 A 
HETATM    9  C19 UNL     1      23.502   3.002  49.142  1.00  0.00     0.101 A 
ENDROOT
BRANCH   6  10
HETATM   10  N1  UNL     1      24.562   1.462  53.333  1.00  0.00    -0.354 N 
HETATM   11  H5  UNL     1      24.277   2.228  53.982  1.00  0.00     0.166 HD
BRANCH  10  12
HETATM   12  C7  UNL     1      25.827   0.862  53.305  1.00  0.00     0.034 A 
HETATM   13  C8  UNL     1      25.964  -0.388  52.755  1.00  0.00     0.032 A 
HETATM   14  C9  UNL     1      27.261  -0.904  52.773  1.00  0.00     0.046 A 
HETATM   15  C10 UNL     1      28.363  -0.261  53.288  1.00  0.00     0.138 A 
HETATM   16  F1  UNL     1      29.587  -0.826  53.268  1.00  0.00    -0.204 F 
HETATM   17  C11 UNL     1      28.139   0.993  53.823  1.00  0.00     0.074 A 
HETATM   18 CL1  UNL     1      29.477   1.904  54.509  1.00  0.00    -0.081 Cl
HETATM   19  C12 UNL     1      26.871   1.578  53.843  1.00  0.00     0.056 A 
ENDBRANCH  10  12
ENDBRANCH   6  10
BRANCH   1  20
HETATM   20  O1  UNL     1      24.967   3.081  50.941  1.00  0.00    -0.359 OA
HETATM   21  C1  UNL     1      26.195   2.916  50.262  1.00  0.00     0.209 C 
ENDBRANCH   1  20
BRANCH   8  22
HETATM   22  C15 UNL     1      22.048   3.001  47.216  1.00  0.00     0.304 C 
BRANCH  22  23
HETATM   23  N2  UNL     1      20.925   3.883  47.145  1.00  0.00     0.091 N 
HETATM   24  H12 UNL     1      20.047   3.427  46.880  1.00  0.00     0.316 HD
BRANCH  23  25
HETATM   25  C16 UNL     1      21.242   5.009  46.273  1.00  0.00     0.212 C 
HETATM   26  C17 UNL     1      22.393   5.799  46.818  1.00  0.00     0.042 C 
HETATM   27  C18 UNL     1      21.629   4.523  44.888  1.00  0.00     0.042 C 
ENDBRANCH  23  25
ENDBRANCH  22  23
ENDBRANCH   8  22
TORSDOF 6
ENDMDL
MODEL 9
REMARK VINA RESULT:      -7.3      3.070      3.925
REMARK  6 active torsions:
REMARK  status: ('A' for Active; 'I' for Inactive)
REMARK    1  A    between atoms: O1_2  and  C2_3 
REMARK    2  A    between atoms: C6_8  and  N1_9 
REMARK    3  A    between atoms: N1_9  and  C7_10 
REMARK    4  A    between atoms: C14_19  and  C15_20 
REMARK    5  A    between atoms: C15_20  and  N2_21 
REMARK    6  A    between atoms: N2_21  and  C16_22 
ROOT
HETATM    1  C2  UNL     1      23.965   1.545  52.373  1.00  0.00     0.063 A 
HETATM    2  C3  UNL     1      22.964   0.879  52.917  1.00  0.00     0.032 A 
HETATM    3  C4  UNL     1      23.291  -0.316  53.631  1.00  0.00    -0.019 A 
HETATM    4  C5  UNL     1      22.290  -0.983  54.175  1.00  0.00     0.030 A 
HETATM    5  P1  UNL     1      20.711   0.064  53.708  1.00  0.00    -0.002 P 
HETATM    6  C6  UNL     1      21.582   1.293  52.824  1.00  0.00     0.059 A 
HETATM    7  C13 UNL     1      24.686  -0.727  53.719  1.00  0.00     0.017 A 
HETATM    8  C14 UNL     1      25.661  -0.045  53.168  1.00  0.00    -0.045 A 
HETATM    9  C19 UNL     1      25.402   1.188  52.422  1.00  0.00     0.101 A 
ENDROOT
BRANCH   6  10
HETATM   10  N1  UNL     1      20.980   2.396  52.203  1.00  0.00    -0.354 N 
HETATM   11  H5  UNL     1      20.710   3.098  52.927  1.00  0.00     0.166 HD
BRANCH  10  12
HETATM   12  C7  UNL     1      20.771   2.542  50.827  1.00  0.00     0.034 A 
HETATM   13  C8  UNL     1      20.886   1.443  50.011  1.00  0.00     0.032 A 
HETATM   14  C9  UNL     1      20.660   1.686  48.655  1.00  0.00     0.046 A 
HETATM   15  C10 UNL     1      20.342   2.909  48.111  1.00  0.00     0.138 A 
HETATM   16  F1  UNL     1      20.137   3.064  46.788  1.00  0.00    -0.204 F 
HETATM   17  C11 UNL     1      20.246   3.962  49.000  1.00  0.00     0.074 A 
HETATM   18 CL1  UNL     1      19.845   5.570  48.412  1.00  0.00    -0.081 Cl
HETATM   19  C12 UNL     1      20.458   3.801  50.370  1.00  0.00     0.056 A 
ENDBRANCH  10  12
ENDBRANCH   6  10
BRANCH   1  20
HETATM   20  O1  UNL     1      23.828   2.710  51.654  1.00  0.00    -0.359 OA
HETATM   21  C1  UNL     1      24.425   2.870  50.383  1.00  0.00     0.209 C 
ENDBRANCH   1  20
BRANCH   8  22
HETATM   22  C15 UNL     1      27.125  -0.329  53.167  1.00  0.00     0.304 C 
BRANCH  22  23
HETATM   23  N2  UNL     1      27.681  -0.527  54.469  1.00  0.00     0.091 N 
HETATM   24  H12 UNL     1      27.103  -0.164  55.233  1.00  0.00     0.316 HD
BRANCH  23  25
HETATM   25  C16 UNL     1      29.037   0.007  54.508  1.00  0.00     0.212 C 
HETATM   26  C17 UNL     1      29.935  -0.748  53.574  1.00  0.00     0.042 C 
HETATM   27  C18 UNL     1      29.053   1.465  54.088  1.00  0.00     0.042 C 
ENDBRANCH  23  25
ENDBRANCH  22  23
ENDBRANCH   8  22
TORSDOF 6
ENDMDL
