MODEL 1
REMARK VINA RESULT:      -7.5      0.000      0.000
REMARK  5 active torsions:
REMARK  status: ('A' for Active; 'I' for Inactive)
REMARK    1  A    between atoms: C2_2  and  C3_3 
REMARK       I    between atoms: C3_3  and  N1_5 
REMARK    2  A    between atoms: N1_5  and  C4_6 
REMARK    3  A    between atoms: C4_6  and  C5_7 
REMARK    4  A    between atoms: C9_13  and  N4_14 
REMARK    5  A    between atoms: N4_14  and  C10_15 
ROOT
HETATM    1  C5  UNL     1      25.314   0.308  52.834  1.00  0.00     0.005 C 
HETATM    2  C6  UNL     1      26.425   0.970  53.107  1.00  0.00     0.005 A 
HETATM    3  C7  UNL     1      26.985   0.755  54.462  1.00  0.00     0.192 A 
HETATM    4  N2  UNL     1      28.191   1.550  54.590  1.00  0.00    -0.278 NA
HETATM    5  C8  UNL     1      28.674   2.307  53.669  1.00  0.00     0.229 A 
HETATM    6  N3  UNL     1      28.084   2.467  52.387  1.00  0.00    -0.224 NA
HETATM    7  C9  UNL     1      27.003   1.837  52.090  1.00  0.00     0.137 A 
ENDROOT
BRANCH   1   8
HETATM    8  C4  UNL     1      24.674  -0.590  53.824  1.00  0.00     0.150 C 
BRANCH   8   9
HETATM    9  N1  UNL     1      23.225  -0.700  53.618  1.00  0.00    -0.358 N 
HETATM   10  C3  UNL     1      22.370  -1.277  54.585  1.00  0.00     0.217 C 
HETATM   11  O1  UNL     1      22.785  -1.732  55.680  1.00  0.00    -0.274 OA
HETATM   12  H6  UNL     1      22.784  -0.343  52.725  1.00  0.00     0.162 HD
BRANCH  10  13
HETATM   13  C2  UNL     1      20.896  -1.351  54.297  1.00  0.00     0.098 C 
HETATM   14  C1  UNL     1      20.417  -0.019  53.761  1.00  0.00     0.014 C 
ENDBRANCH  10  13
ENDBRANCH   8   9
ENDBRANCH   1   8
BRANCH   7  15
HETATM   15  N4  UNL     1      26.428   2.011  50.801  1.00  0.00    -0.341 N 
HETATM   16  H13 UNL     1      26.194   1.161  50.270  1.00  0.00     0.167 HD
BRANCH  15  17
HETATM   17  C10 UNL     1      26.196   3.318  50.287  1.00  0.00     0.031 A 
HETATM   18  C11 UNL     1      26.847   3.969  49.325  1.00  0.00     0.008 A 
HETATM   19  C12 UNL     1      26.315   5.333  49.058  1.00  0.00     0.075 A 
HETATM   20  C13 UNL     1      25.196   5.374  50.067  1.00  0.00    -0.006 A 
HETATM   21 BR1  UNL     1      24.071   6.889  50.262  1.00  0.00    -0.055 Br
HETATM   22  C14 UNL     1      25.152   4.229  50.745  1.00  0.00     0.044 A 
ENDBRANCH  15  17
ENDBRANCH   7  15
TORSDOF 5
ENDMDL
MODEL 2
REMARK VINA RESULT:      -7.3      3.035      5.385
REMARK  5 active torsions:
REMARK  status: ('A' for Active; 'I' for Inactive)
REMARK    1  A    between atoms: C2_2  and  C3_3 
REMARK       I    between atoms: C3_3  and  N1_5 
REMARK    2  A    between atoms: N1_5  and  C4_6 
REMARK    3  A    between atoms: C4_6  and  C5_7 
REMARK    4  A    between atoms: C9_13  and  N4_14 
REMARK    5  A    between atoms: N4_14  and  C10_15 
ROOT
HETATM    1  C5  UNL     1      24.948   0.001  53.845  1.00  0.00     0.005 C 
HETATM    2  C6  UNL     1      23.670  -0.322  53.942  1.00  0.00     0.005 A 
HETATM    3  C7  UNL     1      23.312  -1.186  55.092  1.00  0.00     0.192 A 
HETATM    4  N2  UNL     1      21.885  -1.440  55.045  1.00  0.00    -0.278 NA
HETATM    5  C8  UNL     1      21.085  -0.983  54.149  1.00  0.00     0.229 A 
HETATM    6  N3  UNL     1      21.497  -0.156  53.069  1.00  0.00    -0.224 NA
HETATM    7  C9  UNL     1      22.733   0.176  52.945  1.00  0.00     0.137 A 
ENDROOT
BRANCH   1   8
HETATM    8  C4  UNL     1      25.953  -0.473  54.824  1.00  0.00     0.150 C 
BRANCH   8   9
HETATM    9  N1  UNL     1      27.240  -0.790  54.192  1.00  0.00    -0.358 N 
HETATM   10  C3  UNL     1      28.387   0.014  54.377  1.00  0.00     0.217 C 
HETATM   11  O1  UNL     1      28.389   1.050  55.089  1.00  0.00    -0.274 OA
HETATM   12  H6  UNL     1      27.334  -1.644  53.574  1.00  0.00     0.162 HD
BRANCH  10  13
HETATM   13  C2  UNL     1      29.666  -0.381  53.694  1.00  0.00     0.098 C 
HETATM   14  C1  UNL     1      29.633  -1.859  53.371  1.00  0.00     0.014 C 
ENDBRANCH  10  13
ENDBRANCH   8   9
ENDBRANCH   1   8
BRANCH   7  15
HETATM   15  N4  UNL     1      23.126   1.005  51.858  1.00  0.00    -0.341 N 
HETATM   16  H13 UNL     1      23.444   0.536  50.999  1.00  0.00     0.167 HD
BRANCH  15  17
HETATM   17  C10 UNL     1      23.073   2.422  51.979  1.00  0.00     0.031 A 
HETATM   18  C11 UNL     1      23.764   3.221  52.789  1.00  0.00     0.008 A 
HETATM   19  C12 UNL     1      23.436   4.665  52.630  1.00  0.00     0.075 A 
HETATM   20  C13 UNL     1      22.393   4.573  51.546  1.00  0.00    -0.006 A 
HETATM   21 BR1  UNL     1      21.529   6.111  50.848  1.00  0.00    -0.055 Br
HETATM   22  C14 UNL     1      22.208   3.301  51.199  1.00  0.00     0.044 A 
ENDBRANCH  15  17
ENDBRANCH   7  15
TORSDOF 5
ENDMDL
MODEL 3
REMARK VINA RESULT:      -7.2      2.491      4.712
REMARK  5 active torsions:
REMARK  status: ('A' for Active; 'I' for Inactive)
REMARK    1  A    between atoms: C2_2  and  C3_3 
REMARK       I    between atoms: C3_3  and  N1_5 
REMARK    2  A    between atoms: N1_5  and  C4_6 
REMARK    3  A    between atoms: C4_6  and  C5_7 
REMARK    4  A    between atoms: C9_13  and  N4_14 
REMARK    5  A    between atoms: N4_14  and  C10_15 
ROOT
HETATM    1  C5  UNL     1      25.461   1.010  53.949  1.00  0.00     0.005 C 
HETATM    2  C6  UNL     1      24.334   0.861  53.276  1.00  0.00     0.005 A 
HETATM    3  C7  UNL     1      23.698  -0.474  53.374  1.00  0.00     0.192 A 
HETATM    4  N2  UNL     1      22.483  -0.462  52.583  1.00  0.00    -0.278 NA
HETATM    5  C8  UNL     1      22.049   0.549  51.916  1.00  0.00     0.229 A 
HETATM    6  N3  UNL     1      22.711   1.805  51.865  1.00  0.00    -0.224 NA
HETATM    7  C9  UNL     1      23.810   1.982  52.508  1.00  0.00     0.137 A 
ENDROOT
BRANCH   1   8
HETATM    8  C4  UNL     1      26.047  -0.091  54.748  1.00  0.00     0.150 C 
BRANCH   8   9
HETATM    9  N1  UNL     1      27.281  -0.617  54.150  1.00  0.00    -0.358 N 
HETATM   10  C3  UNL     1      28.544  -0.032  54.394  1.00  0.00     0.217 C 
HETATM   11  O1  UNL     1      28.702   0.972  55.133  1.00  0.00    -0.274 OA
HETATM   12  H6  UNL     1      27.246  -1.461  53.513  1.00  0.00     0.162 HD
BRANCH  10  13
HETATM   13  C2  UNL     1      29.758  -0.633  53.742  1.00  0.00     0.098 C 
HETATM   14  C1  UNL     1      29.430  -2.023  53.244  1.00  0.00     0.014 C 
ENDBRANCH  10  13
ENDBRANCH   8   9
ENDBRANCH   1   8
BRANCH   7  15
HETATM   15  N4  UNL     1      24.458   3.247  52.444  1.00  0.00    -0.341 N 
HETATM   16  H13 UNL     1      24.363   3.867  53.260  1.00  0.00     0.167 HD
BRANCH  15  17
HETATM   17  C10 UNL     1      25.200   3.617  51.287  1.00  0.00     0.031 A 
HETATM   18  C11 UNL     1      26.044   2.886  50.562  1.00  0.00     0.008 A 
HETATM   19  C12 UNL     1      26.638   3.620  49.412  1.00  0.00     0.075 A 
HETATM   20  C13 UNL     1      25.973   4.961  49.592  1.00  0.00    -0.006 A 
HETATM   21 BR1  UNL     1      26.303   6.414  48.418  1.00  0.00    -0.055 Br
HETATM   22  C14 UNL     1      25.170   4.932  50.654  1.00  0.00     0.044 A 
ENDBRANCH  15  17
ENDBRANCH   7  15
TORSDOF 5
ENDMDL
MODEL 4
REMARK VINA RESULT:      -7.1      3.055      6.015
REMARK  5 active torsions:
REMARK  status: ('A' for Active; 'I' for Inactive)
REMARK    1  A    between atoms: C2_2  and  C3_3 
REMARK       I    between atoms: C3_3  and  N1_5 
REMARK    2  A    between atoms: N1_5  and  C4_6 
REMARK    3  A    between atoms: C4_6  and  C5_7 
REMARK    4  A    between atoms: C9_13  and  N4_14 
REMARK    5  A    between atoms: N4_14  and  C10_15 
ROOT
HETATM    1  C5  UNL     1      26.330   1.598  51.710  1.00  0.00     0.005 C 
HETATM    2  C6  UNL     1      26.949   1.166  52.795  1.00  0.00     0.005 A 
HETATM    3  C7  UNL     1      28.093   1.989  53.253  1.00  0.00     0.192 A 
HETATM    4  N2  UNL     1      28.651   1.376  54.443  1.00  0.00    -0.278 NA
HETATM    5  C8  UNL     1      28.211   0.299  54.991  1.00  0.00     0.229 A 
HETATM    6  N3  UNL     1      27.105  -0.444  54.498  1.00  0.00    -0.224 NA
HETATM    7  C9  UNL     1      26.481  -0.051  53.445  1.00  0.00     0.137 A 
ENDROOT
BRANCH   1   8
HETATM    8  C4  UNL     1      26.757   2.827  51.002  1.00  0.00     0.150 C 
BRANCH   8   9
HETATM    9  N1  UNL     1      25.667   3.802  50.876  1.00  0.00    -0.358 N 
HETATM   10  C3  UNL     1      25.640   4.771  49.847  1.00  0.00     0.217 C 
HETATM   11  O1  UNL     1      26.539   4.867  48.974  1.00  0.00    -0.274 OA
HETATM   12  H6  UNL     1      24.864   3.798  51.566  1.00  0.00     0.162 HD
BRANCH  10  13
HETATM   13  C2  UNL     1      24.487   5.733  49.789  1.00  0.00     0.098 C 
HETATM   14  C1  UNL     1      24.566   6.692  50.957  1.00  0.00     0.014 C 
ENDBRANCH  10  13
ENDBRANCH   8   9
ENDBRANCH   1   8
BRANCH   7  15
HETATM   15  N4  UNL     1      25.376  -0.808  52.967  1.00  0.00    -0.341 N 
HETATM   16  H13 UNL     1      25.576  -1.567  52.301  1.00  0.00     0.167 HD
BRANCH  15  17
HETATM   17  C10 UNL     1      24.055  -0.508  53.406  1.00  0.00     0.031 A 
HETATM   18  C11 UNL     1      23.405  -0.956  54.478  1.00  0.00     0.008 A 
HETATM   19  C12 UNL     1      22.025  -0.416  54.611  1.00  0.00     0.075 A 
HETATM   20  C13 UNL     1      21.973   0.461  53.386  1.00  0.00    -0.006 A 
HETATM   21 BR1  UNL     1      20.433   1.476  52.940  1.00  0.00    -0.055 Br
HETATM   22  C14 UNL     1      23.127   0.390  52.726  1.00  0.00     0.044 A 
ENDBRANCH  15  17
ENDBRANCH   7  15
TORSDOF 5
ENDMDL
MODEL 5
REMARK VINA RESULT:      -6.9      3.693      5.859
REMARK  5 active torsions:
REMARK  status: ('A' for Active; 'I' for Inactive)
REMARK    1  A    between atoms: C2_2  and  C3_3 
REMARK       I    between atoms: C3_3  and  N1_5 
REMARK    2  A    between atoms: N1_5  and  C4_6 
REMARK    3  A    between atoms: C4_6  and  C5_7 
REMARK    4  A    between atoms: C9_13  and  N4_14 
REMARK    5  A    between atoms: N4_14  and  C10_15 
ROOT
HETATM    1  C5  UNL     1      24.634  -0.135  53.796  1.00  0.00     0.005 C 
HETATM    2  C6  UNL     1      23.359  -0.478  53.863  1.00  0.00     0.005 A 
HETATM    3  C7  UNL     1      22.982  -1.333  55.013  1.00  0.00     0.192 A 
HETATM    4  N2  UNL     1      21.561  -1.609  54.931  1.00  0.00    -0.278 NA
HETATM    5  C8  UNL     1      20.779  -1.176  54.007  1.00  0.00     0.229 A 
HETATM    6  N3  UNL     1      21.207  -0.356  52.928  1.00  0.00    -0.224 NA
HETATM    7  C9  UNL     1      22.441  -0.006  52.834  1.00  0.00     0.137 A 
ENDROOT
BRANCH   1   8
HETATM    8  C4  UNL     1      25.618  -0.582  54.809  1.00  0.00     0.150 C 
BRANCH   8   9
HETATM    9  N1  UNL     1      26.932  -0.868  54.219  1.00  0.00    -0.358 N 
HETATM   10  C3  UNL     1      28.023   0.021  54.346  1.00  0.00     0.217 C 
HETATM   11  O1  UNL     1      27.949   1.110  54.969  1.00  0.00    -0.274 OA
HETATM   12  H6  UNL     1      27.089  -1.763  53.676  1.00  0.00     0.162 HD
BRANCH  10  13
HETATM   13  C2  UNL     1      29.336  -0.348  53.712  1.00  0.00     0.098 C 
HETATM   14  C1  UNL     1      29.320  -1.812  53.329  1.00  0.00     0.014 C 
ENDBRANCH  10  13
ENDBRANCH   8   9
ENDBRANCH   1   8
BRANCH   7  15
HETATM   15  N4  UNL     1      22.851   0.815  51.748  1.00  0.00    -0.341 N 
HETATM   16  H13 UNL     1      23.860   0.982  51.637  1.00  0.00     0.167 HD
BRANCH  15  17
HETATM   17  C10 UNL     1      21.884   1.371  50.863  1.00  0.00     0.031 A 
HETATM   18  C11 UNL     1      21.440   0.897  49.701  1.00  0.00     0.008 A 
HETATM   19  C12 UNL     1      20.418   1.763  49.052  1.00  0.00     0.075 A 
HETATM   20  C13 UNL     1      20.335   2.870  50.071  1.00  0.00    -0.006 A 
HETATM   21 BR1  UNL     1      19.175   4.355  49.852  1.00  0.00    -0.055 Br
HETATM   22  C14 UNL     1      21.170   2.625  51.079  1.00  0.00     0.044 A 
ENDBRANCH  15  17
ENDBRANCH   7  15
TORSDOF 5
ENDMDL
MODEL 6
REMARK VINA RESULT:      -6.8      1.657      1.877
REMARK  5 active torsions:
REMARK  status: ('A' for Active; 'I' for Inactive)
REMARK    1  A    between atoms: C2_2  and  C3_3 
REMARK       I    between atoms: C3_3  and  N1_5 
REMARK    2  A    between atoms: N1_5  and  C4_6 
REMARK    3  A    between atoms: C4_6  and  C5_7 
REMARK    4  A    between atoms: C9_13  and  N4_14 
REMARK    5  A    between atoms: N4_14  and  C10_15 
ROOT
HETATM    1  C5  UNL     1      24.077   0.463  53.239  1.00  0.00     0.005 C 
HETATM    2  C6  UNL     1      25.337   0.572  53.625  1.00  0.00     0.005 A 
HETATM    3  C7  UNL     1      25.973  -0.679  54.101  1.00  0.00     0.192 A 
HETATM    4  N2  UNL     1      27.340  -0.380  54.481  1.00  0.00    -0.278 NA
HETATM    5  C8  UNL     1      27.888   0.781  54.408  1.00  0.00     0.229 A 
HETATM    6  N3  UNL     1      27.217   1.943  53.939  1.00  0.00    -0.224 NA
HETATM    7  C9  UNL     1      25.992   1.871  53.557  1.00  0.00     0.137 A 
ENDROOT
BRANCH   1   8
HETATM    8  C4  UNL     1      23.353  -0.828  53.283  1.00  0.00     0.150 C 
BRANCH   8   9
HETATM    9  N1  UNL     1      21.925  -0.676  52.977  1.00  0.00    -0.358 N 
HETATM   10  C3  UNL     1      20.915  -1.105  53.867  1.00  0.00     0.217 C 
HETATM   11  O1  UNL     1      21.163  -1.643  54.975  1.00  0.00    -0.274 OA
HETATM   12  H6  UNL     1      21.620  -0.232  52.065  1.00  0.00     0.162 HD
BRANCH  10  13
HETATM   13  C2  UNL     1      19.476  -0.911  53.477  1.00  0.00     0.098 C 
HETATM   14  C1  UNL     1      19.390   0.067  52.325  1.00  0.00     0.014 C 
ENDBRANCH  10  13
ENDBRANCH   8   9
ENDBRANCH   1   8
BRANCH   7  15
HETATM   15  N4  UNL     1      25.338   3.045  53.090  1.00  0.00    -0.341 N 
HETATM   16  H13 UNL     1      24.974   3.696  53.799  1.00  0.00     0.167 HD
BRANCH  15  17
HETATM   17  C10 UNL     1      25.205   3.286  51.693  1.00  0.00     0.031 A 
HETATM   18  C11 UNL     1      26.112   3.152  50.728  1.00  0.00     0.008 A 
HETATM   19  C12 UNL     1      25.603   3.500  49.374  1.00  0.00     0.075 A 
HETATM   20  C13 UNL     1      24.186   3.879  49.722  1.00  0.00    -0.006 A 
HETATM   21 BR1  UNL     1      22.942   4.444  48.405  1.00  0.00    -0.055 Br
HETATM   22  C14 UNL     1      23.989   3.750  51.032  1.00  0.00     0.044 A 
ENDBRANCH  15  17
ENDBRANCH   7  15
TORSDOF 5
ENDMDL
MODEL 7
REMARK VINA RESULT:      -6.7      3.527      6.660
REMARK  5 active torsions:
REMARK  status: ('A' for Active; 'I' for Inactive)
REMARK    1  A    between atoms: C2_2  and  C3_3 
REMARK       I    between atoms: C3_3  and  N1_5 
REMARK    2  A    between atoms: N1_5  and  C4_6 
REMARK    3  A    between atoms: C4_6  and  C5_7 
REMARK    4  A    between atoms: C9_13  and  N4_14 
REMARK    5  A    between atoms: N4_14  and  C10_15 
ROOT
HETATM    1  C5  UNL     1      23.355   1.156  51.568  1.00  0.00     0.005 C 
HETATM    2  C6  UNL     1      22.718   0.670  52.619  1.00  0.00     0.005 A 
HETATM    3  C7  UNL     1      21.455   1.358  52.980  1.00  0.00     0.192 A 
HETATM    4  N2  UNL     1      20.894   0.701  54.144  1.00  0.00    -0.278 NA
HETATM    5  C8  UNL     1      21.420  -0.306  54.746  1.00  0.00     0.229 A 
HETATM    6  N3  UNL     1      22.637  -0.919  54.346  1.00  0.00    -0.224 NA
HETATM    7  C9  UNL     1      23.282  -0.470  53.328  1.00  0.00     0.137 A 
ENDROOT
BRANCH   1   8
HETATM    8  C4  UNL     1      22.836   2.314  50.804  1.00  0.00     0.150 C 
BRANCH   8   9
HETATM    9  N1  UNL     1      23.894   3.010  50.061  1.00  0.00    -0.358 N 
HETATM   10  C3  UNL     1      24.479   4.208  50.529  1.00  0.00     0.217 C 
HETATM   11  O1  UNL     1      24.139   4.760  51.606  1.00  0.00    -0.274 OA
HETATM   12  H6  UNL     1      24.247   2.618  49.143  1.00  0.00     0.162 HD
BRANCH  10  13
HETATM   13  C2  UNL     1      25.558   4.856  49.708  1.00  0.00     0.098 C 
HETATM   14  C1  UNL     1      26.660   3.854  49.436  1.00  0.00     0.014 C 
ENDBRANCH  10  13
ENDBRANCH   8   9
ENDBRANCH   1   8
BRANCH   7  15
HETATM   15  N4  UNL     1      24.498  -1.097  52.942  1.00  0.00    -0.341 N 
HETATM   16  H13 UNL     1      24.438  -1.862  52.256  1.00  0.00     0.167 HD
BRANCH  15  17
HETATM   17  C10 UNL     1      25.736  -0.667  53.498  1.00  0.00     0.031 A 
HETATM   18  C11 UNL     1      25.956   0.144  54.531  1.00  0.00     0.008 A 
HETATM   19  C12 UNL     1      27.398   0.366  54.823  1.00  0.00     0.075 A 
HETATM   20  C13 UNL     1      28.013  -0.486  53.742  1.00  0.00    -0.006 A 
HETATM   21 BR1  UNL     1      29.892  -0.654  53.540  1.00  0.00    -0.055 Br
HETATM   22  C14 UNL     1      27.056  -1.055  53.011  1.00  0.00     0.044 A 
ENDBRANCH  15  17
ENDBRANCH   7  15
TORSDOF 5
ENDMDL
MODEL 8
REMARK VINA RESULT:      -6.7      3.956      7.419
REMARK  5 active torsions:
REMARK  status: ('A' for Active; 'I' for Inactive)
REMARK    1  A    between atoms: C2_2  and  C3_3 
REMARK       I    between atoms: C3_3  and  N1_5 
REMARK    2  A    between atoms: N1_5  and  C4_6 
REMARK    3  A    between atoms: C4_6  and  C5_7 
REMARK    4  A    between atoms: C9_13  and  N4_14 
REMARK    5  A    between atoms: N4_14  and  C10_15 
ROOT
HETATM    1  C5  UNL     1      25.000   2.683  50.874  1.00  0.00     0.005 C 
HETATM    2  C6  UNL     1      23.907   2.013  51.195  1.00  0.00     0.005 A 
HETATM    3  C7  UNL     1      22.805   2.070  50.205  1.00  0.00     0.192 A 
HETATM    4  N2  UNL     1      21.695   1.286  50.712  1.00  0.00    -0.278 NA
HETATM    5  C8  UNL     1      21.689   0.657  51.833  1.00  0.00     0.229 A 
HETATM    6  N3  UNL     1      22.785   0.644  52.738  1.00  0.00    -0.224 NA
HETATM    7  C9  UNL     1      23.862   1.287  52.456  1.00  0.00     0.137 A 
ENDROOT
BRANCH   1   8
HETATM    8  C4  UNL     1      25.111   3.442  49.607  1.00  0.00     0.150 C 
BRANCH   8   9
HETATM    9  N1  UNL     1      26.506   3.717  49.244  1.00  0.00    -0.358 N 
HETATM   10  C3  UNL     1      26.942   5.004  48.853  1.00  0.00     0.217 C 
HETATM   11  O1  UNL     1      26.173   5.996  48.789  1.00  0.00    -0.274 OA
HETATM   12  H6  UNL     1      27.227   2.942  49.268  1.00  0.00     0.162 HD
BRANCH  10  13
HETATM   13  C2  UNL     1      28.389   5.201  48.497  1.00  0.00     0.098 C 
HETATM   14  C1  UNL     1      28.581   6.579  47.902  1.00  0.00     0.014 C 
ENDBRANCH  10  13
ENDBRANCH   8   9
ENDBRANCH   1   8
BRANCH   7  15
HETATM   15  N4  UNL     1      24.948   1.262  53.375  1.00  0.00    -0.341 N 
HETATM   16  H13 UNL     1      24.947   1.965  54.126  1.00  0.00     0.167 HD
BRANCH  15  17
HETATM   17  C10 UNL     1      25.983   0.294  53.238  1.00  0.00     0.031 A 
HETATM   18  C11 UNL     1      25.910  -0.952  52.775  1.00  0.00     0.008 A 
HETATM   19  C12 UNL     1      27.213  -1.672  52.782  1.00  0.00     0.075 A 
HETATM   20  C13 UNL     1      28.098  -0.593  53.351  1.00  0.00    -0.006 A 
HETATM   21 BR1  UNL     1      29.955  -0.860  53.635  1.00  0.00    -0.055 Br
HETATM   22  C14 UNL     1      27.381   0.501  53.599  1.00  0.00     0.044 A 
ENDBRANCH  15  17
ENDBRANCH   7  15
TORSDOF 5
ENDMDL
MODEL 9
REMARK VINA RESULT:      -6.6      2.695      4.863
REMARK  5 active torsions:
REMARK  status: ('A' for Active; 'I' for Inactive)
REMARK    1  A    between atoms: C2_2  and  C3_3 
REMARK       I    between atoms: C3_3  and  N1_5 
REMARK    2  A    between atoms: N1_5  and  C4_6 
REMARK    3  A    between atoms: C4_6  and  C5_7 
REMARK    4  A    between atoms: C9_13  and  N4_14 
REMARK    5  A    between atoms: N4_14  and  C10_15 
ROOT
HETATM    1  C5  UNL     1      25.239   2.221  52.303  1.00  0.00     0.005 C 
HETATM    2  C6  UNL     1      24.150   2.311  51.559  1.00  0.00     0.005 A 
HETATM    3  C7  UNL     1      23.329   1.079  51.471  1.00  0.00     0.192 A 
HETATM    4  N2  UNL     1      22.184   1.353  50.625  1.00  0.00    -0.278 NA
HETATM    5  C8  UNL     1      21.942   2.480  50.056  1.00  0.00     0.229 A 
HETATM    6  N3  UNL     1      22.774   3.625  50.183  1.00  0.00    -0.224 NA
HETATM    7  C9  UNL     1      23.841   3.571  50.899  1.00  0.00     0.137 A 
ENDROOT
BRANCH   1   8
HETATM    8  C4  UNL     1      25.611   0.969  53.000  1.00  0.00     0.150 C 
BRANCH   8   9
HETATM    9  N1  UNL     1      27.057   0.720  52.962  1.00  0.00    -0.358 N 
HETATM   10  C3  UNL     1      27.721  -0.013  53.972  1.00  0.00     0.217 C 
HETATM   11  O1  UNL     1      27.127  -0.500  54.967  1.00  0.00    -0.274 OA
HETATM   12  H6  UNL     1      27.642   1.092  52.162  1.00  0.00     0.162 HD
BRANCH  10  13
HETATM   13  C2  UNL     1      29.205  -0.223  53.858  1.00  0.00     0.098 C 
HETATM   14  C1  UNL     1      29.482  -1.635  53.389  1.00  0.00     0.014 C 
ENDBRANCH  10  13
ENDBRANCH   8   9
ENDBRANCH   1   8
BRANCH   7  15
HETATM   15  N4  UNL     1      24.661   4.727  51.014  1.00  0.00    -0.341 N 
HETATM   16  H13 UNL     1      24.461   5.372  51.790  1.00  0.00     0.167 HD
BRANCH  15  17
HETATM   17  C10 UNL     1      25.709   4.962  50.079  1.00  0.00     0.031 A 
HETATM   18  C11 UNL     1      26.591   4.101  49.575  1.00  0.00     0.008 A 
HETATM   19  C12 UNL     1      27.547   4.717  48.615  1.00  0.00     0.075 A 
HETATM   20  C13 UNL     1      27.056   6.142  48.642  1.00  0.00    -0.006 A 
HETATM   21 BR1  UNL     1      27.868   7.506  47.602  1.00  0.00    -0.055 Br
HETATM   22  C14 UNL     1      26.023   6.252  49.473  1.00  0.00     0.044 A 
ENDBRANCH  15  17
ENDBRANCH   7  15
TORSDOF 5
ENDMDL
