MODEL 1
REMARK VINA RESULT:      -7.6      0.000      0.000
REMARK  5 active torsions:
REMARK  status: ('A' for Active; 'I' for Inactive)
REMARK    1  A    between atoms: O1_2  and  C2_3 
REMARK    2  A    between atoms: C5_6  and  C6_7 
REMARK    3  A    between atoms: C6_7  and  C7_8 
REMARK       I    between atoms: C7_8  and  N1_10 
REMARK    4  A    between atoms: N1_10  and  S1_11 
REMARK    5  A    between atoms: C10_15  and  C11_16 
ROOT
HETATM    1  C7  UNL     1      26.402   2.682  50.702  1.00  0.00     0.233 C 
HETATM    2  O2  UNL     1      27.187   2.592  51.707  1.00  0.00    -0.272 OA
HETATM    3  N1  UNL     1      25.079   2.322  51.057  1.00  0.00    -0.283 N 
HETATM    4  H8  UNL     1      24.296   2.340  50.339  1.00  0.00     0.178 HD
ENDROOT
BRANCH   1   5
HETATM    5  C6  UNL     1      26.640   3.075  49.313  1.00  0.00     0.142 C 
BRANCH   5   6
HETATM    6  C5  UNL     1      26.807   4.555  49.159  1.00  0.00    -0.049 A 
HETATM    7  C4  UNL     1      25.862   5.438  49.635  1.00  0.00     0.010 A 
HETATM    8  C3  UNL     1      26.035   6.806  49.482  1.00  0.00     0.037 A 
HETATM    9  C2  UNL     1      27.160   7.305  48.848  1.00  0.00     0.068 A 
HETATM   10  C15 UNL     1      28.096   6.423  48.375  1.00  0.00     0.037 A 
HETATM   11  C14 UNL     1      27.927   5.054  48.526  1.00  0.00     0.010 A 
BRANCH   9  12
HETATM   12  O1  UNL     1      27.223   8.689  48.754  1.00  0.00    -0.356 OA
HETATM   13  C1  UNL     1      27.691   9.416  49.863  1.00  0.00     0.210 C 
ENDBRANCH   9  12
ENDBRANCH   5   6
ENDBRANCH   1   5
BRANCH   3  14
HETATM   14  S1  UNL     1      24.611   1.836  52.625  1.00  0.00     0.049 S 
HETATM   15  O3  UNL     1      25.109   2.826  53.670  1.00  0.00    -0.245 OA
HETATM   16  C8  UNL     1      25.196   0.424  53.052  1.00  0.00     0.087 C 
HETATM   17  C9  UNL     1      24.361  -0.472  53.873  1.00  0.00     0.020 C 
HETATM   18  C10 UNL     1      23.052  -0.499  53.677  1.00  0.00    -0.019 C 
HETATM   19  C12 UNL     1      22.406   0.342  52.656  1.00  0.00     0.055 C 
HETATM   20  C13 UNL     1      22.863   1.787  52.767  1.00  0.00     0.126 C 
BRANCH  18  21
HETATM   21  C11 UNL     1      22.273  -1.390  54.502  1.00  0.00     0.265 C 
HETATM   22  O4  UNL     1      22.688  -1.662  55.670  1.00  0.00    -0.302 OA
ENDBRANCH  18  21
ENDBRANCH   3  14
TORSDOF 5
ENDMDL
MODEL 2
REMARK VINA RESULT:      -7.3      2.345      3.159
REMARK  5 active torsions:
REMARK  status: ('A' for Active; 'I' for Inactive)
REMARK    1  A    between atoms: O1_2  and  C2_3 
REMARK    2  A    between atoms: C5_6  and  C6_7 
REMARK    3  A    between atoms: C6_7  and  C7_8 
REMARK       I    between atoms: C7_8  and  N1_10 
REMARK    4  A    between atoms: N1_10  and  S1_11 
REMARK    5  A    between atoms: C10_15  and  C11_16 
ROOT
HETATM    1  C7  UNL     1      26.057   2.851  50.815  1.00  0.00     0.233 C 
HETATM    2  O2  UNL     1      27.001   2.028  50.556  1.00  0.00    -0.272 OA
HETATM    3  N1  UNL     1      25.728   2.828  52.192  1.00  0.00    -0.283 N 
HETATM    4  H8  UNL     1      24.961   3.453  52.582  1.00  0.00     0.178 HD
ENDROOT
BRANCH   1   5
HETATM    5  C6  UNL     1      25.301   3.766  49.960  1.00  0.00     0.142 C 
BRANCH   5   6
HETATM    6  C5  UNL     1      26.132   4.912  49.473  1.00  0.00    -0.049 A 
HETATM    7  C4  UNL     1      25.751   6.219  49.689  1.00  0.00     0.010 A 
HETATM    8  C3  UNL     1      26.535   7.267  49.230  1.00  0.00     0.037 A 
HETATM    9  C2  UNL     1      27.714   7.015  48.547  1.00  0.00     0.068 A 
HETATM   10  C15 UNL     1      28.088   5.715  48.335  1.00  0.00     0.037 A 
HETATM   11  C14 UNL     1      27.306   4.663  48.792  1.00  0.00     0.010 A 
BRANCH   9  12
HETATM   12  O1  UNL     1      28.413   8.144  48.137  1.00  0.00    -0.356 OA
HETATM   13  C1  UNL     1      29.024   8.947  49.116  1.00  0.00     0.210 C 
ENDBRANCH   9  12
ENDBRANCH   5   6
ENDBRANCH   1   5
BRANCH   3  14
HETATM   14  S1  UNL     1      26.499   1.828  53.342  1.00  0.00     0.049 S 
HETATM   15  O3  UNL     1      26.111   2.232  54.757  1.00  0.00    -0.245 OA
HETATM   16  C8  UNL     1      28.084   1.906  53.287  1.00  0.00     0.087 C 
HETATM   17  C9  UNL     1      28.863   0.680  53.537  1.00  0.00     0.020 C 
HETATM   18  C10 UNL     1      28.395  -0.484  53.116  1.00  0.00    -0.019 C 
HETATM   19  C12 UNL     1      27.111  -0.588  52.401  1.00  0.00     0.055 C 
HETATM   20  C13 UNL     1      26.011   0.155  53.140  1.00  0.00     0.126 C 
BRANCH  18  21
HETATM   21  C11 UNL     1      29.190  -1.658  53.382  1.00  0.00     0.265 C 
HETATM   22  O4  UNL     1      28.641  -2.799  53.313  1.00  0.00    -0.302 OA
ENDBRANCH  18  21
ENDBRANCH   3  14
TORSDOF 5
ENDMDL
MODEL 3
REMARK VINA RESULT:      -6.9      2.523      7.890
REMARK  5 active torsions:
REMARK  status: ('A' for Active; 'I' for Inactive)
REMARK    1  A    between atoms: O1_2  and  C2_3 
REMARK    2  A    between atoms: C5_6  and  C6_7 
REMARK    3  A    between atoms: C6_7  and  C7_8 
REMARK       I    between atoms: C7_8  and  N1_10 
REMARK    4  A    between atoms: N1_10  and  S1_11 
REMARK    5  A    between atoms: C10_15  and  C11_16 
ROOT
HETATM    1  C7  UNL     1      24.360   3.007  52.035  1.00  0.00     0.233 C 
HETATM    2  O2  UNL     1      23.334   3.145  51.284  1.00  0.00    -0.272 OA
HETATM    3  N1  UNL     1      25.515   3.548  51.421  1.00  0.00    -0.283 N 
HETATM    4  H8  UNL     1      26.459   3.517  51.908  1.00  0.00     0.178 HD
ENDROOT
BRANCH   1   5
HETATM    5  C6  UNL     1      24.522   2.409  53.360  1.00  0.00     0.142 C 
BRANCH   5   6
HETATM    6  C5  UNL     1      25.580   1.349  53.383  1.00  0.00    -0.049 A 
HETATM    7  C4  UNL     1      26.785   1.549  54.020  1.00  0.00     0.010 A 
HETATM    8  C3  UNL     1      27.752   0.555  54.030  1.00  0.00     0.037 A 
HETATM    9  C2  UNL     1      27.521  -0.655  53.397  1.00  0.00     0.068 A 
HETATM   10  C15 UNL     1      26.322  -0.849  52.764  1.00  0.00     0.037 A 
HETATM   11  C14 UNL     1      25.351   0.143  52.752  1.00  0.00     0.010 A 
BRANCH   9  12
HETATM   12  O1  UNL     1      28.562  -1.572  53.474  1.00  0.00    -0.356 OA
HETATM   13  C1  UNL     1      29.868  -1.090  53.671  1.00  0.00     0.210 C 
ENDBRANCH   9  12
ENDBRANCH   5   6
ENDBRANCH   1   5
BRANCH   3  14
HETATM   14  S1  UNL     1      25.521   4.284  49.880  1.00  0.00     0.049 S 
HETATM   15  O3  UNL     1      24.713   3.463  48.885  1.00  0.00    -0.245 OA
HETATM   16  C8  UNL     1      26.973   4.422  49.251  1.00  0.00     0.087 C 
HETATM   17  C9  UNL     1      27.288   5.621  48.453  1.00  0.00     0.020 C 
HETATM   18  C10 UNL     1      26.769   6.788  48.801  1.00  0.00    -0.019 C 
HETATM   19  C12 UNL     1      25.882   6.921  49.969  1.00  0.00     0.055 C 
HETATM   20  C13 UNL     1      24.783   5.874  49.945  1.00  0.00     0.126 C 
BRANCH  18  21
HETATM   21  C11 UNL     1      27.104   7.934  47.992  1.00  0.00     0.265 C 
HETATM   22  O4  UNL     1      27.566   8.970  48.559  1.00  0.00    -0.302 OA
ENDBRANCH  18  21
ENDBRANCH   3  14
TORSDOF 5
ENDMDL
MODEL 4
REMARK VINA RESULT:      -6.8      1.343      1.773
REMARK  5 active torsions:
REMARK  status: ('A' for Active; 'I' for Inactive)
REMARK    1  A    between atoms: O1_2  and  C2_3 
REMARK    2  A    between atoms: C5_6  and  C6_7 
REMARK    3  A    between atoms: C6_7  and  C7_8 
REMARK       I    between atoms: C7_8  and  N1_10 
REMARK    4  A    between atoms: N1_10  and  S1_11 
REMARK    5  A    between atoms: C10_15  and  C11_16 
ROOT
HETATM    1  C7  UNL     1      23.908   3.782  50.569  1.00  0.00     0.233 C 
HETATM    2  O2  UNL     1      23.522   4.482  51.568  1.00  0.00    -0.272 OA
HETATM    3  N1  UNL     1      24.184   2.450  50.959  1.00  0.00    -0.283 N 
HETATM    4  H8  UNL     1      24.518   1.731  50.251  1.00  0.00     0.178 HD
ENDROOT
BRANCH   1   5
HETATM    5  C6  UNL     1      24.100   4.123  49.159  1.00  0.00     0.142 C 
BRANCH   5   6
HETATM    6  C5  UNL     1      25.343   4.924  48.929  1.00  0.00    -0.049 A 
HETATM    7  C4  UNL     1      25.286   6.268  48.630  1.00  0.00     0.010 A 
HETATM    8  C3  UNL     1      26.450   6.994  48.420  1.00  0.00     0.037 A 
HETATM    9  C2  UNL     1      27.687   6.378  48.508  1.00  0.00     0.068 A 
HETATM   10  C15 UNL     1      27.738   5.041  48.805  1.00  0.00     0.037 A 
HETATM   11  C14 UNL     1      26.577   4.312  49.016  1.00  0.00     0.010 A 
BRANCH   9  12
HETATM   12  O1  UNL     1      28.779   7.205  48.279  1.00  0.00    -0.356 OA
HETATM   13  C1  UNL     1      29.172   7.445  46.950  1.00  0.00     0.210 C 
ENDBRANCH   9  12
ENDBRANCH   5   6
ENDBRANCH   1   5
BRANCH   3  14
HETATM   14  S1  UNL     1      24.020   1.869  52.556  1.00  0.00     0.049 S 
HETATM   15  O3  UNL     1      24.702   2.803  53.545  1.00  0.00    -0.245 OA
HETATM   16  C8  UNL     1      24.680   0.442  52.781  1.00  0.00     0.087 C 
HETATM   17  C9  UNL     1      24.017  -0.511  53.690  1.00  0.00     0.020 C 
HETATM   18  C10 UNL     1      22.695  -0.546  53.741  1.00  0.00    -0.019 C 
HETATM   19  C12 UNL     1      21.865   0.344  52.911  1.00  0.00     0.055 C 
HETATM   20  C13 UNL     1      22.330   1.786  53.019  1.00  0.00     0.126 C 
BRANCH  18  21
HETATM   21  C11 UNL     1      22.088  -1.493  54.644  1.00  0.00     0.265 C 
HETATM   22  O4  UNL     1      22.718  -1.831  55.692  1.00  0.00    -0.302 OA
ENDBRANCH  18  21
ENDBRANCH   3  14
TORSDOF 5
ENDMDL
MODEL 5
REMARK VINA RESULT:      -6.6      4.493      7.585
REMARK  5 active torsions:
REMARK  status: ('A' for Active; 'I' for Inactive)
REMARK    1  A    between atoms: O1_2  and  C2_3 
REMARK    2  A    between atoms: C5_6  and  C6_7 
REMARK    3  A    between atoms: C6_7  and  C7_8 
REMARK       I    between atoms: C7_8  and  N1_10 
REMARK    4  A    between atoms: N1_10  and  S1_11 
REMARK    5  A    between atoms: C10_15  and  C11_16 
ROOT
HETATM    1  C7  UNL     1      23.738   2.253  52.103  1.00  0.00     0.233 C 
HETATM    2  O2  UNL     1      23.998   1.771  50.948  1.00  0.00    -0.272 OA
HETATM    3  N1  UNL     1      24.886   2.234  52.931  1.00  0.00    -0.283 N 
HETATM    4  H8  UNL     1      24.847   2.600  53.929  1.00  0.00     0.178 HD
ENDROOT
BRANCH   1   5
HETATM    5  C6  UNL     1      22.505   2.793  52.677  1.00  0.00     0.142 C 
BRANCH   5   6
HETATM    6  C5  UNL     1      21.369   1.820  52.608  1.00  0.00    -0.049 A 
HETATM    7  C4  UNL     1      20.281   2.043  51.793  1.00  0.00     0.010 A 
HETATM    8  C3  UNL     1      19.238   1.130  51.743  1.00  0.00     0.037 A 
HETATM    9  C2  UNL     1      19.275  -0.021  52.513  1.00  0.00     0.068 A 
HETATM   10  C15 UNL     1      20.359  -0.238  53.322  1.00  0.00     0.037 A 
HETATM   11  C14 UNL     1      21.405   0.673  53.375  1.00  0.00     0.010 A 
BRANCH   9  12
HETATM   12  O1  UNL     1      18.175  -0.859  52.379  1.00  0.00    -0.356 OA
HETATM   13  C1  UNL     1      17.888  -1.760  53.420  1.00  0.00     0.210 C 
ENDBRANCH   9  12
ENDBRANCH   5   6
ENDBRANCH   1   5
BRANCH   3  14
HETATM   14  S1  UNL     1      26.410   1.643  52.437  1.00  0.00     0.049 S 
HETATM   15  O3  UNL     1      26.892   2.366  51.187  1.00  0.00    -0.245 OA
HETATM   16  C8  UNL     1      26.400   0.099  52.069  1.00  0.00     0.087 C 
HETATM   17  C9  UNL     1      27.580  -0.718  52.406  1.00  0.00     0.020 C 
HETATM   18  C10 UNL     1      28.250  -0.463  53.519  1.00  0.00    -0.019 C 
HETATM   19  C12 UNL     1      27.845   0.619  54.433  1.00  0.00     0.055 C 
HETATM   20  C13 UNL     1      27.618   1.918  53.679  1.00  0.00     0.126 C 
BRANCH  18  21
HETATM   21  C11 UNL     1      29.398  -1.286  53.811  1.00  0.00     0.265 C 
HETATM   22  O4  UNL     1      29.363  -2.516  53.503  1.00  0.00    -0.302 OA
ENDBRANCH  18  21
ENDBRANCH   3  14
TORSDOF 5
ENDMDL
MODEL 6
REMARK VINA RESULT:      -6.5      2.018      8.281
REMARK  5 active torsions:
REMARK  status: ('A' for Active; 'I' for Inactive)
REMARK    1  A    between atoms: O1_2  and  C2_3 
REMARK    2  A    between atoms: C5_6  and  C6_7 
REMARK    3  A    between atoms: C6_7  and  C7_8 
REMARK       I    between atoms: C7_8  and  N1_10 
REMARK    4  A    between atoms: N1_10  and  S1_11 
REMARK    5  A    between atoms: C10_15  and  C11_16 
ROOT
HETATM    1  C7  UNL     1      26.422   3.023  50.551  1.00  0.00     0.233 C 
HETATM    2  O2  UNL     1      26.527   2.835  49.290  1.00  0.00    -0.272 OA
HETATM    3  N1  UNL     1      25.944   4.326  50.831  1.00  0.00    -0.283 N 
HETATM    4  H8  UNL     1      25.798   4.652  51.832  1.00  0.00     0.178 HD
ENDROOT
BRANCH   1   5
HETATM    5  C6  UNL     1      26.703   2.152  51.692  1.00  0.00     0.142 C 
BRANCH   5   6
HETATM    6  C5  UNL     1      25.492   1.398  52.146  1.00  0.00    -0.049 A 
HETATM    7  C4  UNL     1      24.238   1.687  51.654  1.00  0.00     0.010 A 
HETATM    8  C3  UNL     1      23.128   0.977  52.088  1.00  0.00     0.037 A 
HETATM    9  C2  UNL     1      23.264  -0.035  53.024  1.00  0.00     0.068 A 
HETATM   10  C15 UNL     1      24.513  -0.319  53.511  1.00  0.00     0.037 A 
HETATM   11  C14 UNL     1      25.626   0.389  53.079  1.00  0.00     0.010 A 
BRANCH   9  12
HETATM   12  O1  UNL     1      22.084  -0.675  53.380  1.00  0.00    -0.356 OA
HETATM   13  C1  UNL     1      21.973  -1.203  54.679  1.00  0.00     0.210 C 
ENDBRANCH   9  12
ENDBRANCH   5   6
ENDBRANCH   1   5
BRANCH   3  14
HETATM   14  S1  UNL     1      25.563   5.482  49.633  1.00  0.00     0.049 S 
HETATM   15  O3  UNL     1      24.431   4.986  48.743  1.00  0.00    -0.245 OA
HETATM   16  C8  UNL     1      26.773   5.803  48.656  1.00  0.00     0.087 C 
HETATM   17  C9  UNL     1      26.943   7.184  48.169  1.00  0.00     0.020 C 
HETATM   18  C10 UNL     1      26.652   8.196  48.971  1.00  0.00    -0.019 C 
HETATM   19  C12 UNL     1      26.161   7.978  50.342  1.00  0.00     0.055 C 
HETATM   20  C13 UNL     1      25.016   6.980  50.362  1.00  0.00     0.126 C 
BRANCH  18  21
HETATM   21  C11 UNL     1      26.833   9.530  48.453  1.00  0.00     0.265 C 
HETATM   22  O4  UNL     1      26.413  10.514  49.134  1.00  0.00    -0.302 OA
ENDBRANCH  18  21
ENDBRANCH   3  14
TORSDOF 5
ENDMDL
MODEL 7
REMARK VINA RESULT:      -6.5      2.633      7.788
REMARK  5 active torsions:
REMARK  status: ('A' for Active; 'I' for Inactive)
REMARK    1  A    between atoms: O1_2  and  C2_3 
REMARK    2  A    between atoms: C5_6  and  C6_7 
REMARK    3  A    between atoms: C6_7  and  C7_8 
REMARK       I    between atoms: C7_8  and  N1_10 
REMARK    4  A    between atoms: N1_10  and  S1_11 
REMARK    5  A    between atoms: C10_15  and  C11_16 
ROOT
HETATM    1  C7  UNL     1      23.712   2.619  51.749  1.00  0.00     0.233 C 
HETATM    2  O2  UNL     1      23.806   3.547  52.624  1.00  0.00    -0.272 OA
HETATM    3  N1  UNL     1      23.523   3.159  50.454  1.00  0.00    -0.283 N 
HETATM    4  H8  UNL     1      23.424   2.525  49.606  1.00  0.00     0.178 HD
ENDROOT
BRANCH   1   5
HETATM    5  C6  UNL     1      23.765   1.161  51.867  1.00  0.00     0.142 C 
BRANCH   5   6
HETATM    6  C5  UNL     1      24.997   0.690  52.576  1.00  0.00    -0.049 A 
HETATM    7  C4  UNL     1      26.234   0.726  51.970  1.00  0.00     0.010 A 
HETATM    8  C3  UNL     1      27.363   0.285  52.643  1.00  0.00     0.037 A 
HETATM    9  C2  UNL     1      27.264  -0.199  53.937  1.00  0.00     0.068 A 
HETATM   10  C15 UNL     1      26.032  -0.233  54.536  1.00  0.00     0.037 A 
HETATM   11  C14 UNL     1      24.900   0.207  53.865  1.00  0.00     0.010 A 
BRANCH   9  12
HETATM   12  O1  UNL     1      28.461  -0.611  54.509  1.00  0.00    -0.356 OA
HETATM   13  C1  UNL     1      29.621  -0.608  53.713  1.00  0.00     0.210 C 
ENDBRANCH   9  12
ENDBRANCH   5   6
ENDBRANCH   1   5
BRANCH   3  14
HETATM   14  S1  UNL     1      23.434   4.831  50.121  1.00  0.00     0.049 S 
HETATM   15  O3  UNL     1      22.415   5.510  51.025  1.00  0.00    -0.245 OA
HETATM   16  C8  UNL     1      22.979   5.157  48.635  1.00  0.00     0.087 C 
HETATM   17  C9  UNL     1      23.578   6.316  47.948  1.00  0.00     0.020 C 
HETATM   18  C10 UNL     1      24.847   6.619  48.173  1.00  0.00    -0.019 C 
HETATM   19  C12 UNL     1      25.680   5.826  49.092  1.00  0.00     0.055 C 
HETATM   20  C13 UNL     1      24.977   5.610  50.421  1.00  0.00     0.126 C 
BRANCH  18  21
HETATM   21  C11 UNL     1      25.392   7.761  47.480  1.00  0.00     0.265 C 
HETATM   22  O4  UNL     1      26.622   7.761  47.171  1.00  0.00    -0.302 OA
ENDBRANCH  18  21
ENDBRANCH   3  14
TORSDOF 5
ENDMDL
MODEL 8
REMARK VINA RESULT:      -6.2      2.967      7.483
REMARK  5 active torsions:
REMARK  status: ('A' for Active; 'I' for Inactive)
REMARK    1  A    between atoms: O1_2  and  C2_3 
REMARK    2  A    between atoms: C5_6  and  C6_7 
REMARK    3  A    between atoms: C6_7  and  C7_8 
REMARK       I    between atoms: C7_8  and  N1_10 
REMARK    4  A    between atoms: N1_10  and  S1_11 
REMARK    5  A    between atoms: C10_15  and  C11_16 
ROOT
HETATM    1  C7  UNL     1      25.991   3.108  50.507  1.00  0.00     0.233 C 
HETATM    2  O2  UNL     1      25.754   3.040  49.252  1.00  0.00    -0.272 OA
HETATM    3  N1  UNL     1      25.561   4.347  51.038  1.00  0.00    -0.283 N 
HETATM    4  H8  UNL     1      25.683   4.572  52.071  1.00  0.00     0.178 HD
ENDROOT
BRANCH   1   5
HETATM    5  C6  UNL     1      26.605   2.157  51.434  1.00  0.00     0.142 C 
BRANCH   5   6
HETATM    6  C5  UNL     1      25.594   1.277  52.102  1.00  0.00    -0.049 A 
HETATM    7  C4  UNL     1      24.241   1.492  51.949  1.00  0.00     0.010 A 
HETATM    8  C3  UNL     1      23.320   0.666  52.577  1.00  0.00     0.037 A 
HETATM    9  C2  UNL     1      23.747  -0.387  53.368  1.00  0.00     0.068 A 
HETATM   10  C15 UNL     1      25.093  -0.597  53.518  1.00  0.00     0.037 A 
HETATM   11  C14 UNL     1      26.017   0.227  52.892  1.00  0.00     0.010 A 
BRANCH   9  12
HETATM   12  O1  UNL     1      22.734  -1.144  53.944  1.00  0.00    -0.356 OA
HETATM   13  C1  UNL     1      21.729  -0.480  54.668  1.00  0.00     0.210 C 
ENDBRANCH   9  12
ENDBRANCH   5   6
ENDBRANCH   1   5
BRANCH   3  14
HETATM   14  S1  UNL     1      24.826   5.580  50.113  1.00  0.00     0.049 S 
HETATM   15  O3  UNL     1      25.679   5.929  48.902  1.00  0.00    -0.245 OA
HETATM   16  C8  UNL     1      24.628   6.938  50.911  1.00  0.00     0.087 C 
HETATM   17  C9  UNL     1      23.418   7.740  50.657  1.00  0.00     0.020 C 
HETATM   18  C10 UNL     1      22.273   7.126  50.404  1.00  0.00    -0.019 C 
HETATM   19  C12 UNL     1      22.176   5.657  50.370  1.00  0.00     0.055 C 
HETATM   20  C13 UNL     1      23.268   5.055  49.502  1.00  0.00     0.126 C 
BRANCH  18  21
HETATM   21  C11 UNL     1      21.114   7.949  50.160  1.00  0.00     0.265 C 
HETATM   22  O4  UNL     1      20.077   7.416  49.662  1.00  0.00    -0.302 OA
ENDBRANCH  18  21
ENDBRANCH   3  14
TORSDOF 5
ENDMDL
MODEL 9
REMARK VINA RESULT:      -6.1      2.167      2.661
REMARK  5 active torsions:
REMARK  status: ('A' for Active; 'I' for Inactive)
REMARK    1  A    between atoms: O1_2  and  C2_3 
REMARK    2  A    between atoms: C5_6  and  C6_7 
REMARK    3  A    between atoms: C6_7  and  C7_8 
REMARK       I    between atoms: C7_8  and  N1_10 
REMARK    4  A    between atoms: N1_10  and  S1_11 
REMARK    5  A    between atoms: C10_15  and  C11_16 
ROOT
HETATM    1  C7  UNL     1      24.285   5.322  49.937  1.00  0.00     0.233 C 
HETATM    2  O2  UNL     1      24.590   5.716  51.115  1.00  0.00    -0.272 OA
HETATM    3  N1  UNL     1      23.416   4.206  49.985  1.00  0.00    -0.283 N 
HETATM    4  H8  UNL     1      23.062   3.750  49.092  1.00  0.00     0.178 HD
ENDROOT
BRANCH   1   5
HETATM    5  C6  UNL     1      24.672   5.815  48.615  1.00  0.00     0.142 C 
BRANCH   5   6
HETATM    6  C5  UNL     1      26.154   5.979  48.478  1.00  0.00    -0.049 A 
HETATM    7  C4  UNL     1      26.716   7.193  48.149  1.00  0.00     0.010 A 
HETATM    8  C3  UNL     1      28.091   7.324  48.026  1.00  0.00     0.037 A 
HETATM    9  C2  UNL     1      28.921   6.235  48.231  1.00  0.00     0.068 A 
HETATM   10  C15 UNL     1      28.358   5.029  48.557  1.00  0.00     0.037 A 
HETATM   11  C14 UNL     1      26.983   4.894  48.681  1.00  0.00     0.010 A 
BRANCH   9  12
HETATM   12  O1  UNL     1      30.279   6.487  48.081  1.00  0.00    -0.356 OA
HETATM   13  C1  UNL     1      30.800   7.685  48.601  1.00  0.00     0.210 C 
ENDBRANCH   9  12
ENDBRANCH   5   6
ENDBRANCH   1   5
BRANCH   3  14
HETATM   14  S1  UNL     1      22.857   3.492  51.432  1.00  0.00     0.049 S 
HETATM   15  O3  UNL     1      22.264   4.543  52.360  1.00  0.00    -0.245 OA
HETATM   16  C8  UNL     1      24.002   2.773  52.265  1.00  0.00     0.087 C 
HETATM   17  C9  UNL     1      23.678   1.529  52.988  1.00  0.00     0.020 C 
HETATM   18  C10 UNL     1      22.820   0.674  52.455  1.00  0.00    -0.019 C 
HETATM   19  C12 UNL     1      22.179   0.931  51.155  1.00  0.00     0.055 C 
HETATM   20  C13 UNL     1      21.586   2.329  51.103  1.00  0.00     0.126 C 
BRANCH  18  21
HETATM   21  C11 UNL     1      22.533  -0.530  53.196  1.00  0.00     0.265 C 
HETATM   22  O4  UNL     1      23.043  -0.678  54.347  1.00  0.00    -0.302 OA
ENDBRANCH  18  21
ENDBRANCH   3  14
TORSDOF 5
ENDMDL
