MODEL 1
REMARK VINA RESULT:      -8.3      0.000      0.000
REMARK  3 active torsions:
REMARK  status: ('A' for Active; 'I' for Inactive)
REMARK    1  A    between atoms: N1_1  and  C1_2 
REMARK    2  A    between atoms: C2_4  and  C3_5 
REMARK    3  A    between atoms: N3_15  and  C12_16 
ROOT
HETATM    1  C1  UNL     1      22.825  -0.647  53.768  1.00  0.00     0.722 A 
HETATM    2  N2  UNL     1      22.131   0.232  53.019  1.00  0.00    -0.062 NA
HETATM    3  C2  UNL     1      22.720   1.144  52.203  1.00  0.00     0.100 A 
HETATM    4  C9  UNL     1      24.098   1.141  52.168  1.00  0.00     0.043 A 
HETATM    5  C10 UNL     1      24.921   1.945  51.441  1.00  0.00     0.035 A 
HETATM    6  C11 UNL     1      26.208   1.533  51.765  1.00  0.00     0.100 A 
HETATM    7  N3  UNL     1      26.129   0.510  52.664  1.00  0.00    -0.308 N 
HETATM    8  C18 UNL     1      24.819   0.247  52.930  1.00  0.00     0.166 A 
HETATM    9  N4  UNL     1      24.185  -0.645  53.728  1.00  0.00    -0.044 NA
ENDROOT
BRANCH   3  10
HETATM   10  C3  UNL     1      21.822   2.023  51.459  1.00  0.00    -0.004 A 
HETATM   11  C4  UNL     1      21.214   2.999  52.257  1.00  0.00     0.014 A 
HETATM   12  C5  UNL     1      20.332   3.934  51.766  1.00  0.00     0.002 A 
HETATM   13  C6  UNL     1      20.035   3.901  50.413  1.00  0.00     0.019 A 
HETATM   14  C7  UNL     1      20.624   2.951  49.626  1.00  0.00     0.011 A 
HETATM   15 BR1  UNL     1      20.240   2.874  47.760  1.00  0.00    -0.051 Br
HETATM   16  C8  UNL     1      21.507   2.013  50.112  1.00  0.00     0.032 A 
ENDBRANCH   3  10
BRANCH   1  17
HETATM   17  N1  UNL     1      22.086  -1.554  54.583  1.00  0.00    -0.231 N 
HETATM   18  H1  UNL     1      21.160  -1.409  55.076  1.00  0.00     0.174 HD
HETATM   19  H2  UNL     1      22.734  -2.390  54.542  1.00  0.00     0.174 HD
ENDBRANCH   1  17
BRANCH   7  20
HETATM   20  C12 UNL     1      27.159  -0.252  53.301  1.00  0.00     0.032 C 
HETATM   21  C13 UNL     1      27.731   0.348  54.317  1.00  0.00    -0.001 C 
HETATM   22  C14 UNL     1      29.005   0.266  54.543  1.00  0.00     0.014 C 
HETATM   23  C15 UNL     1      29.784  -0.785  53.869  1.00  0.00    -0.003 C 
HETATM   24  C16 UNL     1      29.153  -1.677  53.131  1.00  0.00    -0.021 C 
HETATM   25  C17 UNL     1      27.677  -1.607  52.994  1.00  0.00     0.085 C 
ENDBRANCH   7  20
TORSDOF 3
ENDMDL
MODEL 2
REMARK VINA RESULT:      -8.2      1.635      2.726
REMARK  3 active torsions:
REMARK  status: ('A' for Active; 'I' for Inactive)
REMARK    1  A    between atoms: N1_1  and  C1_2 
REMARK    2  A    between atoms: C2_4  and  C3_5 
REMARK    3  A    between atoms: N3_15  and  C12_16 
ROOT
HETATM    1  C1  UNL     1      25.901   2.863  51.151  1.00  0.00     0.722 A 
HETATM    2  N2  UNL     1      24.568   3.007  51.030  1.00  0.00    -0.062 NA
HETATM    3  C2  UNL     1      23.670   2.200  51.653  1.00  0.00     0.100 A 
HETATM    4  C9  UNL     1      24.189   1.193  52.438  1.00  0.00     0.043 A 
HETATM    5  C10 UNL     1      23.512   0.258  53.160  1.00  0.00     0.035 A 
HETATM    6  C11 UNL     1      24.496  -0.513  53.766  1.00  0.00     0.100 A 
HETATM    7  N3  UNL     1      25.719  -0.033  53.400  1.00  0.00    -0.308 N 
HETATM    8  C18 UNL     1      25.552   1.034  52.570  1.00  0.00     0.166 A 
HETATM    9  N4  UNL     1      26.406   1.866  51.928  1.00  0.00    -0.044 NA
ENDROOT
BRANCH   3  10
HETATM   10  C3  UNL     1      22.260   2.494  51.416  1.00  0.00    -0.004 A 
HETATM   11  C4  UNL     1      21.909   3.813  51.724  1.00  0.00     0.014 A 
HETATM   12  C5  UNL     1      20.633   4.309  51.577  1.00  0.00     0.002 A 
HETATM   13  C6  UNL     1      19.654   3.454  51.100  1.00  0.00     0.019 A 
HETATM   14  C7  UNL     1      19.987   2.163  50.796  1.00  0.00     0.011 A 
HETATM   15 BR1  UNL     1      18.666   0.958  50.137  1.00  0.00    -0.051 Br
HETATM   16  C8  UNL     1      21.261   1.662  50.942  1.00  0.00     0.032 A 
ENDBRANCH   3  10
BRANCH   1  17
HETATM   17  N1  UNL     1      26.736   3.778  50.444  1.00  0.00    -0.231 N 
HETATM   18  H1  UNL     1      26.979   4.781  50.681  1.00  0.00     0.174 HD
HETATM   19  H2  UNL     1      27.025   3.159  49.636  1.00  0.00     0.174 HD
ENDBRANCH   1  17
BRANCH   7  20
HETATM   20  C12 UNL     1      27.036  -0.472  53.749  1.00  0.00     0.032 C 
HETATM   21  C13 UNL     1      27.580   0.181  54.747  1.00  0.00    -0.001 C 
HETATM   22  C14 UNL     1      28.837   0.501  54.763  1.00  0.00     0.014 C 
HETATM   23  C15 UNL     1      29.756  -0.164  53.826  1.00  0.00    -0.003 C 
HETATM   24  C16 UNL     1      29.299  -1.138  53.062  1.00  0.00    -0.021 C 
HETATM   25  C17 UNL     1      27.874  -1.544  53.163  1.00  0.00     0.085 C 
ENDBRANCH   7  20
TORSDOF 3
ENDMDL
MODEL 3
REMARK VINA RESULT:      -8.2      2.009      2.625
REMARK  3 active torsions:
REMARK  status: ('A' for Active; 'I' for Inactive)
REMARK    1  A    between atoms: N1_1  and  C1_2 
REMARK    2  A    between atoms: C2_4  and  C3_5 
REMARK    3  A    between atoms: N3_15  and  C12_16 
ROOT
HETATM    1  C1  UNL     1      23.924  -0.930  54.898  1.00  0.00     0.722 A 
HETATM    2  N2  UNL     1      22.705  -0.789  54.341  1.00  0.00    -0.062 NA
HETATM    3  C2  UNL     1      22.478  -0.059  53.219  1.00  0.00     0.100 A 
HETATM    4  C9  UNL     1      23.574   0.554  52.650  1.00  0.00     0.043 A 
HETATM    5  C10 UNL     1      23.615   1.334  51.536  1.00  0.00     0.035 A 
HETATM    6  C11 UNL     1      24.949   1.697  51.397  1.00  0.00     0.100 A 
HETATM    7  N3  UNL     1      25.665   1.137  52.414  1.00  0.00    -0.308 N 
HETATM    8  C18 UNL     1      24.826   0.417  53.210  1.00  0.00     0.166 A 
HETATM    9  N4  UNL     1      25.001  -0.323  54.331  1.00  0.00    -0.044 NA
ENDROOT
BRANCH   3  10
HETATM   10  C3  UNL     1      21.097  -0.008  52.747  1.00  0.00    -0.004 A 
HETATM   11  C4  UNL     1      20.207  -0.720  53.559  1.00  0.00     0.014 A 
HETATM   12  C5  UNL     1      18.858  -0.807  53.304  1.00  0.00     0.002 A 
HETATM   13  C6  UNL     1      18.363  -0.156  52.186  1.00  0.00     0.019 A 
HETATM   14  C7  UNL     1      19.225   0.542  51.387  1.00  0.00     0.011 A 
HETATM   15 BR1  UNL     1      18.581   1.451  49.840  1.00  0.00    -0.051 Br
HETATM   16  C8  UNL     1      20.575   0.632  51.637  1.00  0.00     0.032 A 
ENDBRANCH   3  10
BRANCH   1  17
HETATM   17  N1  UNL     1      24.028  -1.726  56.077  1.00  0.00    -0.231 N 
HETATM   18  H1  UNL     1      23.349  -2.440  56.464  1.00  0.00     0.174 HD
HETATM   19  H2  UNL     1      24.966  -1.388  56.430  1.00  0.00     0.174 HD
ENDBRANCH   1  17
BRANCH   7  20
HETATM   20  C12 UNL     1      27.062   1.205  52.718  1.00  0.00     0.032 C 
HETATM   21  C13 UNL     1      27.695   0.059  52.631  1.00  0.00    -0.001 C 
HETATM   22  C14 UNL     1      28.616  -0.289  53.474  1.00  0.00     0.014 C 
HETATM   23  C15 UNL     1      29.218   0.736  54.341  1.00  0.00    -0.003 C 
HETATM   24  C16 UNL     1      28.878   1.999  54.171  1.00  0.00    -0.021 C 
HETATM   25  C17 UNL     1      27.900   2.362  53.113  1.00  0.00     0.085 C 
ENDBRANCH   7  20
TORSDOF 3
ENDMDL
MODEL 4
REMARK VINA RESULT:      -7.7      1.622      1.887
REMARK  3 active torsions:
REMARK  status: ('A' for Active; 'I' for Inactive)
REMARK    1  A    between atoms: N1_1  and  C1_2 
REMARK    2  A    between atoms: C2_4  and  C3_5 
REMARK    3  A    between atoms: N3_15  and  C12_16 
ROOT
HETATM    1  C1  UNL     1      22.869   0.608  52.303  1.00  0.00     0.722 A 
HETATM    2  N2  UNL     1      22.440   1.491  51.380  1.00  0.00    -0.062 NA
HETATM    3  C2  UNL     1      23.270   2.329  50.707  1.00  0.00     0.100 A 
HETATM    4  C9  UNL     1      24.611   2.245  51.012  1.00  0.00     0.043 A 
HETATM    5  C10 UNL     1      25.639   2.966  50.487  1.00  0.00     0.035 A 
HETATM    6  C11 UNL     1      26.777   2.495  51.130  1.00  0.00     0.100 A 
HETATM    7  N3  UNL     1      26.413   1.520  52.011  1.00  0.00    -0.308 N 
HETATM    8  C18 UNL     1      25.063   1.346  51.955  1.00  0.00     0.166 A 
HETATM    9  N4  UNL     1      24.195   0.530  52.599  1.00  0.00    -0.044 NA
ENDROOT
BRANCH   3  10
HETATM   10  C3  UNL     1      22.641   3.224  49.740  1.00  0.00    -0.004 A 
HETATM   11  C4  UNL     1      22.058   4.353  50.326  1.00  0.00     0.014 A 
HETATM   12  C5  UNL     1      21.412   5.330  49.603  1.00  0.00     0.002 A 
HETATM   13  C6  UNL     1      21.338   5.181  48.228  1.00  0.00     0.019 A 
HETATM   14  C7  UNL     1      21.905   4.081  47.647  1.00  0.00     0.011 A 
HETATM   15 BR1  UNL     1      21.825   3.841  45.757  1.00  0.00    -0.051 Br
HETATM   16  C8  UNL     1      22.552   3.101  48.364  1.00  0.00     0.032 A 
ENDBRANCH   3  10
BRANCH   1  17
HETATM   17  N1  UNL     1      21.895  -0.217  52.938  1.00  0.00    -0.231 N 
HETATM   18  H1  UNL     1      21.380  -0.063  53.850  1.00  0.00     0.174 HD
HETATM   19  H2  UNL     1      21.852  -1.005  52.234  1.00  0.00     0.174 HD
ENDBRANCH   1  17
BRANCH   7  20
HETATM   20  C12 UNL     1      27.203   0.730  52.905  1.00  0.00     0.032 C 
HETATM   21  C13 UNL     1      27.874   1.420  53.795  1.00  0.00    -0.001 C 
HETATM   22  C14 UNL     1      29.081   1.106  54.150  1.00  0.00     0.014 C 
HETATM   23  C15 UNL     1      29.597  -0.232  53.823  1.00  0.00    -0.003 C 
HETATM   24  C16 UNL     1      28.789  -1.113  53.265  1.00  0.00    -0.021 C 
HETATM   25  C17 UNL     1      27.380  -0.740  52.981  1.00  0.00     0.085 C 
ENDBRANCH   7  20
TORSDOF 3
ENDMDL
MODEL 5
REMARK VINA RESULT:      -7.7      3.102      7.725
REMARK  3 active torsions:
REMARK  status: ('A' for Active; 'I' for Inactive)
REMARK    1  A    between atoms: N1_1  and  C1_2 
REMARK    2  A    between atoms: C2_4  and  C3_5 
REMARK    3  A    between atoms: N3_15  and  C12_16 
ROOT
HETATM    1  C1  UNL     1      26.336   3.718  50.153  1.00  0.00     0.722 A 
HETATM    2  N2  UNL     1      27.041   2.884  50.941  1.00  0.00    -0.062 NA
HETATM    3  C2  UNL     1      26.465   1.967  51.761  1.00  0.00     0.100 A 
HETATM    4  C9  UNL     1      25.087   1.919  51.761  1.00  0.00     0.043 A 
HETATM    5  C10 UNL     1      24.275   1.101  52.485  1.00  0.00     0.035 A 
HETATM    6  C11 UNL     1      22.983   1.457  52.117  1.00  0.00     0.100 A 
HETATM    7  N3  UNL     1      23.048   2.463  51.198  1.00  0.00    -0.308 N 
HETATM    8  C18 UNL     1      24.354   2.768  50.960  1.00  0.00     0.166 A 
HETATM    9  N4  UNL     1      24.976   3.666  50.158  1.00  0.00    -0.044 NA
ENDROOT
BRANCH   3  10
HETATM   10  C3  UNL     1      27.374   1.140  52.549  1.00  0.00    -0.004 A 
HETATM   11  C4  UNL     1      28.119   1.869  53.482  1.00  0.00     0.014 A 
HETATM   12  C5  UNL     1      29.037   1.293  54.331  1.00  0.00     0.002 A 
HETATM   13  C6  UNL     1      29.228  -0.077  54.251  1.00  0.00     0.019 A 
HETATM   14  C7  UNL     1      28.505  -0.797  53.341  1.00  0.00     0.011 A 
HETATM   15 BR1  UNL     1      28.740  -2.684  53.202  1.00  0.00    -0.051 Br
HETATM   16  C8  UNL     1      27.586  -0.226  52.490  1.00  0.00     0.032 A 
ENDBRANCH   3  10
BRANCH   1  17
HETATM   17  N1  UNL     1      27.062   4.635  49.337  1.00  0.00    -0.231 N 
HETATM   18  H1  UNL     1      27.839   4.443  48.644  1.00  0.00     0.174 HD
HETATM   19  H2  UNL     1      26.594   5.537  49.633  1.00  0.00     0.174 HD
ENDBRANCH   1  17
BRANCH   7  20
HETATM   20  C12 UNL     1      22.008   3.170  50.516  1.00  0.00     0.032 C 
HETATM   21  C13 UNL     1      21.399   4.076  51.242  1.00  0.00    -0.001 C 
HETATM   22  C14 UNL     1      20.119   4.275  51.172  1.00  0.00     0.014 C 
HETATM   23  C15 UNL     1      19.373   3.732  50.026  1.00  0.00    -0.003 C 
HETATM   24  C16 UNL     1      20.036   3.143  49.050  1.00  0.00    -0.021 C 
HETATM   25  C17 UNL     1      21.516   3.039  49.124  1.00  0.00     0.085 C 
ENDBRANCH   7  20
TORSDOF 3
ENDMDL
MODEL 6
REMARK VINA RESULT:      -7.7      5.606      7.227
REMARK  3 active torsions:
REMARK  status: ('A' for Active; 'I' for Inactive)
REMARK    1  A    between atoms: N1_1  and  C1_2 
REMARK    2  A    between atoms: C2_4  and  C3_5 
REMARK    3  A    between atoms: N3_15  and  C12_16 
ROOT
HETATM    1  C1  UNL     1      24.233   6.719  50.673  1.00  0.00     0.722 A 
HETATM    2  N2  UNL     1      25.165   7.096  49.776  1.00  0.00    -0.062 NA
HETATM    3  C2  UNL     1      26.080   6.243  49.248  1.00  0.00     0.100 A 
HETATM    4  C9  UNL     1      26.021   4.934  49.675  1.00  0.00     0.043 A 
HETATM    5  C10 UNL     1      26.815   3.892  49.305  1.00  0.00     0.035 A 
HETATM    6  C11 UNL     1      26.339   2.801  50.022  1.00  0.00     0.100 A 
HETATM    7  N3  UNL     1      25.289   3.206  50.793  1.00  0.00    -0.308 N 
HETATM    8  C18 UNL     1      25.072   4.536  50.593  1.00  0.00     0.166 A 
HETATM    9  N4  UNL     1      24.180   5.425  51.090  1.00  0.00    -0.044 NA
ENDROOT
BRANCH   3  10
HETATM   10  C3  UNL     1      27.021   6.813  48.288  1.00  0.00    -0.004 A 
HETATM   11  C4  UNL     1      26.419   7.687  47.375  1.00  0.00     0.014 A 
HETATM   12  C5  UNL     1      27.116   8.338  46.383  1.00  0.00     0.002 A 
HETATM   13  C6  UNL     1      28.479   8.113  46.289  1.00  0.00     0.019 A 
HETATM   14  C7  UNL     1      29.075   7.261  47.177  1.00  0.00     0.011 A 
HETATM   15 BR1  UNL     1      30.950   6.926  47.080  1.00  0.00    -0.051 Br
HETATM   16  C8  UNL     1      28.384   6.607  48.171  1.00  0.00     0.032 A 
ENDBRANCH   3  10
BRANCH   1  17
HETATM   17  N1  UNL     1      23.329   7.714  51.150  1.00  0.00    -0.231 N 
HETATM   18  H1  UNL     1      23.324   8.756  50.966  1.00  0.00     0.174 HD
HETATM   19  H2  UNL     1      22.688   7.101  51.727  1.00  0.00     0.174 HD
ENDBRANCH   1  17
BRANCH   7  20
HETATM   20  C12 UNL     1      24.464   2.471  51.702  1.00  0.00     0.032 C 
HETATM   21  C13 UNL     1      25.051   2.143  52.828  1.00  0.00    -0.001 C 
HETATM   22  C14 UNL     1      24.862   0.994  53.399  1.00  0.00     0.014 C 
HETATM   23  C15 UNL     1      23.716   0.169  52.983  1.00  0.00    -0.003 C 
HETATM   24  C16 UNL     1      22.855   0.659  52.113  1.00  0.00    -0.021 C 
HETATM   25  C17 UNL     1      23.055   2.027  51.571  1.00  0.00     0.085 C 
ENDBRANCH   7  20
TORSDOF 3
ENDMDL
MODEL 7
REMARK VINA RESULT:      -7.6      2.167      2.783
REMARK  3 active torsions:
REMARK  status: ('A' for Active; 'I' for Inactive)
REMARK    1  A    between atoms: N1_1  and  C1_2 
REMARK    2  A    between atoms: C2_4  and  C3_5 
REMARK    3  A    between atoms: N3_15  and  C12_16 
ROOT
HETATM    1  C1  UNL     1      22.081  -0.832  53.994  1.00  0.00     0.722 A 
HETATM    2  N2  UNL     1      20.971  -0.365  53.390  1.00  0.00    -0.062 NA
HETATM    3  C2  UNL     1      20.989   0.612  52.447  1.00  0.00     0.100 A 
HETATM    4  C9  UNL     1      22.225   1.128  52.119  1.00  0.00     0.043 A 
HETATM    5  C10 UNL     1      22.513   2.105  51.216  1.00  0.00     0.035 A 
HETATM    6  C11 UNL     1      23.895   2.248  51.267  1.00  0.00     0.100 A 
HETATM    7  N3  UNL     1      24.394   1.371  52.184  1.00  0.00    -0.308 N 
HETATM    8  C18 UNL     1      23.368   0.659  52.730  1.00  0.00     0.166 A 
HETATM    9  N4  UNL     1      23.297  -0.318  53.664  1.00  0.00    -0.044 NA
ENDROOT
BRANCH   3  10
HETATM   10  C3  UNL     1      19.696   1.003  51.893  1.00  0.00    -0.004 A 
HETATM   11  C4  UNL     1      18.961  -0.076  51.389  1.00  0.00     0.014 A 
HETATM   12  C5  UNL     1      17.715   0.060  50.820  1.00  0.00     0.002 A 
HETATM   13  C6  UNL     1      17.168   1.330  50.746  1.00  0.00     0.019 A 
HETATM   14  C7  UNL     1      17.880   2.390  51.237  1.00  0.00     0.011 A 
HETATM   15 BR1  UNL     1      17.160   4.154  51.154  1.00  0.00    -0.051 Br
HETATM   16  C8  UNL     1      19.126   2.260  51.806  1.00  0.00     0.032 A 
ENDBRANCH   3  10
BRANCH   1  17
HETATM   17  N1  UNL     1      21.926  -1.862  54.968  1.00  0.00    -0.231 N 
HETATM   18  H1  UNL     1      21.066  -2.133  55.523  1.00  0.00     0.174 HD
HETATM   19  H2  UNL     1      22.907  -2.257  54.960  1.00  0.00     0.174 HD
ENDBRANCH   1  17
BRANCH   7  20
HETATM   20  C12 UNL     1      25.740   1.127  52.604  1.00  0.00     0.032 C 
HETATM   21  C13 UNL     1      26.379   0.231  51.891  1.00  0.00    -0.001 C 
HETATM   22  C14 UNL     1      27.185  -0.634  52.425  1.00  0.00     0.014 C 
HETATM   23  C15 UNL     1      27.671  -0.408  53.795  1.00  0.00    -0.003 C 
HETATM   24  C16 UNL     1      27.355   0.716  54.410  1.00  0.00    -0.021 C 
HETATM   25  C17 UNL     1      26.521   1.727  53.712  1.00  0.00     0.085 C 
ENDBRANCH   7  20
TORSDOF 3
ENDMDL
MODEL 8
REMARK VINA RESULT:      -7.4      3.048      4.762
REMARK  3 active torsions:
REMARK  status: ('A' for Active; 'I' for Inactive)
REMARK    1  A    between atoms: N1_1  and  C1_2 
REMARK    2  A    between atoms: C2_4  and  C3_5 
REMARK    3  A    between atoms: N3_15  and  C12_16 
ROOT
HETATM    1  C1  UNL     1      23.928   0.502  52.914  1.00  0.00     0.722 A 
HETATM    2  N2  UNL     1      22.633   0.144  52.819  1.00  0.00    -0.062 NA
HETATM    3  C2  UNL     1      21.749   0.753  51.987  1.00  0.00     0.100 A 
HETATM    4  C9  UNL     1      22.240   1.786  51.217  1.00  0.00     0.043 A 
HETATM    5  C10 UNL     1      21.570   2.551  50.313  1.00  0.00     0.035 A 
HETATM    6  C11 UNL     1      22.516   3.440  49.818  1.00  0.00     0.100 A 
HETATM    7  N3  UNL     1      23.712   3.192  50.426  1.00  0.00    -0.308 N 
HETATM    8  C18 UNL     1      23.563   2.161  51.305  1.00  0.00     0.166 A 
HETATM    9  N4  UNL     1      24.406   1.522  52.151  1.00  0.00    -0.044 NA
ENDROOT
BRANCH   3  10
HETATM   10  C3  UNL     1      20.382   0.242  52.006  1.00  0.00    -0.004 A 
HETATM   11  C4  UNL     1      20.059  -0.433  53.188  1.00  0.00     0.014 A 
HETATM   12  C5  UNL     1      18.825  -0.996  53.423  1.00  0.00     0.002 A 
HETATM   13  C6  UNL     1      17.860  -0.884  52.436  1.00  0.00     0.019 A 
HETATM   14  C7  UNL     1      18.167  -0.227  51.277  1.00  0.00     0.011 A 
HETATM   15 BR1  UNL     1      16.865  -0.053  49.896  1.00  0.00    -0.051 Br
HETATM   16  C8  UNL     1      19.399   0.338  51.037  1.00  0.00     0.032 A 
ENDBRANCH   3  10
BRANCH   1  17
HETATM   17  N1  UNL     1      24.752  -0.220  53.827  1.00  0.00    -0.231 N 
HETATM   18  H1  UNL     1      24.749  -1.253  54.058  1.00  0.00     0.174 HD
HETATM   19  H2  UNL     1      25.345   0.577  54.190  1.00  0.00     0.174 HD
ENDBRANCH   1  17
BRANCH   7  20
HETATM   20  C12 UNL     1      24.986   3.824  50.268  1.00  0.00     0.032 C 
HETATM   21  C13 UNL     1      24.971   5.126  50.419  1.00  0.00    -0.001 C 
HETATM   22  C14 UNL     1      25.679   5.918  49.674  1.00  0.00     0.014 C 
HETATM   23  C15 UNL     1      26.779   5.356  48.876  1.00  0.00    -0.003 C 
HETATM   24  C16 UNL     1      27.083   4.079  49.011  1.00  0.00    -0.021 C 
HETATM   25  C17 UNL     1      26.313   3.238  49.963  1.00  0.00     0.085 C 
ENDBRANCH   7  20
TORSDOF 3
ENDMDL
MODEL 9
REMARK VINA RESULT:      -7.4      3.356      6.005
REMARK  3 active torsions:
REMARK  status: ('A' for Active; 'I' for Inactive)
REMARK    1  A    between atoms: N1_1  and  C1_2 
REMARK    2  A    between atoms: C2_4  and  C3_5 
REMARK    3  A    between atoms: N3_15  and  C12_16 
ROOT
HETATM    1  C1  UNL     1      25.043   2.528  53.147  1.00  0.00     0.722 A 
HETATM    2  N2  UNL     1      24.107   1.601  53.427  1.00  0.00    -0.062 NA
HETATM    3  C2  UNL     1      22.894   1.557  52.818  1.00  0.00     0.100 A 
HETATM    4  C9  UNL     1      22.644   2.527  51.872  1.00  0.00     0.043 A 
HETATM    5  C10 UNL     1      21.519   2.704  51.127  1.00  0.00     0.035 A 
HETATM    6  C11 UNL     1      21.780   3.815  50.334  1.00  0.00     0.100 A 
HETATM    7  N3  UNL     1      23.034   4.273  50.618  1.00  0.00    -0.308 N 
HETATM    8  C18 UNL     1      23.593   3.483  51.577  1.00  0.00     0.166 A 
HETATM    9  N4  UNL     1      24.790   3.484  52.211  1.00  0.00    -0.044 NA
ENDROOT
BRANCH   3  10
HETATM   10  C3  UNL     1      21.996   0.485  53.239  1.00  0.00    -0.004 A 
HETATM   11  C4  UNL     1      22.618  -0.475  54.044  1.00  0.00     0.014 A 
HETATM   12  C5  UNL     1      21.961  -1.572  54.554  1.00  0.00     0.002 A 
HETATM   13  C6  UNL     1      20.619  -1.726  54.251  1.00  0.00     0.019 A 
HETATM   14  C7  UNL     1      20.003  -0.793  53.464  1.00  0.00     0.011 A 
HETATM   15 BR1  UNL     1      18.156  -0.972  53.025  1.00  0.00    -0.051 Br
HETATM   16  C8  UNL     1      20.655   0.305  52.951  1.00  0.00     0.032 A 
ENDBRANCH   3  10
BRANCH   1  17
HETATM   17  N1  UNL     1      26.277   2.463  53.857  1.00  0.00    -0.231 N 
HETATM   18  H1  UNL     1      26.793   3.231  54.373  1.00  0.00     0.174 HD
HETATM   19  H2  UNL     1      26.507   1.441  53.711  1.00  0.00     0.174 HD
ENDBRANCH   1  17
BRANCH   7  20
HETATM   20  C12 UNL     1      23.766   5.378  50.080  1.00  0.00     0.032 C 
HETATM   21  C13 UNL     1      24.502   5.086  49.034  1.00  0.00    -0.001 C 
HETATM   22  C14 UNL     1      25.683   5.592  48.856  1.00  0.00     0.014 C 
HETATM   23  C15 UNL     1      26.082   6.771  49.640  1.00  0.00    -0.003 C 
HETATM   24  C16 UNL     1      25.197   7.344  50.432  1.00  0.00    -0.021 C 
HETATM   25  C17 UNL     1      23.821   6.793  50.517  1.00  0.00     0.085 C 
ENDBRANCH   7  20
TORSDOF 3
ENDMDL
