MODEL 1
REMARK VINA RESULT:      -7.9      0.000      0.000
REMARK  6 active torsions:
REMARK  status: ('A' for Active; 'I' for Inactive)
REMARK    1  A    between atoms: N1_1  and  C1_2 
REMARK    2  A    between atoms: C6_7  and  C7_8 
REMARK    3  A    between atoms: C8_11  and  S1_12 
REMARK    4  A    between atoms: S1_12  and  C9_13 
REMARK    5  A    between atoms: C9_13  and  C10_14 
REMARK    6  A    between atoms: C10_14  and  C11_15 
ROOT
HETATM    1  C7  UNL     1      26.597   1.985  52.017  1.00  0.00     0.205 A 
HETATM    2  N2  UNL     1      26.773   2.703  50.875  1.00  0.00    -0.120 NA
HETATM    3  N3  UNL     1      25.711   3.468  50.693  1.00  0.00    -0.114 NA
HETATM    4  C8  UNL     1      24.857   3.251  51.704  1.00  0.00     0.231 A 
HETATM    5  O1  UNL     1      25.426   2.367  52.457  1.00  0.00    -0.263 OA
ENDROOT
BRANCH   1   6
HETATM    6  C6  UNL     1      27.498   0.995  52.645  1.00  0.00     0.045 A 
HETATM    7  C1  UNL     1      28.617   1.451  53.312  1.00  0.00     0.040 A 
HETATM    8  C2  UNL     1      29.438   0.482  53.890  1.00  0.00     0.030 A 
HETATM    9  C3  UNL     1      29.131  -0.861  53.789  1.00  0.00     0.002 A 
HETATM   10  C4  UNL     1      27.990  -1.245  53.106  1.00  0.00     0.001 A 
HETATM   11  C5  UNL     1      27.142  -0.328  52.515  1.00  0.00     0.018 A 
BRANCH   7  12
HETATM   12  N1  UNL     1      28.851   2.853  53.362  1.00  0.00    -0.398 N 
HETATM   13  H1  UNL     1      29.166   3.519  54.085  1.00  0.00     0.156 HD
HETATM   14  H2  UNL     1      28.715   3.490  52.551  1.00  0.00     0.156 HD
ENDBRANCH   7  12
ENDBRANCH   1   6
BRANCH   4  15
HETATM   15  S1  UNL     1      23.240   3.854  52.207  1.00  0.00    -0.082 SA
BRANCH  15  16
HETATM   16  C9  UNL     1      21.961   2.882  51.357  1.00  0.00     0.087 C 
BRANCH  16  17
HETATM   17  C10 UNL     1      22.472   1.458  51.287  1.00  0.00     0.049 C 
BRANCH  17  18
HETATM   18  C11 UNL     1      22.211   0.721  52.551  1.00  0.00    -0.057 A 
HETATM   19  C12 UNL     1      23.214  -0.120  53.010  1.00  0.00     0.007 A 
HETATM   20  C13 UNL     1      23.060  -0.854  54.189  1.00  0.00     0.001 A 
HETATM   21  C14 UNL     1      21.866  -0.720  54.901  1.00  0.00     0.000 A 
HETATM   22  C15 UNL     1      20.854   0.110  54.464  1.00  0.00     0.001 A 
HETATM   23  C16 UNL     1      21.075   0.802  53.296  1.00  0.00     0.007 A 
ENDBRANCH  17  18
ENDBRANCH  16  17
ENDBRANCH  15  16
ENDBRANCH   4  15
TORSDOF 6
ENDMDL
MODEL 2
REMARK VINA RESULT:      -7.8      1.211      1.616
REMARK  6 active torsions:
REMARK  status: ('A' for Active; 'I' for Inactive)
REMARK    1  A    between atoms: N1_1  and  C1_2 
REMARK    2  A    between atoms: C6_7  and  C7_8 
REMARK    3  A    between atoms: C8_11  and  S1_12 
REMARK    4  A    between atoms: S1_12  and  C9_13 
REMARK    5  A    between atoms: C9_13  and  C10_14 
REMARK    6  A    between atoms: C10_14  and  C11_15 
ROOT
HETATM    1  C7  UNL     1      26.620   1.380  53.106  1.00  0.00     0.205 A 
HETATM    2  N2  UNL     1      26.016   2.146  54.055  1.00  0.00    -0.120 NA
HETATM    3  N3  UNL     1      25.036   2.824  53.486  1.00  0.00    -0.114 NA
HETATM    4  C8  UNL     1      25.002   2.503  52.184  1.00  0.00     0.231 A 
HETATM    5  O1  UNL     1      25.958   1.649  52.011  1.00  0.00    -0.263 OA
ENDROOT
BRANCH   1   6
HETATM    6  C6  UNL     1      27.761   0.450  53.244  1.00  0.00     0.045 A 
HETATM    7  C1  UNL     1      28.979   0.956  53.649  1.00  0.00     0.040 A 
HETATM    8  C2  UNL     1      30.027   0.041  53.766  1.00  0.00     0.030 A 
HETATM    9  C3  UNL     1      29.836  -1.298  53.487  1.00  0.00     0.002 A 
HETATM   10  C4  UNL     1      28.585  -1.734  53.087  1.00  0.00     0.001 A 
HETATM   11  C5  UNL     1      27.513  -0.873  52.955  1.00  0.00     0.018 A 
BRANCH   7  12
HETATM   12  N1  UNL     1      29.080   2.349  53.914  1.00  0.00    -0.398 N 
HETATM   13  H1  UNL     1      29.415   2.924  54.702  1.00  0.00     0.156 HD
HETATM   14  H2  UNL     1      28.785   3.087  53.242  1.00  0.00     0.156 HD
ENDBRANCH   7  12
ENDBRANCH   1   6
BRANCH   4  15
HETATM   15  S1  UNL     1      24.020   2.954  50.747  1.00  0.00    -0.082 SA
BRANCH  15  16
HETATM   16  C9  UNL     1      22.280   2.548  51.076  1.00  0.00     0.087 C 
BRANCH  16  17
HETATM   17  C10 UNL     1      22.164   1.039  51.007  1.00  0.00     0.049 C 
BRANCH  17  18
HETATM   18  C11 UNL     1      22.026   0.440  52.359  1.00  0.00    -0.057 A 
HETATM   19  C12 UNL     1      20.842   0.686  53.039  1.00  0.00     0.007 A 
HETATM   20  C13 UNL     1      20.620   0.163  54.317  1.00  0.00     0.001 A 
HETATM   21  C14 UNL     1      21.623  -0.616  54.897  1.00  0.00     0.000 A 
HETATM   22  C15 UNL     1      22.808  -0.874  54.240  1.00  0.00     0.001 A 
HETATM   23  C16 UNL     1      22.958  -0.329  52.985  1.00  0.00     0.007 A 
ENDBRANCH  17  18
ENDBRANCH  16  17
ENDBRANCH  15  16
ENDBRANCH   4  15
TORSDOF 6
ENDMDL
MODEL 3
REMARK VINA RESULT:      -7.7      3.115      5.445
REMARK  6 active torsions:
REMARK  status: ('A' for Active; 'I' for Inactive)
REMARK    1  A    between atoms: N1_1  and  C1_2 
REMARK    2  A    between atoms: C6_7  and  C7_8 
REMARK    3  A    between atoms: C8_11  and  S1_12 
REMARK    4  A    between atoms: S1_12  and  C9_13 
REMARK    5  A    between atoms: C9_13  and  C10_14 
REMARK    6  A    between atoms: C10_14  and  C11_15 
ROOT
HETATM    1  C7  UNL     1      25.842   0.503  52.905  1.00  0.00     0.205 A 
HETATM    2  N2  UNL     1      24.692  -0.017  53.413  1.00  0.00    -0.120 NA
HETATM    3  N3  UNL     1      23.669   0.608  52.859  1.00  0.00    -0.114 NA
HETATM    4  C8  UNL     1      24.146   1.522  52.002  1.00  0.00     0.231 A 
HETATM    5  O1  UNL     1      25.435   1.420  52.067  1.00  0.00    -0.263 OA
ENDROOT
BRANCH   1   6
HETATM    6  C6  UNL     1      27.244   0.141  53.206  1.00  0.00     0.045 A 
HETATM    7  C1  UNL     1      28.090   1.121  53.685  1.00  0.00     0.040 A 
HETATM    8  C2  UNL     1      29.403   0.733  53.956  1.00  0.00     0.030 A 
HETATM    9  C3  UNL     1      29.817  -0.568  53.749  1.00  0.00     0.002 A 
HETATM   10  C4  UNL     1      28.912  -1.498  53.268  1.00  0.00     0.001 A 
HETATM   11  C5  UNL     1      27.601  -1.169  52.983  1.00  0.00     0.018 A 
BRANCH   7  12
HETATM   12  N1  UNL     1      27.574   2.433  53.865  1.00  0.00    -0.398 N 
HETATM   13  H1  UNL     1      27.032   2.914  54.600  1.00  0.00     0.156 HD
HETATM   14  H2  UNL     1      27.693   3.200  53.173  1.00  0.00     0.156 HD
ENDBRANCH   7  12
ENDBRANCH   1   6
BRANCH   4  15
HETATM   15  S1  UNL     1      23.465   2.752  50.882  1.00  0.00    -0.082 SA
BRANCH  15  16
HETATM   16  C9  UNL     1      24.744   3.227  49.683  1.00  0.00     0.087 C 
BRANCH  16  17
HETATM   17  C10 UNL     1      24.496   4.680  49.335  1.00  0.00     0.049 C 
BRANCH  17  18
HETATM   18  C11 UNL     1      25.746   5.360  48.907  1.00  0.00    -0.057 A 
HETATM   19  C12 UNL     1      26.911   4.606  48.920  1.00  0.00     0.007 A 
HETATM   20  C13 UNL     1      28.135   5.159  48.533  1.00  0.00     0.001 A 
HETATM   21  C14 UNL     1      28.160   6.496  48.133  1.00  0.00     0.000 A 
HETATM   22  C15 UNL     1      27.016   7.266  48.112  1.00  0.00     0.001 A 
HETATM   23  C16 UNL     1      25.846   6.656  48.504  1.00  0.00     0.007 A 
ENDBRANCH  17  18
ENDBRANCH  16  17
ENDBRANCH  15  16
ENDBRANCH   4  15
TORSDOF 6
ENDMDL
MODEL 4
REMARK VINA RESULT:      -7.3      2.715      3.654
REMARK  6 active torsions:
REMARK  status: ('A' for Active; 'I' for Inactive)
REMARK    1  A    between atoms: N1_1  and  C1_2 
REMARK    2  A    between atoms: C6_7  and  C7_8 
REMARK    3  A    between atoms: C8_11  and  S1_12 
REMARK    4  A    between atoms: S1_12  and  C9_13 
REMARK    5  A    between atoms: C9_13  and  C10_14 
REMARK    6  A    between atoms: C10_14  and  C11_15 
ROOT
HETATM    1  C7  UNL     1      25.774   0.218  53.147  1.00  0.00     0.205 A 
HETATM    2  N2  UNL     1      25.100   1.022  52.281  1.00  0.00    -0.120 NA
HETATM    3  N3  UNL     1      23.804   0.864  52.483  1.00  0.00    -0.114 NA
HETATM    4  C8  UNL     1      23.637  -0.031  53.467  1.00  0.00     0.231 A 
HETATM    5  O1  UNL     1      24.830  -0.383  53.825  1.00  0.00    -0.263 OA
ENDROOT
BRANCH   1   6
HETATM    6  C6  UNL     1      27.232   0.038  53.313  1.00  0.00     0.045 A 
HETATM    7  C1  UNL     1      27.991   1.127  53.693  1.00  0.00     0.040 A 
HETATM    8  C2  UNL     1      29.362   0.911  53.838  1.00  0.00     0.030 A 
HETATM    9  C3  UNL     1      29.914  -0.335  53.608  1.00  0.00     0.002 A 
HETATM   10  C4  UNL     1      29.089  -1.380  53.230  1.00  0.00     0.001 A 
HETATM   11  C5  UNL     1      27.726  -1.223  53.072  1.00  0.00     0.018 A 
BRANCH   7  12
HETATM   12  N1  UNL     1      27.334   2.369  53.908  1.00  0.00    -0.398 N 
HETATM   13  H1  UNL     1      27.337   3.082  54.654  1.00  0.00     0.156 HD
HETATM   14  H2  UNL     1      26.660   2.789  53.235  1.00  0.00     0.156 HD
ENDBRANCH   7  12
ENDBRANCH   1   6
BRANCH   4  15
HETATM   15  S1  UNL     1      22.254  -0.792  54.328  1.00  0.00    -0.082 SA
BRANCH  15  16
HETATM   16  C9  UNL     1      20.766   0.214  54.053  1.00  0.00     0.087 C 
BRANCH  16  17
HETATM   17  C10 UNL     1      19.678  -0.735  53.594  1.00  0.00     0.049 C 
BRANCH  17  18
HETATM   18  C11 UNL     1      19.050  -0.274  52.329  1.00  0.00    -0.057 A 
HETATM   19  C12 UNL     1      17.731  -0.645  52.107  1.00  0.00     0.007 A 
HETATM   20  C13 UNL     1      17.056  -0.258  50.946  1.00  0.00     0.001 A 
HETATM   21  C14 UNL     1      17.744   0.514  50.007  1.00  0.00     0.000 A 
HETATM   22  C15 UNL     1      19.054   0.894  50.205  1.00  0.00     0.001 A 
HETATM   23  C16 UNL     1      19.656   0.479  51.371  1.00  0.00     0.007 A 
ENDBRANCH  17  18
ENDBRANCH  16  17
ENDBRANCH  15  16
ENDBRANCH   4  15
TORSDOF 6
ENDMDL
MODEL 5
REMARK VINA RESULT:      -7.2      3.499      7.487
REMARK  6 active torsions:
REMARK  status: ('A' for Active; 'I' for Inactive)
REMARK    1  A    between atoms: N1_1  and  C1_2 
REMARK    2  A    between atoms: C6_7  and  C7_8 
REMARK    3  A    between atoms: C8_11  and  S1_12 
REMARK    4  A    between atoms: S1_12  and  C9_13 
REMARK    5  A    between atoms: C9_13  and  C10_14 
REMARK    6  A    between atoms: C10_14  and  C11_15 
ROOT
HETATM    1  C7  UNL     1      21.169  -0.870  53.734  1.00  0.00     0.205 A 
HETATM    2  N2  UNL     1      21.106  -1.710  54.802  1.00  0.00    -0.120 NA
HETATM    3  N3  UNL     1      22.308  -1.792  55.343  1.00  0.00    -0.114 NA
HETATM    4  C8  UNL     1      23.142  -1.015  54.637  1.00  0.00     0.231 A 
HETATM    5  O1  UNL     1      22.421  -0.494  53.698  1.00  0.00    -0.263 OA
ENDROOT
BRANCH   1   6
HETATM    6  C6  UNL     1      20.095  -0.455  52.807  1.00  0.00     0.045 A 
HETATM    7  C1  UNL     1      20.434   0.285  51.693  1.00  0.00     0.040 A 
HETATM    8  C2  UNL     1      19.388   0.654  50.846  1.00  0.00     0.030 A 
HETATM    9  C3  UNL     1      18.085   0.289  51.125  1.00  0.00     0.002 A 
HETATM   10  C4  UNL     1      17.820  -0.455  52.262  1.00  0.00     0.001 A 
HETATM   11  C5  UNL     1      18.817  -0.848  53.134  1.00  0.00     0.018 A 
BRANCH   7  12
HETATM   12  N1  UNL     1      21.802   0.614  51.488  1.00  0.00    -0.398 N 
HETATM   13  H1  UNL     1      22.388   1.450  51.642  1.00  0.00     0.156 HD
HETATM   14  H2  UNL     1      22.503  -0.049  51.097  1.00  0.00     0.156 HD
ENDBRANCH   7  12
ENDBRANCH   1   6
BRANCH   4  15
HETATM   15  S1  UNL     1      24.884  -0.573  54.691  1.00  0.00    -0.082 SA
BRANCH  15  16
HETATM   16  C9  UNL     1      25.256   0.517  53.286  1.00  0.00     0.087 C 
BRANCH  16  17
HETATM   17  C10 UNL     1      26.099  -0.290  52.320  1.00  0.00     0.049 C 
BRANCH  17  18
HETATM   18  C11 UNL     1      27.480  -0.487  52.833  1.00  0.00    -0.057 A 
HETATM   19  C12 UNL     1      27.977  -1.782  52.826  1.00  0.00     0.007 A 
HETATM   20  C13 UNL     1      29.265  -2.065  53.289  1.00  0.00     0.001 A 
HETATM   21  C14 UNL     1      30.046  -1.008  53.761  1.00  0.00     0.000 A 
HETATM   22  C15 UNL     1      29.573   0.288  53.778  1.00  0.00     0.001 A 
HETATM   23  C16 UNL     1      28.297   0.493  53.307  1.00  0.00     0.007 A 
ENDBRANCH  17  18
ENDBRANCH  16  17
ENDBRANCH  15  16
ENDBRANCH   4  15
TORSDOF 6
ENDMDL
MODEL 6
REMARK VINA RESULT:      -7.1      3.070      7.133
REMARK  6 active torsions:
REMARK  status: ('A' for Active; 'I' for Inactive)
REMARK    1  A    between atoms: N1_1  and  C1_2 
REMARK    2  A    between atoms: C6_7  and  C7_8 
REMARK    3  A    between atoms: C8_11  and  S1_12 
REMARK    4  A    between atoms: S1_12  and  C9_13 
REMARK    5  A    between atoms: C9_13  and  C10_14 
REMARK    6  A    between atoms: C10_14  and  C11_15 
ROOT
HETATM    1  C7  UNL     1      21.804   0.302  52.527  1.00  0.00     0.205 A 
HETATM    2  N2  UNL     1      22.512  -0.685  53.140  1.00  0.00    -0.120 NA
HETATM    3  N3  UNL     1      23.678  -0.192  53.518  1.00  0.00    -0.114 NA
HETATM    4  C8  UNL     1      23.727   1.098  53.156  1.00  0.00     0.231 A 
HETATM    5  O1  UNL     1      22.597   1.340  52.574  1.00  0.00    -0.263 OA
ENDROOT
BRANCH   1   6
HETATM    6  C6  UNL     1      20.450   0.249  51.934  1.00  0.00     0.045 A 
HETATM    7  C1  UNL     1      19.424  -0.296  52.680  1.00  0.00     0.040 A 
HETATM    8  C2  UNL     1      18.164  -0.324  52.080  1.00  0.00     0.030 A 
HETATM    9  C3  UNL     1      17.972   0.172  50.805  1.00  0.00     0.002 A 
HETATM   10  C4  UNL     1      19.049   0.705  50.118  1.00  0.00     0.001 A 
HETATM   11  C5  UNL     1      20.317   0.759  50.663  1.00  0.00     0.018 A 
BRANCH   7  12
HETATM   12  N1  UNL     1      19.718  -0.781  53.983  1.00  0.00    -0.398 N 
HETATM   13  H1  UNL     1      19.292  -0.680  54.918  1.00  0.00     0.156 HD
HETATM   14  H2  UNL     1      20.527  -1.399  54.200  1.00  0.00     0.156 HD
ENDBRANCH   7  12
ENDBRANCH   1   6
BRANCH   4  15
HETATM   15  S1  UNL     1      24.904   2.452  53.280  1.00  0.00    -0.082 SA
BRANCH  15  16
HETATM   16  C9  UNL     1      26.245   2.176  52.086  1.00  0.00     0.087 C 
BRANCH  16  17
HETATM   17  C10 UNL     1      27.530   2.101  52.885  1.00  0.00     0.049 C 
BRANCH  17  18
HETATM   18  C11 UNL     1      28.004   0.700  53.027  1.00  0.00    -0.057 A 
HETATM   19  C12 UNL     1      29.282   0.514  53.534  1.00  0.00     0.007 A 
HETATM   20  C13 UNL     1      29.814  -0.767  53.704  1.00  0.00     0.001 A 
HETATM   21  C14 UNL     1      29.024  -1.864  53.350  1.00  0.00     0.000 A 
HETATM   22  C15 UNL     1      27.751  -1.704  52.845  1.00  0.00     0.001 A 
HETATM   23  C16 UNL     1      27.292  -0.415  52.705  1.00  0.00     0.007 A 
ENDBRANCH  17  18
ENDBRANCH  16  17
ENDBRANCH  15  16
ENDBRANCH   4  15
TORSDOF 6
ENDMDL
MODEL 7
REMARK VINA RESULT:      -7.0      2.763      5.042
REMARK  6 active torsions:
REMARK  status: ('A' for Active; 'I' for Inactive)
REMARK    1  A    between atoms: N1_1  and  C1_2 
REMARK    2  A    between atoms: C6_7  and  C7_8 
REMARK    3  A    between atoms: C8_11  and  S1_12 
REMARK    4  A    between atoms: S1_12  and  C9_13 
REMARK    5  A    between atoms: C9_13  and  C10_14 
REMARK    6  A    between atoms: C10_14  and  C11_15 
ROOT
HETATM    1  C7  UNL     1      24.158   4.766  50.923  1.00  0.00     0.205 A 
HETATM    2  N2  UNL     1      23.693   5.421  52.022  1.00  0.00    -0.120 NA
HETATM    3  N3  UNL     1      22.629   4.781  52.473  1.00  0.00    -0.114 NA
HETATM    4  C8  UNL     1      22.406   3.724  51.680  1.00  0.00     0.231 A 
HETATM    5  O1  UNL     1      23.335   3.760  50.780  1.00  0.00    -0.263 OA
ENDROOT
BRANCH   1   6
HETATM    6  C6  UNL     1      25.319   5.087  50.067  1.00  0.00     0.045 A 
HETATM    7  C1  UNL     1      25.474   6.385  49.624  1.00  0.00     0.040 A 
HETATM    8  C2  UNL     1      26.585   6.641  48.819  1.00  0.00     0.030 A 
HETATM    9  C3  UNL     1      27.473   5.635  48.491  1.00  0.00     0.002 A 
HETATM   10  C4  UNL     1      27.254   4.357  48.973  1.00  0.00     0.001 A 
HETATM   11  C5  UNL     1      26.172   4.047  49.774  1.00  0.00     0.018 A 
BRANCH   7  12
HETATM   12  N1  UNL     1      24.507   7.353  50.012  1.00  0.00    -0.398 N 
HETATM   13  H1  UNL     1      24.485   8.382  50.077  1.00  0.00     0.156 HD
HETATM   14  H2  UNL     1      23.546   7.113  50.330  1.00  0.00     0.156 HD
ENDBRANCH   7  12
ENDBRANCH   1   6
BRANCH   4  15
HETATM   15  S1  UNL     1      21.211   2.383  51.587  1.00  0.00    -0.082 SA
BRANCH  15  16
HETATM   16  C9  UNL     1      22.091   0.801  51.732  1.00  0.00     0.087 C 
BRANCH  16  17
HETATM   17  C10 UNL     1      22.892   0.865  53.017  1.00  0.00     0.049 C 
BRANCH  17  18
HETATM   18  C11 UNL     1      24.320   0.527  52.787  1.00  0.00    -0.057 A 
HETATM   19  C12 UNL     1      24.824  -0.577  53.461  1.00  0.00     0.007 A 
HETATM   20  C13 UNL     1      26.155  -0.972  53.308  1.00  0.00     0.001 A 
HETATM   21  C14 UNL     1      26.974  -0.227  52.456  1.00  0.00     0.000 A 
HETATM   22  C15 UNL     1      26.496   0.873  51.776  1.00  0.00     0.001 A 
HETATM   23  C16 UNL     1      25.175   1.205  51.974  1.00  0.00     0.007 A 
ENDBRANCH  17  18
ENDBRANCH  16  17
ENDBRANCH  15  16
ENDBRANCH   4  15
TORSDOF 6
ENDMDL
MODEL 8
REMARK VINA RESULT:      -6.9      7.469      8.852
REMARK  6 active torsions:
REMARK  status: ('A' for Active; 'I' for Inactive)
REMARK    1  A    between atoms: N1_1  and  C1_2 
REMARK    2  A    between atoms: C6_7  and  C7_8 
REMARK    3  A    between atoms: C8_11  and  S1_12 
REMARK    4  A    between atoms: S1_12  and  C9_13 
REMARK    5  A    between atoms: C9_13  and  C10_14 
REMARK    6  A    between atoms: C10_14  and  C11_15 
ROOT
HETATM    1  C7  UNL     1      32.331   5.448  47.625  1.00  0.00     0.205 A 
HETATM    2  N2  UNL     1      31.780   4.820  48.699  1.00  0.00    -0.120 NA
HETATM    3  N3  UNL     1      30.973   5.668  49.312  1.00  0.00    -0.114 NA
HETATM    4  C8  UNL     1      30.998   6.830  48.645  1.00  0.00     0.231 A 
HETATM    5  O1  UNL     1      31.815   6.649  47.658  1.00  0.00    -0.263 OA
ENDROOT
BRANCH   1   6
HETATM    6  C6  UNL     1      33.292   4.926  46.630  1.00  0.00     0.045 A 
HETATM    7  C1  UNL     1      34.415   4.261  47.083  1.00  0.00     0.040 A 
HETATM    8  C2  UNL     1      35.293   3.785  46.108  1.00  0.00     0.030 A 
HETATM    9  C3  UNL     1      35.037   3.979  44.765  1.00  0.00     0.002 A 
HETATM   10  C4  UNL     1      33.890   4.654  44.385  1.00  0.00     0.001 A 
HETATM   11  C5  UNL     1      32.986   5.146  45.307  1.00  0.00     0.018 A 
BRANCH   7  12
HETATM   12  N1  UNL     1      34.593   4.111  48.485  1.00  0.00    -0.398 N 
HETATM   13  H1  UNL     1      33.966   4.021  49.300  1.00  0.00     0.156 HD
HETATM   14  H2  UNL     1      35.525   4.064  48.946  1.00  0.00     0.156 HD
ENDBRANCH   7  12
ENDBRANCH   1   6
BRANCH   4  15
HETATM   15  S1  UNL     1      30.224   8.446  48.796  1.00  0.00    -0.082 SA
BRANCH  15  16
HETATM   16  C9  UNL     1      28.422   8.246  48.692  1.00  0.00     0.087 C 
BRANCH  16  17
HETATM   17  C10 UNL     1      28.169   7.013  47.849  1.00  0.00     0.049 C 
BRANCH  17  18
HETATM   18  C11 UNL     1      27.160   6.121  48.475  1.00  0.00    -0.057 A 
HETATM   19  C12 UNL     1      27.531   4.801  48.691  1.00  0.00     0.007 A 
HETATM   20  C13 UNL     1      26.650   3.888  49.275  1.00  0.00     0.001 A 
HETATM   21  C14 UNL     1      25.377   4.335  49.639  1.00  0.00     0.000 A 
HETATM   22  C15 UNL     1      24.986   5.641  49.434  1.00  0.00     0.001 A 
HETATM   23  C16 UNL     1      25.905   6.486  48.855  1.00  0.00     0.007 A 
ENDBRANCH  17  18
ENDBRANCH  16  17
ENDBRANCH  15  16
ENDBRANCH   4  15
TORSDOF 6
ENDMDL
MODEL 9
REMARK VINA RESULT:      -6.9      2.904      5.394
REMARK  6 active torsions:
REMARK  status: ('A' for Active; 'I' for Inactive)
REMARK    1  A    between atoms: N1_1  and  C1_2 
REMARK    2  A    between atoms: C6_7  and  C7_8 
REMARK    3  A    between atoms: C8_11  and  S1_12 
REMARK    4  A    between atoms: S1_12  and  C9_13 
REMARK    5  A    between atoms: C9_13  and  C10_14 
REMARK    6  A    between atoms: C10_14  and  C11_15 
ROOT
HETATM    1  C7  UNL     1      23.374   2.833  49.285  1.00  0.00     0.205 A 
HETATM    2  N2  UNL     1      22.447   2.504  48.344  1.00  0.00    -0.120 NA
HETATM    3  N3  UNL     1      21.614   1.622  48.866  1.00  0.00    -0.114 NA
HETATM    4  C8  UNL     1      21.992   1.382  50.130  1.00  0.00     0.231 A 
HETATM    5  O1  UNL     1      23.035   2.120  50.328  1.00  0.00    -0.263 OA
ENDROOT
BRANCH   1   6
HETATM    6  C6  UNL     1      24.510   3.773  49.187  1.00  0.00     0.045 A 
HETATM    7  C1  UNL     1      24.250   5.092  48.873  1.00  0.00     0.040 A 
HETATM    8  C2  UNL     1      25.353   5.943  48.793  1.00  0.00     0.030 A 
HETATM    9  C3  UNL     1      26.632   5.473  49.018  1.00  0.00     0.002 A 
HETATM   10  C4  UNL     1      26.816   4.137  49.330  1.00  0.00     0.001 A 
HETATM   11  C5  UNL     1      25.761   3.251  49.423  1.00  0.00     0.018 A 
BRANCH   7  12
HETATM   12  N1  UNL     1      22.901   5.484  48.658  1.00  0.00    -0.398 N 
HETATM   13  H1  UNL     1      22.243   5.447  47.863  1.00  0.00     0.156 HD
HETATM   14  H2  UNL     1      22.305   5.927  49.387  1.00  0.00     0.156 HD
ENDBRANCH   7  12
ENDBRANCH   1   6
BRANCH   4  15
HETATM   15  S1  UNL     1      21.430   0.354  51.494  1.00  0.00    -0.082 SA
BRANCH  15  16
HETATM   16  C9  UNL     1      22.171   0.968  53.035  1.00  0.00     0.087 C 
BRANCH  16  17
HETATM   17  C10 UNL     1      23.207  -0.055  53.456  1.00  0.00     0.049 C 
BRANCH  17  18
HETATM   18  C11 UNL     1      24.580   0.375  53.087  1.00  0.00    -0.057 A 
HETATM   19  C12 UNL     1      24.851   1.735  53.140  1.00  0.00     0.007 A 
HETATM   20  C13 UNL     1      26.115   2.234  52.811  1.00  0.00     0.001 A 
HETATM   21  C14 UNL     1      27.104   1.327  52.424  1.00  0.00     0.000 A 
HETATM   22  C15 UNL     1      26.858  -0.028  52.364  1.00  0.00     0.001 A 
HETATM   23  C16 UNL     1      25.592  -0.449  52.702  1.00  0.00     0.007 A 
ENDBRANCH  17  18
ENDBRANCH  16  17
ENDBRANCH  15  16
ENDBRANCH   4  15
TORSDOF 6
ENDMDL
