MODEL 1
REMARK VINA RESULT:      -7.3      0.000      0.000
REMARK  8 active torsions:
REMARK  status: ('A' for Active; 'I' for Inactive)
REMARK    1  A    between atoms: C2_2  and  C3_3 
REMARK    2  A    between atoms: C3_3  and  P1_4 
REMARK    3  A    between atoms: P1_4  and  N1_5 
REMARK    4  A    between atoms: N1_5  and  C4_6 
REMARK    5  A    between atoms: C7_9  and  N2_10 
REMARK    6  A    between atoms: N2_10  and  C8_11 
REMARK    7  A    between atoms: C12_17  and  N5_18 
REMARK    8  A    between atoms: N5_18  and  C13_19 
ROOT
HETATM    1  C8  UNL     1      27.287   1.352  52.582  1.00  0.00     0.132 C 
HETATM    2  C9  UNL     1      27.050   0.081  53.268  1.00  0.00     0.054 C 
HETATM    3  C10 UNL     1      28.141  -1.036  52.958  1.00  0.00     0.215 C 
HETATM    4  N3  UNL     1      29.023  -0.800  54.248  1.00  0.00    -0.099 NA
HETATM    5  C11 UNL     1      28.265   0.202  54.865  1.00  0.00     0.738 C 
HETATM    6  N4  UNL     1      26.814   0.620  55.056  1.00  0.00    -0.044 NA
HETATM    7  C12 UNL     1      25.997  -0.216  54.388  1.00  0.00     0.154 C 
HETATM    8  N6  UNL     1      28.924   1.574  54.832  1.00  0.00    -0.127 N 
HETATM    9  N7  UNL     1      28.450   2.014  53.411  1.00  0.00    -0.270 N 
HETATM   10  H19 UNL     1      29.495   2.429  55.129  1.00  0.00     0.206 HD
HETATM   11  H20 UNL     1      28.914   2.853  52.876  1.00  0.00     0.189 HD
ENDROOT
BRANCH   1  12
HETATM   12  N2  UNL     1      26.805   2.167  51.453  1.00  0.00    -0.341 N 
HETATM   13  H10 UNL     1      27.480   2.295  50.675  1.00  0.00     0.167 HD
BRANCH  12  14
HETATM   14  C7  UNL     1      25.486   2.652  51.599  1.00  0.00     0.033 A 
HETATM   15  C6  UNL     1      24.901   2.895  50.376  1.00  0.00     0.032 A 
HETATM   16  C5  UNL     1      23.584   3.370  50.302  1.00  0.00     0.034 A 
HETATM   17  C4  UNL     1      22.891   3.586  51.500  1.00  0.00     0.056 A 
HETATM   18  C16 UNL     1      23.534   3.324  52.689  1.00  0.00     0.034 A 
HETATM   19  C15 UNL     1      24.829   2.858  52.761  1.00  0.00     0.032 A 
BRANCH  17  20
HETATM   20  N1  UNL     1      21.593   4.050  51.269  1.00  0.00    -0.255 NA
BRANCH  20  21
HETATM   21  P1  UNL     1      20.218   3.360  51.734  1.00  0.00     0.060 P 
BRANCH  21  22
HETATM   22  C3  UNL     1      20.153   1.715  52.570  1.00  0.00     0.064 C 
BRANCH  22  23
HETATM   23  C2  UNL     1      20.059   0.561  51.594  1.00  0.00     0.002 C 
HETATM   24  C1  UNL     1      21.416   0.290  50.986  1.00  0.00     0.005 C 
ENDBRANCH  22  23
ENDBRANCH  21  22
ENDBRANCH  20  21
ENDBRANCH  17  20
ENDBRANCH  12  14
ENDBRANCH   1  12
BRANCH   7  25
HETATM   25  N5  UNL     1      24.791  -0.828  54.787  1.00  0.00    -0.374 N 
HETATM   26  H13 UNL     1      25.034  -1.378  55.645  1.00  0.00     0.161 HD
BRANCH  25  27
HETATM   27  C13 UNL     1      23.671  -0.535  53.930  1.00  0.00     0.116 C 
HETATM   28  C14 UNL     1      22.359  -0.982  54.465  1.00  0.00     0.026 C 
ENDBRANCH  25  27
ENDBRANCH   7  25
TORSDOF 8
ENDMDL
MODEL 2
REMARK VINA RESULT:      -6.8      1.294      2.052
REMARK  8 active torsions:
REMARK  status: ('A' for Active; 'I' for Inactive)
REMARK    1  A    between atoms: C2_2  and  C3_3 
REMARK    2  A    between atoms: C3_3  and  P1_4 
REMARK    3  A    between atoms: P1_4  and  N1_5 
REMARK    4  A    between atoms: N1_5  and  C4_6 
REMARK    5  A    between atoms: C7_9  and  N2_10 
REMARK    6  A    between atoms: N2_10  and  C8_11 
REMARK    7  A    between atoms: C12_17  and  N5_18 
REMARK    8  A    between atoms: N5_18  and  C13_19 
ROOT
HETATM    1  C8  UNL     1      27.358   1.743  52.874  1.00  0.00     0.132 C 
HETATM    2  C9  UNL     1      27.225   0.373  53.370  1.00  0.00     0.054 C 
HETATM    3  C10 UNL     1      28.340  -0.625  52.825  1.00  0.00     0.215 C 
HETATM    4  N3  UNL     1      29.298  -0.538  54.079  1.00  0.00    -0.099 NA
HETATM    5  C11 UNL     1      28.542   0.317  54.888  1.00  0.00     0.738 C 
HETATM    6  N4  UNL     1      27.090   0.623  55.231  1.00  0.00    -0.044 NA
HETATM    7  C12 UNL     1      26.267  -0.147  54.494  1.00  0.00     0.154 C 
HETATM    8  N6  UNL     1      29.136   1.712  55.026  1.00  0.00    -0.127 N 
HETATM    9  N7  UNL     1      28.546   2.334  53.722  1.00  0.00    -0.270 N 
HETATM   10  H19 UNL     1      29.688   2.542  55.415  1.00  0.00     0.206 HD
HETATM   11  H20 UNL     1      28.933   3.269  53.295  1.00  0.00     0.189 HD
ENDROOT
BRANCH   1  12
HETATM   12  N2  UNL     1      26.763   2.692  51.916  1.00  0.00    -0.341 N 
HETATM   13  H10 UNL     1      27.440   3.237  51.349  1.00  0.00     0.167 HD
BRANCH  12  14
HETATM   14  C7  UNL     1      25.350   2.714  51.911  1.00  0.00     0.033 A 
HETATM   15  C6  UNL     1      24.851   2.637  50.629  1.00  0.00     0.032 A 
HETATM   16  C5  UNL     1      23.467   2.631  50.407  1.00  0.00     0.034 A 
HETATM   17  C4  UNL     1      22.619   2.704  51.520  1.00  0.00     0.056 A 
HETATM   18  C16 UNL     1      23.182   2.778  52.774  1.00  0.00     0.034 A 
HETATM   19  C15 UNL     1      24.543   2.785  52.992  1.00  0.00     0.032 A 
BRANCH  17  20
HETATM   20  N1  UNL     1      21.273   2.680  51.145  1.00  0.00    -0.255 NA
BRANCH  20  21
HETATM   21  P1  UNL     1      20.295   3.943  50.957  1.00  0.00     0.060 P 
BRANCH  21  22
HETATM   22  C3  UNL     1      20.381   5.071  49.499  1.00  0.00     0.064 C 
BRANCH  22  23
HETATM   23  C2  UNL     1      21.537   6.047  49.575  1.00  0.00     0.002 C 
HETATM   24  C1  UNL     1      21.889   6.313  51.021  1.00  0.00     0.005 C 
ENDBRANCH  22  23
ENDBRANCH  21  22
ENDBRANCH  20  21
ENDBRANCH  17  20
ENDBRANCH  12  14
ENDBRANCH   1  12
BRANCH   7  25
HETATM   25  N5  UNL     1      25.120  -0.876  54.868  1.00  0.00    -0.374 N 
HETATM   26  H13 UNL     1      25.392  -1.385  55.742  1.00  0.00     0.161 HD
BRANCH  25  27
HETATM   27  C13 UNL     1      24.002  -0.715  53.973  1.00  0.00     0.116 C 
HETATM   28  C14 UNL     1      22.674  -0.893  54.615  1.00  0.00     0.026 C 
ENDBRANCH  25  27
ENDBRANCH   7  25
TORSDOF 8
ENDMDL
MODEL 3
REMARK VINA RESULT:      -6.7      6.007      8.059
REMARK  8 active torsions:
REMARK  status: ('A' for Active; 'I' for Inactive)
REMARK    1  A    between atoms: C2_2  and  C3_3 
REMARK    2  A    between atoms: C3_3  and  P1_4 
REMARK    3  A    between atoms: P1_4  and  N1_5 
REMARK    4  A    between atoms: N1_5  and  C4_6 
REMARK    5  A    between atoms: C7_9  and  N2_10 
REMARK    6  A    between atoms: N2_10  and  C8_11 
REMARK    7  A    between atoms: C12_17  and  N5_18 
REMARK    8  A    between atoms: N5_18  and  C13_19 
ROOT
HETATM    1  C8  UNL     1      29.908   6.707  47.887  1.00  0.00     0.132 C 
HETATM    2  C9  UNL     1      31.145   6.122  47.369  1.00  0.00     0.054 C 
HETATM    3  C10 UNL     1      32.164   7.187  46.766  1.00  0.00     0.215 C 
HETATM    4  N3  UNL     1      33.072   7.327  48.051  1.00  0.00    -0.099 NA
HETATM    5  C11 UNL     1      32.439   6.397  48.884  1.00  0.00     0.738 C 
HETATM    6  N4  UNL     1      31.726   5.055  48.807  1.00  0.00    -0.044 NA
HETATM    7  C12 UNL     1      31.641   4.645  47.527  1.00  0.00     0.154 C 
HETATM    8  N6  UNL     1      31.666   7.032  50.031  1.00  0.00    -0.127 N 
HETATM    9  N7  UNL     1      30.339   7.333  49.266  1.00  0.00    -0.270 N 
HETATM   10  H19 UNL     1      31.429   7.410  51.004  1.00  0.00     0.206 HD
HETATM   11  H20 UNL     1      29.584   8.027  49.659  1.00  0.00     0.189 HD
ENDROOT
BRANCH   1  12
HETATM   12  N2  UNL     1      28.479   6.870  47.565  1.00  0.00    -0.341 N 
HETATM   13  H10 UNL     1      28.267   7.552  46.812  1.00  0.00     0.167 HD
BRANCH  12  14
HETATM   14  C7  UNL     1      27.608   6.064  48.332  1.00  0.00     0.033 A 
HETATM   15  C6  UNL     1      26.530   6.788  48.793  1.00  0.00     0.032 A 
HETATM   16  C5  UNL     1      25.539   6.167  49.566  1.00  0.00     0.034 A 
HETATM   17  C4  UNL     1      25.680   4.803  49.850  1.00  0.00     0.056 A 
HETATM   18  C16 UNL     1      26.782   4.138  49.360  1.00  0.00     0.034 A 
HETATM   19  C15 UNL     1      27.756   4.749  48.600  1.00  0.00     0.032 A 
BRANCH  17  20
HETATM   20  N1  UNL     1      24.617   4.323  50.620  1.00  0.00    -0.255 NA
BRANCH  20  21
HETATM   21  P1  UNL     1      24.514   2.895  51.350  1.00  0.00     0.060 P 
BRANCH  21  22
HETATM   22  C3  UNL     1      24.639   2.692  53.181  1.00  0.00     0.064 C 
BRANCH  22  23
HETATM   23  C2  UNL     1      25.960   2.094  53.618  1.00  0.00     0.002 C 
HETATM   24  C1  UNL     1      26.913   2.039  52.446  1.00  0.00     0.005 C 
ENDBRANCH  22  23
ENDBRANCH  21  22
ENDBRANCH  20  21
ENDBRANCH  17  20
ENDBRANCH  12  14
ENDBRANCH   1  12
BRANCH   7  25
HETATM   25  N5  UNL     1      31.884   3.380  46.954  1.00  0.00    -0.374 N 
HETATM   26  H13 UNL     1      31.049   3.189  46.351  1.00  0.00     0.161 HD
BRANCH  25  27
HETATM   27  C13 UNL     1      33.124   2.774  47.367  1.00  0.00     0.116 C 
HETATM   28  C14 UNL     1      34.339   3.456  46.850  1.00  0.00     0.026 C 
ENDBRANCH  25  27
ENDBRANCH   7  25
TORSDOF 8
ENDMDL
MODEL 4
REMARK VINA RESULT:      -6.6      3.642      7.781
REMARK  8 active torsions:
REMARK  status: ('A' for Active; 'I' for Inactive)
REMARK    1  A    between atoms: C2_2  and  C3_3 
REMARK    2  A    between atoms: C3_3  and  P1_4 
REMARK    3  A    between atoms: P1_4  and  N1_5 
REMARK    4  A    between atoms: N1_5  and  C4_6 
REMARK    5  A    between atoms: C7_9  and  N2_10 
REMARK    6  A    between atoms: N2_10  and  C8_11 
REMARK    7  A    between atoms: C12_17  and  N5_18 
REMARK    8  A    between atoms: N5_18  and  C13_19 
ROOT
HETATM    1  C8  UNL     1      23.912   5.409  49.501  1.00  0.00     0.132 C 
HETATM    2  C9  UNL     1      24.646   6.608  49.095  1.00  0.00     0.054 C 
HETATM    3  C10 UNL     1      23.811   7.599  48.171  1.00  0.00     0.215 C 
HETATM    4  N3  UNL     1      23.350   8.583  49.319  1.00  0.00    -0.099 NA
HETATM    5  C11 UNL     1      24.003   7.990  50.406  1.00  0.00     0.738 C 
HETATM    6  N4  UNL     1      25.298   7.262  50.736  1.00  0.00    -0.044 NA
HETATM    7  C12 UNL     1      26.037   7.098  49.622  1.00  0.00     0.154 C 
HETATM    8  N6  UNL     1      23.063   7.292  51.378  1.00  0.00    -0.127 N 
HETATM    9  N7  UNL     1      22.947   5.926  50.632  1.00  0.00    -0.270 N 
HETATM   10  H19 UNL     1      22.429   7.117  52.222  1.00  0.00     0.206 HD
HETATM   11  H20 UNL     1      22.154   5.202  50.862  1.00  0.00     0.189 HD
ENDROOT
BRANCH   1  12
HETATM   12  N2  UNL     1      23.807   3.965  49.224  1.00  0.00    -0.341 N 
HETATM   13  H10 UNL     1      23.192   3.707  48.429  1.00  0.00     0.167 HD
BRANCH  12  14
HETATM   14  C7  UNL     1      24.567   3.144  50.087  1.00  0.00     0.033 A 
HETATM   15  C6  UNL     1      23.763   2.285  50.801  1.00  0.00     0.032 A 
HETATM   16  C5  UNL     1      24.326   1.375  51.707  1.00  0.00     0.034 A 
HETATM   17  C4  UNL     1      25.719   1.369  51.858  1.00  0.00     0.056 A 
HETATM   18  C16 UNL     1      26.465   2.255  51.114  1.00  0.00     0.034 A 
HETATM   19  C15 UNL     1      25.911   3.149  50.224  1.00  0.00     0.032 A 
BRANCH  17  20
HETATM   20  N1  UNL     1      26.133   0.409  52.785  1.00  0.00    -0.255 NA
BRANCH  20  21
HETATM   21  P1  UNL     1      26.667   0.668  54.279  1.00  0.00     0.060 P 
BRANCH  21  22
HETATM   22  C3  UNL     1      28.460   0.673  54.718  1.00  0.00     0.064 C 
BRANCH  22  23
HETATM   23  C2  UNL     1      29.357   0.369  53.536  1.00  0.00     0.002 C 
HETATM   24  C1  UNL     1      29.877  -1.047  53.638  1.00  0.00     0.005 C 
ENDBRANCH  22  23
ENDBRANCH  21  22
ENDBRANCH  20  21
ENDBRANCH  17  20
ENDBRANCH  12  14
ENDBRANCH   1  12
BRANCH   7  25
HETATM   25  N5  UNL     1      27.416   7.295  49.402  1.00  0.00    -0.374 N 
HETATM   26  H13 UNL     1      27.743   7.871  50.214  1.00  0.00     0.161 HD
BRANCH  25  27
HETATM   27  C13 UNL     1      27.911   6.689  48.193  1.00  0.00     0.116 C 
HETATM   28  C14 UNL     1      28.410   5.300  48.364  1.00  0.00     0.026 C 
ENDBRANCH  25  27
ENDBRANCH   7  25
TORSDOF 8
ENDMDL
MODEL 5
REMARK VINA RESULT:      -6.5      3.857      5.283
REMARK  8 active torsions:
REMARK  status: ('A' for Active; 'I' for Inactive)
REMARK    1  A    between atoms: C2_2  and  C3_3 
REMARK    2  A    between atoms: C3_3  and  P1_4 
REMARK    3  A    between atoms: P1_4  and  N1_5 
REMARK    4  A    between atoms: N1_5  and  C4_6 
REMARK    5  A    between atoms: C7_9  and  N2_10 
REMARK    6  A    between atoms: N2_10  and  C8_11 
REMARK    7  A    between atoms: C12_17  and  N5_18 
REMARK    8  A    between atoms: N5_18  and  C13_19 
ROOT
HETATM    1  C8  UNL     1      26.499   2.124  51.261  1.00  0.00     0.132 C 
HETATM    2  C9  UNL     1      25.623   1.234  52.024  1.00  0.00     0.054 C 
HETATM    3  C10 UNL     1      26.304  -0.141  52.446  1.00  0.00     0.215 C 
HETATM    4  N3  UNL     1      26.711   0.292  53.910  1.00  0.00    -0.099 NA
HETATM    5  C11 UNL     1      26.175   1.585  53.925  1.00  0.00     0.738 C 
HETATM    6  N4  UNL     1      24.982   2.362  53.387  1.00  0.00    -0.044 NA
HETATM    7  C12 UNL     1      24.213   1.565  52.622  1.00  0.00     0.154 C 
HETATM    8  N6  UNL     1      27.229   2.683  53.896  1.00  0.00    -0.127 N 
HETATM    9  N7  UNL     1      27.454   2.734  52.353  1.00  0.00    -0.270 N 
HETATM   10  H19 UNL     1      27.916   3.434  54.227  1.00  0.00     0.206 HD
HETATM   11  H20 UNL     1      28.329   3.226  51.907  1.00  0.00     0.189 HD
ENDROOT
BRANCH   1  12
HETATM   12  N2  UNL     1      26.744   2.616  49.893  1.00  0.00    -0.341 N 
HETATM   13  H10 UNL     1      27.306   1.988  49.287  1.00  0.00     0.167 HD
BRANCH  12  14
HETATM   14  C7  UNL     1      26.169   3.876  49.610  1.00  0.00     0.033 A 
HETATM   15  C6  UNL     1      27.057   4.696  48.949  1.00  0.00     0.032 A 
HETATM   16  C5  UNL     1      26.676   5.989  48.565  1.00  0.00     0.034 A 
HETATM   17  C4  UNL     1      25.377   6.414  48.872  1.00  0.00     0.056 A 
HETATM   18  C16 UNL     1      24.539   5.545  49.535  1.00  0.00     0.034 A 
HETATM   19  C15 UNL     1      24.915   4.274  49.913  1.00  0.00     0.032 A 
BRANCH  17  20
HETATM   20  N1  UNL     1      25.140   7.716  48.423  1.00  0.00    -0.255 NA
BRANCH  20  21
HETATM   21  P1  UNL     1      25.991   9.033  48.772  1.00  0.00     0.060 P 
BRANCH  21  22
HETATM   22  C3  UNL     1      27.285   9.073  50.088  1.00  0.00     0.064 C 
BRANCH  22  23
HETATM   23  C2  UNL     1      28.608   9.621  49.597  1.00  0.00     0.002 C 
HETATM   24  C1  UNL     1      29.392   8.530  48.904  1.00  0.00     0.005 C 
ENDBRANCH  22  23
ENDBRANCH  21  22
ENDBRANCH  20  21
ENDBRANCH  17  20
ENDBRANCH  12  14
ENDBRANCH   1  12
BRANCH   7  25
HETATM   25  N5  UNL     1      22.813   1.407  52.583  1.00  0.00    -0.374 N 
HETATM   26  H13 UNL     1      22.434   2.370  52.418  1.00  0.00     0.161 HD
BRANCH  25  27
HETATM   27  C13 UNL     1      22.367   0.053  52.785  1.00  0.00     0.116 C 
HETATM   28  C14 UNL     1      22.933  -0.604  53.991  1.00  0.00     0.026 C 
ENDBRANCH  25  27
ENDBRANCH   7  25
TORSDOF 8
ENDMDL
MODEL 6
REMARK VINA RESULT:      -6.3      4.168      6.571
REMARK  8 active torsions:
REMARK  status: ('A' for Active; 'I' for Inactive)
REMARK    1  A    between atoms: C2_2  and  C3_3 
REMARK    2  A    between atoms: C3_3  and  P1_4 
REMARK    3  A    between atoms: P1_4  and  N1_5 
REMARK    4  A    between atoms: N1_5  and  C4_6 
REMARK    5  A    between atoms: C7_9  and  N2_10 
REMARK    6  A    between atoms: N2_10  and  C8_11 
REMARK    7  A    between atoms: C12_17  and  N5_18 
REMARK    8  A    between atoms: N5_18  and  C13_19 
ROOT
HETATM    1  C8  UNL     1      24.416   6.684  51.066  1.00  0.00     0.132 C 
HETATM    2  C9  UNL     1      23.907   6.966  49.723  1.00  0.00     0.054 C 
HETATM    3  C10 UNL     1      23.647   8.510  49.439  1.00  0.00     0.215 C 
HETATM    4  N3  UNL     1      25.014   8.799  48.701  1.00  0.00    -0.099 NA
HETATM    5  C11 UNL     1      25.563   7.511  48.723  1.00  0.00     0.738 C 
HETATM    6  N4  UNL     1      25.133   6.055  48.622  1.00  0.00    -0.044 NA
HETATM    7  C12 UNL     1      23.793   5.972  48.518  1.00  0.00     0.154 C 
HETATM    8  N6  UNL     1      26.740   7.365  49.677  1.00  0.00    -0.127 N 
HETATM    9  N7  UNL     1      25.932   7.101  50.986  1.00  0.00    -0.270 N 
HETATM   10  H19 UNL     1      27.744   7.327  50.047  1.00  0.00     0.206 HD
HETATM   11  H20 UNL     1      26.389   7.188  51.981  1.00  0.00     0.189 HD
ENDROOT
BRANCH   1  12
HETATM   12  N2  UNL     1      23.999   6.151  52.375  1.00  0.00    -0.341 N 
HETATM   13  H10 UNL     1      24.249   6.736  53.195  1.00  0.00     0.167 HD
BRANCH  12  14
HETATM   14  C7  UNL     1      23.314   4.916  52.315  1.00  0.00     0.033 A 
HETATM   15  C6  UNL     1      21.988   5.092  51.988  1.00  0.00     0.032 A 
HETATM   16  C5  UNL     1      21.135   3.987  51.864  1.00  0.00     0.034 A 
HETATM   17  C4  UNL     1      21.672   2.711  52.082  1.00  0.00     0.056 A 
HETATM   18  C16 UNL     1      23.006   2.604  52.406  1.00  0.00     0.034 A 
HETATM   19  C15 UNL     1      23.843   3.692  52.528  1.00  0.00     0.032 A 
BRANCH  17  20
HETATM   20  N1  UNL     1      20.709   1.711  51.917  1.00  0.00    -0.255 NA
BRANCH  20  21
HETATM   21  P1  UNL     1      20.608   0.320  52.715  1.00  0.00     0.060 P 
BRANCH  21  22
HETATM   22  C3  UNL     1      20.917   0.179  54.529  1.00  0.00     0.064 C 
BRANCH  22  23
HETATM   23  C2  UNL     1      21.980  -0.845  54.869  1.00  0.00     0.002 C 
HETATM   24  C1  UNL     1      23.133  -0.729  53.899  1.00  0.00     0.005 C 
ENDBRANCH  22  23
ENDBRANCH  21  22
ENDBRANCH  20  21
ENDBRANCH  17  20
ENDBRANCH  12  14
ENDBRANCH   1  12
BRANCH   7  25
HETATM   25  N5  UNL     1      22.989   5.190  47.663  1.00  0.00    -0.374 N 
HETATM   26  H13 UNL     1      23.077   5.638  46.720  1.00  0.00     0.161 HD
BRANCH  25  27
HETATM   27  C13 UNL     1      22.324   4.094  48.319  1.00  0.00     0.116 C 
HETATM   28  C14 UNL     1      23.230   2.993  48.738  1.00  0.00     0.026 C 
ENDBRANCH  25  27
ENDBRANCH   7  25
TORSDOF 8
ENDMDL
MODEL 7
REMARK VINA RESULT:      -6.2      2.808      6.938
REMARK  8 active torsions:
REMARK  status: ('A' for Active; 'I' for Inactive)
REMARK    1  A    between atoms: C2_2  and  C3_3 
REMARK    2  A    between atoms: C3_3  and  P1_4 
REMARK    3  A    between atoms: P1_4  and  N1_5 
REMARK    4  A    between atoms: N1_5  and  C4_6 
REMARK    5  A    between atoms: C7_9  and  N2_10 
REMARK    6  A    between atoms: N2_10  and  C8_11 
REMARK    7  A    between atoms: C12_17  and  N5_18 
REMARK    8  A    between atoms: N5_18  and  C13_19 
ROOT
HETATM    1  C8  UNL     1      21.700   2.410  51.166  1.00  0.00     0.132 C 
HETATM    2  C9  UNL     1      20.600   2.104  52.080  1.00  0.00     0.054 C 
HETATM    3  C10 UNL     1      19.370   3.109  51.976  1.00  0.00     0.215 C 
HETATM    4  N3  UNL     1      18.481   2.220  51.018  1.00  0.00    -0.099 NA
HETATM    5  C11 UNL     1      19.311   1.099  50.908  1.00  0.00     0.738 C 
HETATM    6  N4  UNL     1      20.285   0.278  51.743  1.00  0.00    -0.044 NA
HETATM    7  C12 UNL     1      20.423   0.824  52.966  1.00  0.00     0.154 C 
HETATM    8  N6  UNL     1      19.962   0.953  49.540  1.00  0.00    -0.127 N 
HETATM    9  N7  UNL     1      21.180   1.901  49.770  1.00  0.00    -0.270 N 
HETATM   10  H19 UNL     1      20.137   0.639  48.531  1.00  0.00     0.206 HD
HETATM   11  H20 UNL     1      21.784   2.286  48.938  1.00  0.00     0.189 HD
ENDROOT
BRANCH   1  12
HETATM   12  N2  UNL     1      23.057   2.985  51.137  1.00  0.00    -0.341 N 
HETATM   13  H10 UNL     1      23.207   3.741  50.442  1.00  0.00     0.167 HD
BRANCH  12  14
HETATM   14  C7  UNL     1      23.955   2.418  52.069  1.00  0.00     0.033 A 
HETATM   15  C6  UNL     1      24.015   1.047  51.939  1.00  0.00     0.032 A 
HETATM   16  C5  UNL     1      24.860   0.294  52.765  1.00  0.00     0.034 A 
HETATM   17  C4  UNL     1      25.634   0.973  53.716  1.00  0.00     0.056 A 
HETATM   18  C16 UNL     1      25.527   2.343  53.793  1.00  0.00     0.034 A 
HETATM   19  C15 UNL     1      24.695   3.084  52.981  1.00  0.00     0.032 A 
BRANCH  17  20
HETATM   20  N1  UNL     1      26.429   0.095  54.457  1.00  0.00    -0.255 NA
BRANCH  20  21
HETATM   21  P1  UNL     1      27.975   0.284  54.851  1.00  0.00     0.060 P 
BRANCH  21  22
HETATM   22  C3  UNL     1      29.331   0.337  53.600  1.00  0.00     0.064 C 
BRANCH  22  23
HETATM   23  C2  UNL     1      30.097  -0.966  53.504  1.00  0.00     0.002 C 
HETATM   24  C1  UNL     1      29.139  -2.107  53.247  1.00  0.00     0.005 C 
ENDBRANCH  22  23
ENDBRANCH  21  22
ENDBRANCH  20  21
ENDBRANCH  17  20
ENDBRANCH  12  14
ENDBRANCH   1  12
BRANCH   7  25
HETATM   25  N5  UNL     1      20.435   0.220  54.240  1.00  0.00    -0.374 N 
HETATM   26  H13 UNL     1      20.128   0.972  54.902  1.00  0.00     0.161 HD
BRANCH  25  27
HETATM   27  C13 UNL     1      20.856  -1.157  54.235  1.00  0.00     0.116 C 
HETATM   28  C14 UNL     1      22.231  -1.378  54.751  1.00  0.00     0.026 C 
ENDBRANCH  25  27
ENDBRANCH   7  25
TORSDOF 8
ENDMDL
MODEL 8
REMARK VINA RESULT:      -6.2      3.587      7.666
REMARK  8 active torsions:
REMARK  status: ('A' for Active; 'I' for Inactive)
REMARK    1  A    between atoms: C2_2  and  C3_3 
REMARK    2  A    between atoms: C3_3  and  P1_4 
REMARK    3  A    between atoms: P1_4  and  N1_5 
REMARK    4  A    between atoms: N1_5  and  C4_6 
REMARK    5  A    between atoms: C7_9  and  N2_10 
REMARK    6  A    between atoms: N2_10  and  C8_11 
REMARK    7  A    between atoms: C12_17  and  N5_18 
REMARK    8  A    between atoms: N5_18  and  C13_19 
ROOT
HETATM    1  C8  UNL     1      23.771   4.842  50.207  1.00  0.00     0.132 C 
HETATM    2  C9  UNL     1      24.254   6.136  49.723  1.00  0.00     0.054 C 
HETATM    3  C10 UNL     1      23.490   6.673  48.434  1.00  0.00     0.215 C 
HETATM    4  N3  UNL     1      22.482   7.623  49.195  1.00  0.00    -0.099 NA
HETATM    5  C11 UNL     1      22.928   7.428  50.507  1.00  0.00     0.738 C 
HETATM    6  N4  UNL     1      24.218   7.193  51.281  1.00  0.00    -0.044 NA
HETATM    7  C12 UNL     1      25.259   7.105  50.432  1.00  0.00     0.154 C 
HETATM    8  N6  UNL     1      21.964   6.624  51.367  1.00  0.00    -0.127 N 
HETATM    9  N7  UNL     1      22.424   5.195  50.941  1.00  0.00    -0.270 N 
HETATM   10  H19 UNL     1      21.183   6.387  52.061  1.00  0.00     0.206 HD
HETATM   11  H20 UNL     1      21.815   4.303  51.138  1.00  0.00     0.189 HD
ENDROOT
BRANCH   1  12
HETATM   12  N2  UNL     1      24.128   3.412  50.244  1.00  0.00    -0.341 N 
HETATM   13  H10 UNL     1      23.794   2.848  49.439  1.00  0.00     0.167 HD
BRANCH  12  14
HETATM   14  C7  UNL     1      24.878   3.023  51.376  1.00  0.00     0.033 A 
HETATM   15  C6  UNL     1      26.184   2.741  51.041  1.00  0.00     0.032 A 
HETATM   16  C5  UNL     1      27.100   2.348  52.027  1.00  0.00     0.034 A 
HETATM   17  C4  UNL     1      26.647   2.253  53.349  1.00  0.00     0.056 A 
HETATM   18  C16 UNL     1      25.329   2.548  53.617  1.00  0.00     0.034 A 
HETATM   19  C15 UNL     1      24.429   2.934  52.647  1.00  0.00     0.032 A 
BRANCH  17  20
HETATM   20  N1  UNL     1      27.669   1.859  54.217  1.00  0.00    -0.255 NA
BRANCH  20  21
HETATM   21  P1  UNL     1      28.878   0.850  53.899  1.00  0.00     0.060 P 
BRANCH  21  22
HETATM   22  C3  UNL     1      28.637  -0.965  53.667  1.00  0.00     0.064 C 
BRANCH  22  23
HETATM   23  C2  UNL     1      27.615  -1.293  52.598  1.00  0.00     0.002 C 
HETATM   24  C1  UNL     1      26.222  -1.224  53.182  1.00  0.00     0.005 C 
ENDBRANCH  22  23
ENDBRANCH  21  22
ENDBRANCH  20  21
ENDBRANCH  17  20
ENDBRANCH  12  14
ENDBRANCH   1  12
BRANCH   7  25
HETATM   25  N5  UNL     1      26.544   7.683  50.498  1.00  0.00    -0.374 N 
HETATM   26  H13 UNL     1      26.898   7.456  51.457  1.00  0.00     0.161 HD
BRANCH  25  27
HETATM   27  C13 UNL     1      26.937   8.379  49.300  1.00  0.00     0.116 C 
HETATM   28  C14 UNL     1      28.024   7.715  48.536  1.00  0.00     0.026 C 
ENDBRANCH  25  27
ENDBRANCH   7  25
TORSDOF 8
ENDMDL
MODEL 9
REMARK VINA RESULT:      -6.1      3.225      7.216
REMARK  8 active torsions:
REMARK  status: ('A' for Active; 'I' for Inactive)
REMARK    1  A    between atoms: C2_2  and  C3_3 
REMARK    2  A    between atoms: C3_3  and  P1_4 
REMARK    3  A    between atoms: P1_4  and  N1_5 
REMARK    4  A    between atoms: N1_5  and  C4_6 
REMARK    5  A    between atoms: C7_9  and  N2_10 
REMARK    6  A    between atoms: N2_10  and  C8_11 
REMARK    7  A    between atoms: C12_17  and  N5_18 
REMARK    8  A    between atoms: N5_18  and  C13_19 
ROOT
HETATM    1  C8  UNL     1      23.149   5.908  51.673  1.00  0.00     0.132 C 
HETATM    2  C9  UNL     1      22.846   6.309  50.299  1.00  0.00     0.054 C 
HETATM    3  C10 UNL     1      22.161   7.741  50.177  1.00  0.00     0.215 C 
HETATM    4  N3  UNL     1      23.477   8.552  49.852  1.00  0.00    -0.099 NA
HETATM    5  C11 UNL     1      24.398   7.498  49.830  1.00  0.00     0.738 C 
HETATM    6  N4  UNL     1      24.490   6.035  49.423  1.00  0.00    -0.044 NA
HETATM    7  C12 UNL     1      23.296   5.600  48.977  1.00  0.00     0.154 C 
HETATM    8  N6  UNL     1      25.349   7.494  51.018  1.00  0.00    -0.127 N 
HETATM    9  N7  UNL     1      24.432   6.744  52.034  1.00  0.00    -0.270 N 
HETATM   10  H19 UNL     1      26.220   7.664  51.618  1.00  0.00     0.206 HD
HETATM   11  H20 UNL     1      24.635   6.745  53.113  1.00  0.00     0.189 HD
ENDROOT
BRANCH   1  12
HETATM   12  N2  UNL     1      22.681   5.015  52.749  1.00  0.00    -0.341 N 
HETATM   13  H10 UNL     1      22.079   5.461  53.468  1.00  0.00     0.167 HD
BRANCH  12  14
HETATM   14  C7  UNL     1      23.123   3.678  52.637  1.00  0.00     0.033 A 
HETATM   15  C6  UNL     1      24.377   3.516  53.183  1.00  0.00     0.032 A 
HETATM   16  C5  UNL     1      24.992   2.256  53.186  1.00  0.00     0.034 A 
HETATM   17  C4  UNL     1      24.295   1.180  52.620  1.00  0.00     0.056 A 
HETATM   18  C16 UNL     1      23.045   1.410  52.091  1.00  0.00     0.034 A 
HETATM   19  C15 UNL     1      22.441   2.649  52.089  1.00  0.00     0.032 A 
BRANCH  17  20
HETATM   20  N1  UNL     1      25.027  -0.008  52.701  1.00  0.00    -0.255 NA
BRANCH  20  21
HETATM   21  P1  UNL     1      26.175  -0.370  53.765  1.00  0.00     0.060 P 
BRANCH  21  22
HETATM   22  C3  UNL     1      27.969  -0.072  53.447  1.00  0.00     0.064 C 
BRANCH  22  23
HETATM   23  C2  UNL     1      28.560   0.989  54.351  1.00  0.00     0.002 C 
HETATM   24  C1  UNL     1      28.655   2.302  53.609  1.00  0.00     0.005 C 
ENDBRANCH  22  23
ENDBRANCH  21  22
ENDBRANCH  20  21
ENDBRANCH  17  20
ENDBRANCH  12  14
ENDBRANCH   1  12
BRANCH   7  25
HETATM   25  N5  UNL     1      22.971   4.820  47.848  1.00  0.00    -0.374 N 
HETATM   26  H13 UNL     1      23.076   5.466  47.030  1.00  0.00     0.161 HD
BRANCH  25  27
HETATM   27  C13 UNL     1      22.602   3.463  48.156  1.00  0.00     0.116 C 
HETATM   28  C14 UNL     1      21.189   3.296  48.586  1.00  0.00     0.026 C 
ENDBRANCH  25  27
ENDBRANCH   7  25
TORSDOF 8
ENDMDL
