MODEL 1
REMARK VINA RESULT:      -7.3      0.000      0.000
REMARK  6 active torsions:
REMARK  status: ('A' for Active; 'I' for Inactive)
REMARK    1  A    between atoms: O1_2  and  C2_3 
REMARK    2  A    between atoms: C13_19  and  O3_20 
REMARK    3  A    between atoms: O3_20  and  C14_21 
REMARK    4  A    between atoms: C14_21  and  C15_22 
REMARK    5  A    between atoms: C15_22  and  C16_23 
REMARK    6  A    between atoms: C16_23  and  N3_24 
ROOT
HETATM    1  C2  UNL     1      24.448   4.020  50.179  1.00  0.00     0.304 C 
HETATM    2  O2  UNL     1      24.576   4.325  48.820  1.00  0.00    -0.328 OA
HETATM    3  C3  UNL     1      23.365   4.720  48.259  1.00  0.00     0.214 C 
HETATM    4  C4  UNL     1      22.288   4.464  49.346  1.00  0.00    -0.007 C 
HETATM    5  C5  UNL     1      21.385   5.123  50.217  1.00  0.00     0.051 C 
HETATM    6  C6  UNL     1      20.183   5.912  49.859  1.00  0.00     0.144 C 
HETATM    7  C7  UNL     1      20.893   7.127  49.874  1.00  0.00     0.084 C 
HETATM    8 CL1  UNL     1      19.350   7.960  49.433  1.00  0.00    -0.116 Cl
HETATM    9  C8  UNL     1      22.133   8.050  50.061  1.00  0.00     0.111 C 
HETATM   10  F1  UNL     1      21.808   9.323  49.804  1.00  0.00    -0.209 F 
HETATM   11  C9  UNL     1      23.313   7.543  50.429  1.00  0.00     0.032 C 
HETATM   12  C10 UNL     1      24.302   6.572  50.814  1.00  0.00     0.159 C 
HETATM   13  N1  UNL     1      23.977   5.181  50.943  1.00  0.00    -0.311 N 
HETATM   14  C11 UNL     1      22.970   5.282  52.036  1.00  0.00     0.210 C 
HETATM   15  N2  UNL     1      21.673   5.055  51.770  1.00  0.00    -0.247 NA
HETATM   16  C12 UNL     1      22.355   2.897  49.472  1.00  0.00     0.051 C 
HETATM   17  C13 UNL     1      23.501   2.875  50.242  1.00  0.00     0.132 C 
ENDROOT
BRANCH  17  18
HETATM   18  O3  UNL     1      23.825   1.783  51.113  1.00  0.00    -0.348 OA
BRANCH  18  19
HETATM   19  C14 UNL     1      23.307   1.677  52.399  1.00  0.00     0.177 C 
BRANCH  19  20
HETATM   20  C15 UNL     1      24.459   1.923  53.351  1.00  0.00     0.057 C 
BRANCH  20  21
HETATM   21  C16 UNL     1      25.394   0.736  53.421  1.00  0.00     0.274 C 
BRANCH  21  22
HETATM   22  N3  UNL     1      26.655   1.202  53.928  1.00  0.00     0.092 N 
HETATM   23  C17 UNL     1      27.546   1.708  52.903  1.00  0.00     0.298 C 
HETATM   24  C18 UNL     1      28.657   2.443  53.618  1.00  0.00     0.198 C 
HETATM   25  O4  UNL     1      29.025   1.782  54.793  1.00  0.00    -0.388 OA
HETATM   26  C19 UNL     1      28.767   0.423  54.726  1.00  0.00     0.198 C 
HETATM   27  C20 UNL     1      27.268   0.218  54.765  1.00  0.00     0.298 C 
ENDBRANCH  21  22
ENDBRANCH  20  21
ENDBRANCH  19  20
ENDBRANCH  18  19
ENDBRANCH  17  18
BRANCH   1  28
HETATM   28  O1  UNL     1      25.699   3.706  50.636  1.00  0.00    -0.338 OA
HETATM   29  C1  UNL     1      26.667   3.524  49.688  1.00  0.00     0.208 C 
ENDBRANCH   1  28
TORSDOF 6
ENDMDL
MODEL 2
REMARK VINA RESULT:      -7.3      2.338      3.457
REMARK  6 active torsions:
REMARK  status: ('A' for Active; 'I' for Inactive)
REMARK    1  A    between atoms: O1_2  and  C2_3 
REMARK    2  A    between atoms: C13_19  and  O3_20 
REMARK    3  A    between atoms: O3_20  and  C14_21 
REMARK    4  A    between atoms: C14_21  and  C15_22 
REMARK    5  A    between atoms: C15_22  and  C16_23 
REMARK    6  A    between atoms: C16_23  and  N3_24 
ROOT
HETATM    1  C2  UNL     1      21.813   3.713  51.138  1.00  0.00     0.304 C 
HETATM    2  O2  UNL     1      21.324   4.974  51.497  1.00  0.00    -0.328 OA
HETATM    3  C3  UNL     1      22.309   5.955  51.420  1.00  0.00     0.214 C 
HETATM    4  C4  UNL     1      23.639   5.204  51.153  1.00  0.00    -0.007 C 
HETATM    5  C5  UNL     1      24.643   5.001  50.174  1.00  0.00     0.051 C 
HETATM    6  C6  UNL     1      25.622   5.983  49.653  1.00  0.00     0.144 C 
HETATM    7  C7  UNL     1      24.800   6.325  48.563  1.00  0.00     0.084 C 
HETATM    8 CL1  UNL     1      26.083   7.491  48.045  1.00  0.00    -0.116 Cl
HETATM    9  C8  UNL     1      23.544   6.248  47.647  1.00  0.00     0.111 C 
HETATM   10  F1  UNL     1      23.646   7.126  46.641  1.00  0.00    -0.209 F 
HETATM   11  C9  UNL     1      22.555   5.389  47.913  1.00  0.00     0.032 C 
HETATM   12  C10 UNL     1      21.810   4.359  48.585  1.00  0.00     0.159 C 
HETATM   13  N1  UNL     1      22.316   3.711  49.759  1.00  0.00    -0.311 N 
HETATM   14  C11 UNL     1      23.539   3.096  49.172  1.00  0.00     0.210 C 
HETATM   15  N2  UNL     1      24.750   3.569  49.510  1.00  0.00    -0.247 NA
HETATM   16  C12 UNL     1      23.788   4.373  52.481  1.00  0.00     0.051 C 
HETATM   17  C13 UNL     1      22.873   3.400  52.132  1.00  0.00     0.132 C 
ENDROOT
BRANCH  17  18
HETATM   18  O3  UNL     1      22.900   2.080  52.692  1.00  0.00    -0.348 OA
BRANCH  18  19
HETATM   19  C14 UNL     1      23.523   1.013  52.054  1.00  0.00     0.177 C 
BRANCH  19  20
HETATM   20  C15 UNL     1      24.998   1.114  52.383  1.00  0.00     0.057 C 
BRANCH  20  21
HETATM   21  C16 UNL     1      25.279   0.761  53.826  1.00  0.00     0.274 C 
BRANCH  21  22
HETATM   22  N3  UNL     1      26.604   1.220  54.139  1.00  0.00     0.092 N 
HETATM   23  C17 UNL     1      27.322   1.751  52.997  1.00  0.00     0.298 C 
HETATM   24  C18 UNL     1      28.532   2.474  53.545  1.00  0.00     0.198 C 
HETATM   25  O4  UNL     1      29.081   1.789  54.632  1.00  0.00    -0.388 OA
HETATM   26  C19 UNL     1      28.815   0.431  54.576  1.00  0.00     0.198 C 
HETATM   27  C20 UNL     1      27.341   0.220  54.846  1.00  0.00     0.298 C 
ENDBRANCH  21  22
ENDBRANCH  20  21
ENDBRANCH  19  20
ENDBRANCH  18  19
ENDBRANCH  17  18
BRANCH   1  28
HETATM   28  O1  UNL     1      20.755   2.846  51.192  1.00  0.00    -0.338 OA
HETATM   29  C1  UNL     1      19.537   3.388  51.496  1.00  0.00     0.208 C 
ENDBRANCH   1  28
TORSDOF 6
ENDMDL
MODEL 3
REMARK VINA RESULT:      -7.1      2.610      3.468
REMARK  6 active torsions:
REMARK  status: ('A' for Active; 'I' for Inactive)
REMARK    1  A    between atoms: O1_2  and  C2_3 
REMARK    2  A    between atoms: C13_19  and  O3_20 
REMARK    3  A    between atoms: O3_20  and  C14_21 
REMARK    4  A    between atoms: C14_21  and  C15_22 
REMARK    5  A    between atoms: C15_22  and  C16_23 
REMARK    6  A    between atoms: C16_23  and  N3_24 
ROOT
HETATM    1  C2  UNL     1      22.619   2.276  50.629  1.00  0.00     0.304 C 
HETATM    2  O2  UNL     1      22.335   1.805  49.342  1.00  0.00    -0.328 OA
HETATM    3  C3  UNL     1      21.038   1.312  49.243  1.00  0.00     0.214 C 
HETATM    4  C4  UNL     1      20.475   1.297  50.688  1.00  0.00    -0.007 C 
HETATM    5  C5  UNL     1      19.513   1.906  51.531  1.00  0.00     0.051 C 
HETATM    6  C6  UNL     1      18.036   1.819  51.442  1.00  0.00     0.144 C 
HETATM    7  C7  UNL     1      17.944   3.003  50.686  1.00  0.00     0.084 C 
HETATM    8 CL1  UNL     1      16.151   2.768  50.656  1.00  0.00    -0.116 Cl
HETATM    9  C8  UNL     1      18.474   4.273  49.959  1.00  0.00     0.111 C 
HETATM   10  F1  UNL     1      17.462   4.944  49.396  1.00  0.00    -0.209 F 
HETATM   11  C9  UNL     1      19.778   4.566  49.957  1.00  0.00     0.032 C 
HETATM   12  C10 UNL     1      21.186   4.449  50.228  1.00  0.00     0.159 C 
HETATM   13  N1  UNL     1      21.713   3.367  51.007  1.00  0.00    -0.311 N 
HETATM   14  C11 UNL     1      21.011   3.646  52.291  1.00  0.00     0.210 C 
HETATM   15  N2  UNL     1      20.035   2.822  52.709  1.00  0.00    -0.247 NA
HETATM   16  C12 UNL     1      21.420   0.237  51.367  1.00  0.00     0.051 C 
HETATM   17  C13 UNL     1      22.491   1.094  51.522  1.00  0.00     0.132 C 
ENDROOT
BRANCH  17  18
HETATM   18  O3  UNL     1      23.501   0.894  52.519  1.00  0.00    -0.348 OA
BRANCH  18  19
HETATM   19  C14 UNL     1      23.601  -0.283  53.254  1.00  0.00     0.177 C 
BRANCH  19  20
HETATM   20  C15 UNL     1      25.056  -0.420  53.653  1.00  0.00     0.057 C 
BRANCH  20  21
HETATM   21  C16 UNL     1      25.987  -0.103  52.504  1.00  0.00     0.274 C 
BRANCH  21  22
HETATM   22  N3  UNL     1      27.234   0.344  53.062  1.00  0.00     0.092 N 
HETATM   23  C17 UNL     1      27.315   0.196  54.502  1.00  0.00     0.298 C 
HETATM   24  C18 UNL     1      28.766   0.393  54.876  1.00  0.00     0.198 C 
HETATM   25  O4  UNL     1      29.355   1.399  54.105  1.00  0.00    -0.388 OA
HETATM   26  C19 UNL     1      28.424   2.325  53.664  1.00  0.00     0.198 C 
HETATM   27  C20 UNL     1      27.551   1.665  52.617  1.00  0.00     0.298 C 
ENDBRANCH  21  22
ENDBRANCH  20  21
ENDBRANCH  19  20
ENDBRANCH  18  19
ENDBRANCH  17  18
BRANCH   1  28
HETATM   28  O1  UNL     1      23.888   2.787  50.595  1.00  0.00    -0.338 OA
HETATM   29  C1  UNL     1      24.326   3.253  49.387  1.00  0.00     0.208 C 
ENDBRANCH   1  28
TORSDOF 6
ENDMDL
MODEL 4
REMARK VINA RESULT:      -6.8      3.499      4.654
REMARK  6 active torsions:
REMARK  status: ('A' for Active; 'I' for Inactive)
REMARK    1  A    between atoms: O1_2  and  C2_3 
REMARK    2  A    between atoms: C13_19  and  O3_20 
REMARK    3  A    between atoms: O3_20  and  C14_21 
REMARK    4  A    between atoms: C14_21  and  C15_22 
REMARK    5  A    between atoms: C15_22  and  C16_23 
REMARK    6  A    between atoms: C16_23  and  N3_24 
ROOT
HETATM    1  C2  UNL     1      22.234   3.078  49.995  1.00  0.00     0.304 C 
HETATM    2  O2  UNL     1      22.063   2.221  48.903  1.00  0.00    -0.328 OA
HETATM    3  C3  UNL     1      21.494   1.007  49.279  1.00  0.00     0.214 C 
HETATM    4  C4  UNL     1      21.461   1.013  50.829  1.00  0.00    -0.007 C 
HETATM    5  C5  UNL     1      20.581   1.057  51.939  1.00  0.00     0.051 C 
HETATM    6  C6  UNL     1      19.612   0.025  52.376  1.00  0.00     0.144 C 
HETATM    7  C7  UNL     1      18.552   0.623  51.669  1.00  0.00     0.084 C 
HETATM    8 CL1  UNL     1      17.483  -0.703  52.276  1.00  0.00    -0.116 Cl
HETATM    9  C8  UNL     1      17.865   1.690  50.767  1.00  0.00     0.111 C 
HETATM   10  F1  UNL     1      16.577   1.378  50.577  1.00  0.00    -0.209 F 
HETATM   11  C9  UNL     1      18.552   2.736  50.300  1.00  0.00     0.032 C 
HETATM   12  C10 UNL     1      19.659   3.625  50.063  1.00  0.00     0.159 C 
HETATM   13  N1  UNL     1      20.950   3.385  50.637  1.00  0.00    -0.311 N 
HETATM   14  C11 UNL     1      20.580   3.471  52.077  1.00  0.00     0.210 C 
HETATM   15  N2  UNL     1      20.582   2.361  52.833  1.00  0.00    -0.247 NA
HETATM   16  C12 UNL     1      22.999   1.031  51.163  1.00  0.00     0.051 C 
HETATM   17  C13 UNL     1      23.175   2.376  50.908  1.00  0.00     0.132 C 
ENDROOT
BRANCH  17  18
HETATM   18  O3  UNL     1      24.237   3.140  51.493  1.00  0.00    -0.348 OA
BRANCH  18  19
HETATM   19  C14 UNL     1      25.396   3.461  50.796  1.00  0.00     0.177 C 
BRANCH  19  20
HETATM   20  C15 UNL     1      26.338   2.285  50.958  1.00  0.00     0.057 C 
BRANCH  20  21
HETATM   21  C16 UNL     1      27.039   2.307  52.298  1.00  0.00     0.274 C 
BRANCH  21  22
HETATM   22  N3  UNL     1      26.887   1.008  52.892  1.00  0.00     0.092 N 
HETATM   23  C17 UNL     1      26.626  -0.046  51.931  1.00  0.00     0.298 C 
HETATM   24  C18 UNL     1      26.819  -1.355  52.663  1.00  0.00     0.198 C 
HETATM   25  O4  UNL     1      26.335  -1.279  53.971  1.00  0.00    -0.388 OA
HETATM   26  C19 UNL     1      25.325  -0.340  54.096  1.00  0.00     0.198 C 
HETATM   27  C20 UNL     1      25.935   1.039  53.958  1.00  0.00     0.298 C 
ENDBRANCH  21  22
ENDBRANCH  20  21
ENDBRANCH  19  20
ENDBRANCH  18  19
ENDBRANCH  17  18
BRANCH   1  28
HETATM   28  O1  UNL     1      22.739   4.252  49.504  1.00  0.00    -0.338 OA
HETATM   29  C1  UNL     1      22.878   4.335  48.147  1.00  0.00     0.208 C 
ENDBRANCH   1  28
TORSDOF 6
ENDMDL
MODEL 5
REMARK VINA RESULT:      -6.8      3.884      6.705
REMARK  6 active torsions:
REMARK  status: ('A' for Active; 'I' for Inactive)
REMARK    1  A    between atoms: O1_2  and  C2_3 
REMARK    2  A    between atoms: C13_19  and  O3_20 
REMARK    3  A    between atoms: O3_20  and  C14_21 
REMARK    4  A    between atoms: C14_21  and  C15_22 
REMARK    5  A    between atoms: C15_22  and  C16_23 
REMARK    6  A    between atoms: C16_23  and  N3_24 
ROOT
HETATM    1  C2  UNL     1      23.234   4.552  50.031  1.00  0.00     0.304 C 
HETATM    2  O2  UNL     1      22.627   3.694  49.108  1.00  0.00    -0.328 OA
HETATM    3  C3  UNL     1      22.788   2.356  49.459  1.00  0.00     0.214 C 
HETATM    4  C4  UNL     1      23.773   2.345  50.657  1.00  0.00    -0.007 C 
HETATM    5  C5  UNL     1      23.858   2.072  52.045  1.00  0.00     0.051 C 
HETATM    6  C6  UNL     1      23.726   0.764  52.728  1.00  0.00     0.144 C 
HETATM    7  C7  UNL     1      22.354   0.955  52.974  1.00  0.00     0.084 C 
HETATM    8 CL1  UNL     1      22.339  -0.665  53.779  1.00  0.00    -0.116 Cl
HETATM    9  C8  UNL     1      20.996   1.716  52.956  1.00  0.00     0.111 C 
HETATM   10  F1  UNL     1      20.037   0.972  53.523  1.00  0.00    -0.209 F 
HETATM   11  C9  UNL     1      20.904   2.938  52.425  1.00  0.00     0.032 C 
HETATM   12  C10 UNL     1      21.302   4.159  51.777  1.00  0.00     0.159 C 
HETATM   13  N1  UNL     1      22.658   4.386  51.371  1.00  0.00    -0.311 N 
HETATM   14  C11 UNL     1      23.310   4.332  52.709  1.00  0.00     0.210 C 
HETATM   15  N2  UNL     1      24.097   3.290  53.024  1.00  0.00    -0.247 NA
HETATM   16  C12 UNL     1      25.079   2.900  49.978  1.00  0.00     0.051 C 
HETATM   17  C13 UNL     1      24.683   4.222  49.989  1.00  0.00     0.132 C 
ENDROOT
BRANCH  17  18
HETATM   18  O3  UNL     1      25.618   5.308  49.963  1.00  0.00    -0.348 OA
BRANCH  18  19
HETATM   19  C14 UNL     1      26.589   5.432  48.975  1.00  0.00     0.177 C 
BRANCH  19  20
HETATM   20  C15 UNL     1      26.871   6.914  48.829  1.00  0.00     0.057 C 
BRANCH  20  21
HETATM   21  C16 UNL     1      26.057   7.739  49.801  1.00  0.00     0.274 C 
BRANCH  21  22
HETATM   22  N3  UNL     1      26.405   9.119  49.601  1.00  0.00     0.092 N 
HETATM   23  C17 UNL     1      25.976   9.649  48.322  1.00  0.00     0.298 C 
HETATM   24  C18 UNL     1      26.120  11.152  48.406  1.00  0.00     0.198 C 
HETATM   25  O4  UNL     1      27.269  11.510  49.117  1.00  0.00    -0.388 OA
HETATM   26  C19 UNL     1      28.247  10.534  49.046  1.00  0.00     0.198 C 
HETATM   27  C20 UNL     1      27.793   9.341  49.860  1.00  0.00     0.298 C 
ENDBRANCH  21  22
ENDBRANCH  20  21
ENDBRANCH  19  20
ENDBRANCH  18  19
ENDBRANCH  17  18
BRANCH   1  28
HETATM   28  O1  UNL     1      22.964   5.830  49.623  1.00  0.00    -0.338 OA
HETATM   29  C1  UNL     1      22.543   5.982  48.331  1.00  0.00     0.208 C 
ENDBRANCH   1  28
TORSDOF 6
ENDMDL
MODEL 6
REMARK VINA RESULT:      -6.7      4.077      6.216
REMARK  6 active torsions:
REMARK  status: ('A' for Active; 'I' for Inactive)
REMARK    1  A    between atoms: O1_2  and  C2_3 
REMARK    2  A    between atoms: C13_19  and  O3_20 
REMARK    3  A    between atoms: O3_20  and  C14_21 
REMARK    4  A    between atoms: C14_21  and  C15_22 
REMARK    5  A    between atoms: C15_22  and  C16_23 
REMARK    6  A    between atoms: C16_23  and  N3_24 
ROOT
HETATM    1  C2  UNL     1      23.000   4.703  50.007  1.00  0.00     0.304 C 
HETATM    2  O2  UNL     1      22.434   3.828  49.074  1.00  0.00    -0.328 OA
HETATM    3  C3  UNL     1      22.748   2.500  49.349  1.00  0.00     0.214 C 
HETATM    4  C4  UNL     1      23.794   2.537  50.494  1.00  0.00    -0.007 C 
HETATM    5  C5  UNL     1      23.983   2.214  51.861  1.00  0.00     0.051 C 
HETATM    6  C6  UNL     1      24.022   0.871  52.484  1.00  0.00     0.144 C 
HETATM    7  C7  UNL     1      22.653   0.907  52.809  1.00  0.00     0.084 C 
HETATM    8 CL1  UNL     1      22.846  -0.739  53.532  1.00  0.00    -0.116 Cl
HETATM    9  C8  UNL     1      21.226   1.524  52.896  1.00  0.00     0.111 C 
HETATM   10  F1  UNL     1      20.380   0.661  53.474  1.00  0.00    -0.209 F 
HETATM   11  C9  UNL     1      20.981   2.752  52.432  1.00  0.00     0.032 C 
HETATM   12  C10 UNL     1      21.218   4.036  51.826  1.00  0.00     0.159 C 
HETATM   13  N1  UNL     1      22.519   4.419  51.364  1.00  0.00    -0.311 N 
HETATM   14  C11 UNL     1      23.246   4.374  52.663  1.00  0.00     0.210 C 
HETATM   15  N2  UNL     1      24.151   3.406  52.886  1.00  0.00    -0.247 NA
HETATM   16  C12 UNL     1      24.998   3.254  49.778  1.00  0.00     0.051 C 
HETATM   17  C13 UNL     1      24.471   4.527  49.875  1.00  0.00     0.132 C 
ENDROOT
BRANCH  17  18
HETATM   18  O3  UNL     1      25.289   5.704  49.855  1.00  0.00    -0.348 OA
BRANCH  18  19
HETATM   19  C14 UNL     1      25.704   6.304  48.671  1.00  0.00     0.177 C 
BRANCH  19  20
HETATM   20  C15 UNL     1      27.200   6.083  48.576  1.00  0.00     0.057 C 
BRANCH  20  21
HETATM   21  C16 UNL     1      27.934   7.355  48.213  1.00  0.00     0.274 C 
BRANCH  21  22
HETATM   22  N3  UNL     1      29.321   7.023  48.034  1.00  0.00     0.092 N 
HETATM   23  C17 UNL     1      29.627   5.631  48.301  1.00  0.00     0.298 C 
HETATM   24  C18 UNL     1      31.016   5.382  47.760  1.00  0.00     0.198 C 
HETATM   25  O4  UNL     1      31.851   6.479  47.987  1.00  0.00    -0.388 OA
HETATM   26  C19 UNL     1      31.453   7.212  49.093  1.00  0.00     0.198 C 
HETATM   27  C20 UNL     1      30.162   7.927  48.754  1.00  0.00     0.298 C 
ENDBRANCH  21  22
ENDBRANCH  20  21
ENDBRANCH  19  20
ENDBRANCH  18  19
ENDBRANCH  17  18
BRANCH   1  28
HETATM   28  O1  UNL     1      22.581   5.963  49.676  1.00  0.00    -0.338 OA
HETATM   29  C1  UNL     1      21.852   6.081  48.525  1.00  0.00     0.208 C 
ENDBRANCH   1  28
TORSDOF 6
ENDMDL
MODEL 7
REMARK VINA RESULT:      -6.5      3.546      4.579
REMARK  6 active torsions:
REMARK  status: ('A' for Active; 'I' for Inactive)
REMARK    1  A    between atoms: O1_2  and  C2_3 
REMARK    2  A    between atoms: C13_19  and  O3_20 
REMARK    3  A    between atoms: O3_20  and  C14_21 
REMARK    4  A    between atoms: C14_21  and  C15_22 
REMARK    5  A    between atoms: C15_22  and  C16_23 
REMARK    6  A    between atoms: C16_23  and  N3_24 
ROOT
HETATM    1  C2  UNL     1      22.808   3.675  49.143  1.00  0.00     0.304 C 
HETATM    2  O2  UNL     1      22.762   4.197  47.847  1.00  0.00    -0.328 OA
HETATM    3  C3  UNL     1      22.887   5.584  47.840  1.00  0.00     0.214 C 
HETATM    4  C4  UNL     1      22.824   6.025  49.325  1.00  0.00    -0.007 C 
HETATM    5  C5  UNL     1      23.601   6.585  50.370  1.00  0.00     0.051 C 
HETATM    6  C6  UNL     1      24.159   7.954  50.460  1.00  0.00     0.144 C 
HETATM    7  C7  UNL     1      25.396   7.559  49.918  1.00  0.00     0.084 C 
HETATM    8 CL1  UNL     1      25.943   9.274  50.083  1.00  0.00    -0.116 Cl
HETATM    9  C8  UNL     1      26.444   6.565  49.336  1.00  0.00     0.111 C 
HETATM   10  F1  UNL     1      27.573   7.211  49.021  1.00  0.00    -0.209 F 
HETATM   11  C9  UNL     1      26.159   5.266  49.211  1.00  0.00     0.032 C 
HETATM   12  C10 UNL     1      25.413   4.037  49.277  1.00  0.00     0.159 C 
HETATM   13  N1  UNL     1      24.080   3.996  49.802  1.00  0.00    -0.311 N 
HETATM   14  C11 UNL     1      24.368   4.444  51.193  1.00  0.00     0.210 C 
HETATM   15  N2  UNL     1      23.962   5.658  51.600  1.00  0.00    -0.247 NA
HETATM   16  C12 UNL     1      21.356   5.604  49.702  1.00  0.00     0.051 C 
HETATM   17  C13 UNL     1      21.637   4.260  49.849  1.00  0.00     0.132 C 
ENDROOT
BRANCH  17  18
HETATM   18  O3  UNL     1      20.841   3.391  50.664  1.00  0.00    -0.348 OA
BRANCH  18  19
HETATM   19  C14 UNL     1      20.946   3.365  52.051  1.00  0.00     0.177 C 
BRANCH  19  20
HETATM   20  C15 UNL     1      21.756   2.133  52.400  1.00  0.00     0.057 C 
BRANCH  20  21
HETATM   21  C16 UNL     1      21.221   0.896  51.714  1.00  0.00     0.274 C 
BRANCH  21  22
HETATM   22  N3  UNL     1      21.378  -0.209  52.620  1.00  0.00     0.092 N 
HETATM   23  C17 UNL     1      20.290  -0.345  53.568  1.00  0.00     0.298 C 
HETATM   24  C18 UNL     1      20.441  -1.707  54.207  1.00  0.00     0.198 C 
HETATM   25  O4  UNL     1      21.786  -2.016  54.428  1.00  0.00    -0.388 OA
HETATM   26  C19 UNL     1      22.559  -0.878  54.585  1.00  0.00     0.198 C 
HETATM   27  C20 UNL     1      22.663  -0.182  53.245  1.00  0.00     0.298 C 
ENDBRANCH  21  22
ENDBRANCH  20  21
ENDBRANCH  19  20
ENDBRANCH  18  19
ENDBRANCH  17  18
BRANCH   1  28
HETATM   28  O1  UNL     1      22.737   2.313  49.027  1.00  0.00    -0.338 OA
HETATM   29  C1  UNL     1      22.289   1.826  47.831  1.00  0.00     0.208 C 
ENDBRANCH   1  28
TORSDOF 6
ENDMDL
MODEL 8
REMARK VINA RESULT:      -6.3      3.851      5.155
REMARK  6 active torsions:
REMARK  status: ('A' for Active; 'I' for Inactive)
REMARK    1  A    between atoms: O1_2  and  C2_3 
REMARK    2  A    between atoms: C13_19  and  O3_20 
REMARK    3  A    between atoms: O3_20  and  C14_21 
REMARK    4  A    between atoms: C14_21  and  C15_22 
REMARK    5  A    between atoms: C15_22  and  C16_23 
REMARK    6  A    between atoms: C16_23  and  N3_24 
ROOT
HETATM    1  C2  UNL     1      21.927   6.566  50.281  1.00  0.00     0.304 C 
HETATM    2  O2  UNL     1      22.434   7.743  50.842  1.00  0.00    -0.328 OA
HETATM    3  C3  UNL     1      23.813   7.681  51.022  1.00  0.00     0.214 C 
HETATM    4  C4  UNL     1      24.220   6.218  50.705  1.00  0.00    -0.007 C 
HETATM    5  C5  UNL     1      24.932   5.422  49.775  1.00  0.00     0.051 C 
HETATM    6  C6  UNL     1      26.392   5.402  49.520  1.00  0.00     0.144 C 
HETATM    7  C7  UNL     1      26.288   6.325  48.463  1.00  0.00     0.084 C 
HETATM    8 CL1  UNL     1      28.082   6.204  48.267  1.00  0.00    -0.116 Cl
HETATM    9  C8  UNL     1      25.559   7.274  47.466  1.00  0.00     0.111 C 
HETATM   10  F1  UNL     1      26.444   7.869  46.658  1.00  0.00    -0.209 F 
HETATM   11  C9  UNL     1      24.229   7.405  47.495  1.00  0.00     0.032 C 
HETATM   12  C10 UNL     1      22.864   7.208  47.905  1.00  0.00     0.159 C 
HETATM   13  N1  UNL     1      22.521   6.305  48.964  1.00  0.00    -0.311 N 
HETATM   14  C11 UNL     1      23.013   5.039  48.354  1.00  0.00     0.210 C 
HETATM   15  N2  UNL     1      24.103   4.436  48.857  1.00  0.00    -0.247 NA
HETATM   16  C12 UNL     1      23.477   5.444  51.855  1.00  0.00     0.051 C 
HETATM   17  C13 UNL     1      22.230   5.493  51.265  1.00  0.00     0.132 C 
ENDROOT
BRANCH  17  18
HETATM   18  O3  UNL     1      21.198   4.543  51.561  1.00  0.00    -0.348 OA
BRANCH  18  19
HETATM   19  C14 UNL     1      21.278   3.210  51.172  1.00  0.00     0.177 C 
BRANCH  19  20
HETATM   20  C15 UNL     1      22.034   2.485  52.267  1.00  0.00     0.057 C 
BRANCH  20  21
HETATM   21  C16 UNL     1      22.217   1.018  51.948  1.00  0.00     0.274 C 
BRANCH  21  22
HETATM   22  N3  UNL     1      22.028   0.280  53.167  1.00  0.00     0.092 N 
HETATM   23  C17 UNL     1      23.073  -0.690  53.429  1.00  0.00     0.298 C 
HETATM   24  C18 UNL     1      22.906  -1.129  54.866  1.00  0.00     0.198 C 
HETATM   25  O4  UNL     1      21.555  -1.243  55.205  1.00  0.00    -0.388 OA
HETATM   26  C19 UNL     1      20.765  -1.518  54.102  1.00  0.00     0.198 C 
HETATM   27  C20 UNL     1      20.716  -0.282  53.229  1.00  0.00     0.298 C 
ENDBRANCH  21  22
ENDBRANCH  20  21
ENDBRANCH  19  20
ENDBRANCH  18  19
ENDBRANCH  17  18
BRANCH   1  28
HETATM   28  O1  UNL     1      20.585   6.760  50.095  1.00  0.00    -0.338 OA
HETATM   29  C1  UNL     1      20.156   8.057  50.053  1.00  0.00     0.208 C 
ENDBRANCH   1  28
TORSDOF 6
ENDMDL
MODEL 9
REMARK VINA RESULT:      -6.2      4.232      6.428
REMARK  6 active torsions:
REMARK  status: ('A' for Active; 'I' for Inactive)
REMARK    1  A    between atoms: O1_2  and  C2_3 
REMARK    2  A    between atoms: C13_19  and  O3_20 
REMARK    3  A    between atoms: O3_20  and  C14_21 
REMARK    4  A    between atoms: C14_21  and  C15_22 
REMARK    5  A    between atoms: C15_22  and  C16_23 
REMARK    6  A    between atoms: C16_23  and  N3_24 
ROOT
HETATM    1  C2  UNL     1      22.264   3.630  51.265  1.00  0.00     0.304 C 
HETATM    2  O2  UNL     1      21.537   4.240  52.292  1.00  0.00    -0.328 OA
HETATM    3  C3  UNL     1      20.307   3.621  52.498  1.00  0.00     0.214 C 
HETATM    4  C4  UNL     1      20.144   2.601  51.341  1.00  0.00    -0.007 C 
HETATM    5  C5  UNL     1      20.092   1.214  51.059  1.00  0.00     0.051 C 
HETATM    6  C6  UNL     1      19.048   0.241  51.456  1.00  0.00     0.144 C 
HETATM    7  C7  UNL     1      19.752  -0.146  52.612  1.00  0.00     0.084 C 
HETATM    8 CL1  UNL     1      18.400  -1.291  52.975  1.00  0.00    -0.116 Cl
HETATM    9  C8  UNL     1      20.931  -0.145  53.628  1.00  0.00     0.111 C 
HETATM   10  F1  UNL     1      20.681  -0.995  54.632  1.00  0.00    -0.209 F 
HETATM   11  C9  UNL     1      22.001   0.631  53.433  1.00  0.00     0.032 C 
HETATM   12  C10 UNL     1      22.877   1.588  52.811  1.00  0.00     0.159 C 
HETATM   13  N1  UNL     1      22.537   2.220  51.570  1.00  0.00    -0.311 N 
HETATM   14  C11 UNL     1      22.475   1.009  50.705  1.00  0.00     0.210 C 
HETATM   15  N2  UNL     1      21.289   0.579  50.244  1.00  0.00    -0.247 NA
HETATM   16  C12 UNL     1      20.079   3.564  50.098  1.00  0.00     0.051 C 
HETATM   17  C13 UNL     1      21.438   3.798  50.039  1.00  0.00     0.132 C 
ENDROOT
BRANCH  17  18
HETATM   18  O3  UNL     1      22.100   4.200  48.834  1.00  0.00    -0.348 OA
BRANCH  18  19
HETATM   19  C14 UNL     1      22.003   5.491  48.324  1.00  0.00     0.177 C 
BRANCH  19  20
HETATM   20  C15 UNL     1      23.343   5.809  47.694  1.00  0.00     0.057 C 
BRANCH  20  21
HETATM   21  C16 UNL     1      24.186   6.697  48.582  1.00  0.00     0.274 C 
BRANCH  21  22
HETATM   22  N3  UNL     1      25.566   6.391  48.322  1.00  0.00     0.092 N 
HETATM   23  C17 UNL     1      26.137   5.438  49.252  1.00  0.00     0.298 C 
HETATM   24  C18 UNL     1      27.452   4.987  48.657  1.00  0.00     0.198 C 
HETATM   25  O4  UNL     1      28.115   6.048  48.035  1.00  0.00    -0.388 OA
HETATM   26  C19 UNL     1      27.771   7.269  48.588  1.00  0.00     0.198 C 
HETATM   27  C20 UNL     1      26.342   7.585  48.199  1.00  0.00     0.298 C 
ENDBRANCH  21  22
ENDBRANCH  20  21
ENDBRANCH  19  20
ENDBRANCH  18  19
ENDBRANCH  17  18
BRANCH   1  28
HETATM   28  O1  UNL     1      23.468   4.275  51.191  1.00  0.00    -0.338 OA
HETATM   29  C1  UNL     1      23.604   5.401  51.955  1.00  0.00     0.208 C 
ENDBRANCH   1  28
TORSDOF 6
ENDMDL
