MODEL 1
REMARK VINA RESULT:      -7.8      0.000      0.000
REMARK  5 active torsions:
REMARK  status: ('A' for Active; 'I' for Inactive)
REMARK    1  A    between atoms: C4_4  and  N1_5 
REMARK       I    between atoms: N1_5  and  C5_6 
REMARK    2  A    between atoms: C5_6  and  C6_8 
REMARK    3  A    between atoms: C6_8  and  N2_9 
REMARK    4  A    between atoms: C16_20  and  C17_21 
REMARK    5  A    between atoms: C17_21  and  O2_23 
ROOT
HETATM    1  N1  UNL     1      23.189   3.763  49.730  1.00  0.00    -0.326 N 
HETATM    2  C5  UNL     1      22.813   4.243  51.012  1.00  0.00     0.239 C 
HETATM    3  O1  UNL     1      23.623   5.040  51.565  1.00  0.00    -0.271 OA
HETATM    4  H5  UNL     1      22.482   3.097  49.298  1.00  0.00     0.169 HD
ENDROOT
BRANCH   1   5
HETATM    5  C4  UNL     1      24.450   4.348  49.403  1.00  0.00     0.035 A 
HETATM    6  C3  UNL     1      24.353   5.586  48.804  1.00  0.00     0.037 A 
HETATM    7  C2  UNL     1      25.489   6.286  48.426  1.00  0.00    -0.051 A 
HETATM    8  C1  UNL     1      25.403   7.622  47.779  1.00  0.00     0.049 C 
HETATM    9  C16 UNL     1      26.713   5.697  48.672  1.00  0.00    -0.024 A 
HETATM   10  C15 UNL     1      26.802   4.458  49.272  1.00  0.00     0.012 A 
HETATM   11  C14 UNL     1      25.685   3.745  49.656  1.00  0.00     0.030 A 
BRANCH   9  12
HETATM   12  C17 UNL     1      27.989   6.360  48.308  1.00  0.00     0.147 C 
HETATM   13  C18 UNL     1      29.131   5.410  48.104  1.00  0.00     0.044 C 
BRANCH  12  14
HETATM   14  O2  UNL     1      28.357   7.321  49.252  1.00  0.00    -0.391 OA
HETATM   15  H21 UNL     1      28.520   8.200  48.832  1.00  0.00     0.210 HD
ENDBRANCH  12  14
ENDBRANCH   9  12
ENDBRANCH   1   5
BRANCH   2  16
HETATM   16  C6  UNL     1      21.570   3.918  51.787  1.00  0.00     0.225 C 
BRANCH  16  17
HETATM   17  N2  UNL     1      21.649   2.615  52.392  1.00  0.00    -0.375 N 
HETATM   18  C7  UNL     1      20.463   1.903  52.764  1.00  0.00     0.116 A 
HETATM   19  C8  UNL     1      20.719   0.727  53.304  1.00  0.00     0.055 A 
HETATM   20  N3  UNL     1      20.040  -0.385  53.845  1.00  0.00    -0.364 N 
HETATM   21  C12 UNL     1      22.193   0.615  53.303  1.00  0.00    -0.012 A 
HETATM   22  C9  UNL     1      20.678  -1.538  54.360  1.00  0.00     0.088 A 
HETATM   23  H9  UNL     1      18.996  -0.333  53.858  1.00  0.00     0.165 HD
HETATM   24  C10 UNL     1      22.010  -1.581  54.333  1.00  0.00     0.018 A 
HETATM   25  C11 UNL     1      22.766  -0.466  53.786  1.00  0.00     0.012 A 
HETATM   26  C13 UNL     1      22.828   1.830  52.714  1.00  0.00     0.163 A 
ENDBRANCH  16  17
ENDBRANCH   2  16
TORSDOF 5
ENDMDL
MODEL 2
REMARK VINA RESULT:      -7.8      4.239      8.373
REMARK  5 active torsions:
REMARK  status: ('A' for Active; 'I' for Inactive)
REMARK    1  A    between atoms: C4_4  and  N1_5 
REMARK       I    between atoms: N1_5  and  C5_6 
REMARK    2  A    between atoms: C5_6  and  C6_8 
REMARK    3  A    between atoms: C6_8  and  N2_9 
REMARK    4  A    between atoms: C16_20  and  C17_21 
REMARK    5  A    between atoms: C17_21  and  O2_23 
ROOT
HETATM    1  N1  UNL     1      22.930   2.049  53.081  1.00  0.00    -0.326 N 
HETATM    2  C5  UNL     1      23.647   1.886  51.867  1.00  0.00     0.239 C 
HETATM    3  O1  UNL     1      23.078   1.193  50.976  1.00  0.00    -0.271 OA
HETATM    4  H5  UNL     1      23.442   2.638  53.803  1.00  0.00     0.169 HD
ENDROOT
BRANCH   1   5
HETATM    5  C4  UNL     1      21.695   1.345  52.951  1.00  0.00     0.035 A 
HETATM    6  C3  UNL     1      21.684   0.117  53.579  1.00  0.00     0.037 A 
HETATM    7  C2  UNL     1      20.557  -0.690  53.546  1.00  0.00    -0.051 A 
HETATM    8  C1  UNL     1      20.527  -2.015  54.218  1.00  0.00     0.049 C 
HETATM    9  C16 UNL     1      19.453  -0.218  52.863  1.00  0.00    -0.024 A 
HETATM   10  C15 UNL     1      19.473   1.012  52.237  1.00  0.00     0.012 A 
HETATM   11  C14 UNL     1      20.583   1.830  52.258  1.00  0.00     0.030 A 
BRANCH   9  12
HETATM   12  C17 UNL     1      18.198  -1.001  52.767  1.00  0.00     0.147 C 
HETATM   13  C18 UNL     1      17.282  -0.549  51.668  1.00  0.00     0.044 C 
BRANCH  12  14
HETATM   14  O2  UNL     1      17.497  -1.001  53.975  1.00  0.00    -0.391 OA
HETATM   15  H21 UNL     1      17.781  -0.257  54.560  1.00  0.00     0.210 HD
ENDBRANCH  12  14
ENDBRANCH   9  12
ENDBRANCH   1   5
BRANCH   2  16
HETATM   16  C6  UNL     1      24.998   2.437  51.514  1.00  0.00     0.225 C 
BRANCH  16  17
HETATM   17  N2  UNL     1      26.057   1.607  52.022  1.00  0.00    -0.375 N 
HETATM   18  C7  UNL     1      27.282   2.182  52.492  1.00  0.00     0.116 A 
HETATM   19  C8  UNL     1      28.141   1.277  52.921  1.00  0.00     0.055 A 
HETATM   20  N3  UNL     1      29.437   1.193  53.472  1.00  0.00    -0.364 N 
HETATM   21  C12 UNL     1      27.460  -0.021  52.736  1.00  0.00    -0.012 A 
HETATM   22  C9  UNL     1      30.076  -0.017  53.832  1.00  0.00     0.088 A 
HETATM   23  H9  UNL     1      29.944   2.097  53.614  1.00  0.00     0.165 HD
HETATM   24  C10 UNL     1      29.410  -1.157  53.640  1.00  0.00     0.018 A 
HETATM   25  C11 UNL     1      28.071  -1.134  53.077  1.00  0.00     0.012 A 
HETATM   26  C13 UNL     1      26.098   0.161  52.151  1.00  0.00     0.163 A 
ENDBRANCH  16  17
ENDBRANCH   2  16
TORSDOF 5
ENDMDL
MODEL 3
REMARK VINA RESULT:      -7.5      3.075      8.741
REMARK  5 active torsions:
REMARK  status: ('A' for Active; 'I' for Inactive)
REMARK    1  A    between atoms: C4_4  and  N1_5 
REMARK       I    between atoms: N1_5  and  C5_6 
REMARK    2  A    between atoms: C5_6  and  C6_8 
REMARK    3  A    between atoms: C6_8  and  N2_9 
REMARK    4  A    between atoms: C16_20  and  C17_21 
REMARK    5  A    between atoms: C17_21  and  O2_23 
ROOT
HETATM    1  N1  UNL     1      25.987   3.847  51.153  1.00  0.00    -0.326 N 
HETATM    2  C5  UNL     1      25.069   4.067  50.094  1.00  0.00     0.239 C 
HETATM    3  O1  UNL     1      24.096   3.262  50.027  1.00  0.00    -0.271 OA
HETATM    4  H5  UNL     1      26.789   4.546  51.176  1.00  0.00     0.169 HD
ENDROOT
BRANCH   1   5
HETATM    5  C4  UNL     1      25.532   2.713  51.891  1.00  0.00     0.035 A 
HETATM    6  C3  UNL     1      26.291   1.578  51.694  1.00  0.00     0.037 A 
HETATM    7  C2  UNL     1      25.979   0.391  52.340  1.00  0.00    -0.051 A 
HETATM    8  C1  UNL     1      26.786  -0.841  52.139  1.00  0.00     0.049 C 
HETATM    9  C16 UNL     1      24.885   0.391  53.183  1.00  0.00    -0.024 A 
HETATM   10  C15 UNL     1      24.132   1.531  53.374  1.00  0.00     0.012 A 
HETATM   11  C14 UNL     1      24.425   2.722  52.743  1.00  0.00     0.030 A 
BRANCH   9  12
HETATM   12  C17 UNL     1      24.466  -0.823  53.922  1.00  0.00     0.147 C 
HETATM   13  C18 UNL     1      22.998  -0.874  54.225  1.00  0.00     0.044 C 
BRANCH  12  14
HETATM   14  O2  UNL     1      25.183  -0.976  55.110  1.00  0.00    -0.391 OA
HETATM   15  H21 UNL     1      25.263  -0.122  55.600  1.00  0.00     0.210 HD
ENDBRANCH  12  14
ENDBRANCH   9  12
ENDBRANCH   1   5
BRANCH   2  16
HETATM   16  C6  UNL     1      25.113   5.140  49.045  1.00  0.00     0.225 C 
BRANCH  16  17
HETATM   17  N2  UNL     1      26.462   5.548  48.762  1.00  0.00    -0.375 N 
HETATM   18  C7  UNL     1      26.798   6.934  48.622  1.00  0.00     0.116 A 
HETATM   19  C8  UNL     1      28.078   7.127  48.364  1.00  0.00     0.055 A 
HETATM   20  N3  UNL     1      28.985   8.182  48.131  1.00  0.00    -0.364 N 
HETATM   21  C12 UNL     1      28.672   5.775  48.324  1.00  0.00    -0.012 A 
HETATM   22  C9  UNL     1      30.366   8.005  47.874  1.00  0.00     0.088 A 
HETATM   23  H9  UNL     1      28.592   9.150  48.152  1.00  0.00     0.165 HD
HETATM   24  C10 UNL     1      30.844   6.761  47.850  1.00  0.00     0.018 A 
HETATM   25  C11 UNL     1      29.957   5.634  48.084  1.00  0.00     0.012 A 
HETATM   26  C13 UNL     1      27.644   4.724  48.581  1.00  0.00     0.163 A 
ENDBRANCH  16  17
ENDBRANCH   2  16
TORSDOF 5
ENDMDL
MODEL 4
REMARK VINA RESULT:      -7.4      3.794      4.722
REMARK  5 active torsions:
REMARK  status: ('A' for Active; 'I' for Inactive)
REMARK    1  A    between atoms: C4_4  and  N1_5 
REMARK       I    between atoms: N1_5  and  C5_6 
REMARK    2  A    between atoms: C5_6  and  C6_8 
REMARK    3  A    between atoms: C6_8  and  N2_9 
REMARK    4  A    between atoms: C16_20  and  C17_21 
REMARK    5  A    between atoms: C17_21  and  O2_23 
ROOT
HETATM    1  N1  UNL     1      24.609   2.440  50.570  1.00  0.00    -0.326 N 
HETATM    2  C5  UNL     1      24.420   2.706  51.952  1.00  0.00     0.239 C 
HETATM    3  O1  UNL     1      24.245   3.918  52.264  1.00  0.00    -0.271 OA
HETATM    4  H5  UNL     1      24.752   1.410  50.349  1.00  0.00     0.169 HD
ENDROOT
BRANCH   1   5
HETATM    5  C4  UNL     1      24.544   3.686  49.878  1.00  0.00     0.035 A 
HETATM    6  C3  UNL     1      25.779   4.221  49.574  1.00  0.00     0.037 A 
HETATM    7  C2  UNL     1      25.887   5.429  48.901  1.00  0.00    -0.051 A 
HETATM    8  C1  UNL     1      27.209   6.019  48.566  1.00  0.00     0.049 C 
HETATM    9  C16 UNL     1      24.716   6.072  48.551  1.00  0.00    -0.024 A 
HETATM   10  C15 UNL     1      23.484   5.530  48.859  1.00  0.00     0.012 A 
HETATM   11  C14 UNL     1      23.355   4.330  49.526  1.00  0.00     0.030 A 
BRANCH   9  12
HETATM   12  C17 UNL     1      24.718   7.367  47.830  1.00  0.00     0.147 C 
HETATM   13  C18 UNL     1      24.464   8.554  48.711  1.00  0.00     0.044 C 
BRANCH  12  14
HETATM   14  O2  UNL     1      23.799   7.372  46.779  1.00  0.00    -0.391 OA
HETATM   15  H21 UNL     1      23.990   8.093  46.131  1.00  0.00     0.210 HD
ENDBRANCH  12  14
ENDBRANCH   9  12
ENDBRANCH   1   5
BRANCH   2  16
HETATM   16  C6  UNL     1      24.404   1.722  53.084  1.00  0.00     0.225 C 
BRANCH  16  17
HETATM   17  N2  UNL     1      25.664   1.039  53.211  1.00  0.00    -0.375 N 
HETATM   18  C7  UNL     1      25.772  -0.363  52.938  1.00  0.00     0.116 A 
HETATM   19  C8  UNL     1      26.997  -0.824  53.103  1.00  0.00     0.055 A 
HETATM   20  N3  UNL     1      27.719  -2.032  53.003  1.00  0.00    -0.364 N 
HETATM   21  C12 UNL     1      27.797   0.346  53.520  1.00  0.00    -0.012 A 
HETATM   22  C9  UNL     1      29.102  -2.160  53.273  1.00  0.00     0.088 A 
HETATM   23  H9  UNL     1      27.178  -2.878  52.710  1.00  0.00     0.165 HD
HETATM   24  C10 UNL     1      29.771  -1.069  53.645  1.00  0.00     0.018 A 
HETATM   25  C11 UNL     1      29.081   0.205  53.765  1.00  0.00     0.012 A 
HETATM   26  C13 UNL     1      26.956   1.576  53.599  1.00  0.00     0.163 A 
ENDBRANCH  16  17
ENDBRANCH   2  16
TORSDOF 5
ENDMDL
MODEL 5
REMARK VINA RESULT:      -7.3      3.004      7.917
REMARK  5 active torsions:
REMARK  status: ('A' for Active; 'I' for Inactive)
REMARK    1  A    between atoms: C4_4  and  N1_5 
REMARK       I    between atoms: N1_5  and  C5_6 
REMARK    2  A    between atoms: C5_6  and  C6_8 
REMARK    3  A    between atoms: C6_8  and  N2_9 
REMARK    4  A    between atoms: C16_20  and  C17_21 
REMARK    5  A    between atoms: C17_21  and  O2_23 
ROOT
HETATM    1  N1  UNL     1      22.972   3.777  52.283  1.00  0.00    -0.326 N 
HETATM    2  C5  UNL     1      23.342   4.085  50.948  1.00  0.00     0.239 C 
HETATM    3  O1  UNL     1      24.185   3.309  50.413  1.00  0.00    -0.271 OA
HETATM    4  H5  UNL     1      22.262   4.452  52.696  1.00  0.00     0.169 HD
ENDROOT
BRANCH   1   5
HETATM    5  C4  UNL     1      23.695   2.610  52.673  1.00  0.00     0.035 A 
HETATM    6  C3  UNL     1      24.993   2.863  53.067  1.00  0.00     0.037 A 
HETATM    7  C2  UNL     1      25.827   1.833  53.476  1.00  0.00    -0.051 A 
HETATM    8  C1  UNL     1      27.228   2.088  53.904  1.00  0.00     0.049 C 
HETATM    9  C16 UNL     1      25.310   0.553  53.473  1.00  0.00    -0.024 A 
HETATM   10  C15 UNL     1      24.011   0.309  53.078  1.00  0.00     0.012 A 
HETATM   11  C14 UNL     1      23.165   1.317  52.668  1.00  0.00     0.030 A 
BRANCH   9  12
HETATM   12  C17 UNL     1      26.116  -0.618  53.892  1.00  0.00     0.147 C 
HETATM   13  C18 UNL     1      26.486  -1.537  52.766  1.00  0.00     0.044 C 
BRANCH  12  14
HETATM   14  O2  UNL     1      25.474  -1.354  54.891  1.00  0.00    -0.391 OA
HETATM   15  H21 UNL     1      26.105  -1.637  55.597  1.00  0.00     0.210 HD
ENDBRANCH  12  14
ENDBRANCH   9  12
ENDBRANCH   1   5
BRANCH   2  16
HETATM   16  C6  UNL     1      22.854   5.220  50.096  1.00  0.00     0.225 C 
BRANCH  16  17
HETATM   17  N2  UNL     1      23.932   6.084  49.697  1.00  0.00    -0.375 N 
HETATM   18  C7  UNL     1      24.764   6.722  50.673  1.00  0.00     0.116 A 
HETATM   19  C8  UNL     1      25.701   7.478  50.132  1.00  0.00     0.055 A 
HETATM   20  N3  UNL     1      26.769   8.316  50.516  1.00  0.00    -0.364 N 
HETATM   21  C12 UNL     1      25.504   7.352  48.673  1.00  0.00    -0.012 A 
HETATM   22  C9  UNL     1      27.611   9.003  49.611  1.00  0.00     0.088 A 
HETATM   23  H9  UNL     1      26.932   8.424  51.544  1.00  0.00     0.165 HD
HETATM   24  C10 UNL     1      27.384   8.851  48.306  1.00  0.00     0.018 A 
HETATM   25  C11 UNL     1      26.298   7.999  47.848  1.00  0.00     0.012 A 
HETATM   26  C13 UNL     1      24.358   6.449  48.357  1.00  0.00     0.163 A 
ENDBRANCH  16  17
ENDBRANCH   2  16
TORSDOF 5
ENDMDL
MODEL 6
REMARK VINA RESULT:      -7.2      4.205      5.285
REMARK  5 active torsions:
REMARK  status: ('A' for Active; 'I' for Inactive)
REMARK    1  A    between atoms: C4_4  and  N1_5 
REMARK       I    between atoms: N1_5  and  C5_6 
REMARK    2  A    between atoms: C5_6  and  C6_8 
REMARK    3  A    between atoms: C6_8  and  N2_9 
REMARK    4  A    between atoms: C16_20  and  C17_21 
REMARK    5  A    between atoms: C17_21  and  O2_23 
ROOT
HETATM    1  N1  UNL     1      22.911   1.750  52.850  1.00  0.00    -0.326 N 
HETATM    2  C5  UNL     1      22.680   2.008  51.474  1.00  0.00     0.239 C 
HETATM    3  O1  UNL     1      23.703   2.008  50.730  1.00  0.00    -0.271 OA
HETATM    4  H5  UNL     1      22.027   1.757  53.441  1.00  0.00     0.169 HD
ENDROOT
BRANCH   1   5
HETATM    5  C4  UNL     1      24.314   1.551  53.023  1.00  0.00     0.035 A 
HETATM    6  C3  UNL     1      24.742   0.281  52.695  1.00  0.00     0.037 A 
HETATM    7  C2  UNL     1      26.079  -0.071  52.808  1.00  0.00    -0.051 A 
HETATM    8  C1  UNL     1      26.557  -1.434  52.459  1.00  0.00     0.049 C 
HETATM    9  C16 UNL     1      26.958   0.893  53.258  1.00  0.00    -0.024 A 
HETATM   10  C15 UNL     1      26.521   2.161  53.584  1.00  0.00     0.012 A 
HETATM   11  C14 UNL     1      25.198   2.533  53.479  1.00  0.00     0.030 A 
BRANCH   9  12
HETATM   12  C17 UNL     1      28.407   0.622  53.414  1.00  0.00     0.147 C 
HETATM   13  C18 UNL     1      28.797   0.172  54.791  1.00  0.00     0.044 C 
BRANCH  12  14
HETATM   14  O2  UNL     1      29.179   1.729  53.059  1.00  0.00    -0.391 OA
HETATM   15  H21 UNL     1      28.633   2.433  52.634  1.00  0.00     0.210 HD
ENDBRANCH  12  14
ENDBRANCH   9  12
ENDBRANCH   1   5
BRANCH   2  16
HETATM   16  C6  UNL     1      21.369   2.280  50.796  1.00  0.00     0.225 C 
BRANCH  16  17
HETATM   17  N2  UNL     1      20.346   1.373  51.239  1.00  0.00    -0.375 N 
HETATM   18  C7  UNL     1      20.525   0.580  52.419  1.00  0.00     0.116 A 
HETATM   19  C8  UNL     1      19.489  -0.195  52.679  1.00  0.00     0.055 A 
HETATM   20  N3  UNL     1      19.064  -1.149  53.627  1.00  0.00    -0.364 N 
HETATM   21  C12 UNL     1      18.519   0.084  51.600  1.00  0.00    -0.012 A 
HETATM   22  C9  UNL     1      17.816  -1.814  53.586  1.00  0.00     0.088 A 
HETATM   23  H9  UNL     1      19.731  -1.367  54.402  1.00  0.00     0.165 HD
HETATM   24  C10 UNL     1      16.983  -1.521  52.588  1.00  0.00     0.018 A 
HETATM   25  C11 UNL     1      17.364  -0.545  51.581  1.00  0.00     0.012 A 
HETATM   26  C13 UNL     1      19.048   1.102  50.646  1.00  0.00     0.163 A 
ENDBRANCH  16  17
ENDBRANCH   2  16
TORSDOF 5
ENDMDL
MODEL 7
REMARK VINA RESULT:      -7.2      3.826      4.718
REMARK  5 active torsions:
REMARK  status: ('A' for Active; 'I' for Inactive)
REMARK    1  A    between atoms: C4_4  and  N1_5 
REMARK       I    between atoms: N1_5  and  C5_6 
REMARK    2  A    between atoms: C5_6  and  C6_8 
REMARK    3  A    between atoms: C6_8  and  N2_9 
REMARK    4  A    between atoms: C16_20  and  C17_21 
REMARK    5  A    between atoms: C17_21  and  O2_23 
ROOT
HETATM    1  N1  UNL     1      25.101   2.845  50.294  1.00  0.00    -0.326 N 
HETATM    2  C5  UNL     1      24.640   3.043  51.622  1.00  0.00     0.239 C 
HETATM    3  O1  UNL     1      24.249   4.212  51.904  1.00  0.00    -0.271 OA
HETATM    4  H5  UNL     1      25.421   1.850  50.096  1.00  0.00     0.169 HD
ENDROOT
BRANCH   1   5
HETATM    5  C4  UNL     1      24.988   4.092  49.607  1.00  0.00     0.035 A 
HETATM    6  C3  UNL     1      23.756   4.296  49.021  1.00  0.00     0.037 A 
HETATM    7  C2  UNL     1      23.487   5.460  48.316  1.00  0.00    -0.051 A 
HETATM    8  C1  UNL     1      22.165   5.697  47.679  1.00  0.00     0.049 C 
HETATM    9  C16 UNL     1      24.494   6.400  48.226  1.00  0.00    -0.024 A 
HETATM   10  C15 UNL     1      25.724   6.187  48.816  1.00  0.00     0.012 A 
HETATM   11  C14 UNL     1      26.013   5.038  49.521  1.00  0.00     0.030 A 
BRANCH   9  12
HETATM   12  C17 UNL     1      24.311   7.677  47.497  1.00  0.00     0.147 C 
HETATM   13  C18 UNL     1      25.511   8.104  46.705  1.00  0.00     0.044 C 
BRANCH  12  14
HETATM   14  O2  UNL     1      23.940   8.712  48.358  1.00  0.00    -0.391 OA
HETATM   15  H21 UNL     1      22.968   8.705  48.538  1.00  0.00     0.210 HD
ENDBRANCH  12  14
ENDBRANCH   9  12
ENDBRANCH   1   5
BRANCH   2  16
HETATM   16  C6  UNL     1      24.562   2.034  52.729  1.00  0.00     0.225 C 
BRANCH  16  17
HETATM   17  N2  UNL     1      25.823   1.372  52.933  1.00  0.00    -0.375 N 
HETATM   18  C7  UNL     1      25.930  -0.053  52.838  1.00  0.00     0.116 A 
HETATM   19  C8  UNL     1      27.157  -0.490  53.053  1.00  0.00     0.055 A 
HETATM   20  N3  UNL     1      27.880  -1.700  53.102  1.00  0.00    -0.364 N 
HETATM   21  C12 UNL     1      27.959   0.724  53.314  1.00  0.00    -0.012 A 
HETATM   22  C9  UNL     1      29.265  -1.793  53.376  1.00  0.00     0.088 A 
HETATM   23  H9  UNL     1      27.337  -2.576  52.921  1.00  0.00     0.165 HD
HETATM   24  C10 UNL     1      29.935  -0.663  53.604  1.00  0.00     0.018 A 
HETATM   25  C11 UNL     1      29.244   0.615  53.567  1.00  0.00     0.012 A 
HETATM   26  C13 UNL     1      27.117   1.954  53.242  1.00  0.00     0.163 A 
ENDBRANCH  16  17
ENDBRANCH   2  16
TORSDOF 5
ENDMDL
MODEL 8
REMARK VINA RESULT:      -7.2      2.958      8.036
REMARK  5 active torsions:
REMARK  status: ('A' for Active; 'I' for Inactive)
REMARK    1  A    between atoms: C4_4  and  N1_5 
REMARK       I    between atoms: N1_5  and  C5_6 
REMARK    2  A    between atoms: C5_6  and  C6_8 
REMARK    3  A    between atoms: C6_8  and  N2_9 
REMARK    4  A    between atoms: C16_20  and  C17_21 
REMARK    5  A    between atoms: C17_21  and  O2_23 
ROOT
HETATM    1  N1  UNL     1      23.807   3.115  50.388  1.00  0.00    -0.326 N 
HETATM    2  C5  UNL     1      23.584   4.320  51.104  1.00  0.00     0.239 C 
HETATM    3  O1  UNL     1      23.904   4.306  52.327  1.00  0.00    -0.271 OA
HETATM    4  H5  UNL     1      23.526   3.168  49.364  1.00  0.00     0.169 HD
ENDROOT
BRANCH   1   5
HETATM    5  C4  UNL     1      24.361   2.167  51.301  1.00  0.00     0.035 A 
HETATM    6  C3  UNL     1      23.418   1.397  51.947  1.00  0.00     0.037 A 
HETATM    7  C2  UNL     1      23.796   0.428  52.866  1.00  0.00    -0.051 A 
HETATM    8  C1  UNL     1      22.793  -0.411  53.571  1.00  0.00     0.049 C 
HETATM    9  C16 UNL     1      25.146   0.269  53.106  1.00  0.00    -0.024 A 
HETATM   10  C15 UNL     1      26.084   1.044  52.454  1.00  0.00     0.012 A 
HETATM   11  C14 UNL     1      25.730   2.011  51.538  1.00  0.00     0.030 A 
BRANCH   9  12
HETATM   12  C17 UNL     1      25.658  -0.737  54.067  1.00  0.00     0.147 C 
HETATM   13  C18 UNL     1      26.317  -0.143  55.276  1.00  0.00     0.044 C 
BRANCH  12  14
HETATM   14  O2  UNL     1      26.541  -1.630  53.457  1.00  0.00    -0.391 OA
HETATM   15  H21 UNL     1      27.247  -1.928  54.081  1.00  0.00     0.210 HD
ENDBRANCH  12  14
ENDBRANCH   9  12
ENDBRANCH   1   5
BRANCH   2  16
HETATM   16  C6  UNL     1      23.016   5.608  50.583  1.00  0.00     0.225 C 
BRANCH  16  17
HETATM   17  N2  UNL     1      24.051   6.561  50.284  1.00  0.00    -0.375 N 
HETATM   18  C7  UNL     1      25.372   6.128  49.940  1.00  0.00     0.116 A 
HETATM   19  C8  UNL     1      26.193   7.132  49.697  1.00  0.00     0.055 A 
HETATM   20  N3  UNL     1      27.536   7.366  49.332  1.00  0.00    -0.364 N 
HETATM   21  C12 UNL     1      25.379   8.351  49.885  1.00  0.00    -0.012 A 
HETATM   22  C9  UNL     1      28.102   8.650  49.150  1.00  0.00     0.088 A 
HETATM   23  H9  UNL     1      28.136   6.522  49.193  1.00  0.00     0.165 HD
HETATM   24  C10 UNL     1      27.317   9.712  49.334  1.00  0.00     0.018 A 
HETATM   25  C11 UNL     1      25.924   9.534  49.710  1.00  0.00     0.012 A 
HETATM   26  C13 UNL     1      23.976   8.011  50.267  1.00  0.00     0.163 A 
ENDBRANCH  16  17
ENDBRANCH   2  16
TORSDOF 5
ENDMDL
MODEL 9
REMARK VINA RESULT:      -7.2      3.487      7.975
REMARK  5 active torsions:
REMARK  status: ('A' for Active; 'I' for Inactive)
REMARK    1  A    between atoms: C4_4  and  N1_5 
REMARK       I    between atoms: N1_5  and  C5_6 
REMARK    2  A    between atoms: C5_6  and  C6_8 
REMARK    3  A    between atoms: C6_8  and  N2_9 
REMARK    4  A    between atoms: C16_20  and  C17_21 
REMARK    5  A    between atoms: C17_21  and  O2_23 
ROOT
HETATM    1  N1  UNL     1      24.917   3.374  52.490  1.00  0.00    -0.326 N 
HETATM    2  C5  UNL     1      24.146   3.407  51.299  1.00  0.00     0.239 C 
HETATM    3  O1  UNL     1      24.180   2.363  50.587  1.00  0.00    -0.271 OA
HETATM    4  H5  UNL     1      24.861   4.269  53.060  1.00  0.00     0.169 HD
ENDROOT
BRANCH   1   5
HETATM    5  C4  UNL     1      25.554   2.098  52.556  1.00  0.00     0.035 A 
HETATM    6  C3  UNL     1      24.973   1.231  53.459  1.00  0.00     0.037 A 
HETATM    7  C2  UNL     1      25.475  -0.049  53.641  1.00  0.00    -0.051 A 
HETATM    8  C1  UNL     1      24.861  -0.996  54.608  1.00  0.00     0.049 C 
HETATM    9  C16 UNL     1      26.571  -0.419  52.887  1.00  0.00    -0.024 A 
HETATM   10  C15 UNL     1      27.146   0.455  51.987  1.00  0.00     0.012 A 
HETATM   11  C14 UNL     1      26.663   1.731  51.790  1.00  0.00     0.030 A 
BRANCH   9  12
HETATM   12  C17 UNL     1      27.185  -1.763  53.004  1.00  0.00     0.147 C 
HETATM   13  C18 UNL     1      28.683  -1.744  53.082  1.00  0.00     0.044 C 
BRANCH  12  14
HETATM   14  O2  UNL     1      26.793  -2.600  51.958  1.00  0.00    -0.391 OA
HETATM   15  H21 UNL     1      27.005  -2.206  51.077  1.00  0.00     0.210 HD
ENDBRANCH  12  14
ENDBRANCH   9  12
ENDBRANCH   1   5
BRANCH   2  16
HETATM   16  C6  UNL     1      23.296   4.531  50.784  1.00  0.00     0.225 C 
BRANCH  16  17
HETATM   17  N2  UNL     1      24.094   5.575  50.200  1.00  0.00    -0.375 N 
HETATM   18  C7  UNL     1      24.532   6.692  50.981  1.00  0.00     0.116 A 
HETATM   19  C8  UNL     1      25.254   7.552  50.287  1.00  0.00     0.055 A 
HETATM   20  N3  UNL     1      25.937   8.775  50.457  1.00  0.00    -0.364 N 
HETATM   21  C12 UNL     1      25.322   6.987  48.924  1.00  0.00    -0.012 A 
HETATM   22  C9  UNL     1      26.643   9.444  49.431  1.00  0.00     0.088 A 
HETATM   23  H9  UNL     1      25.905   9.198  51.413  1.00  0.00     0.165 HD
HETATM   24  C10 UNL     1      26.669   8.885  48.221  1.00  0.00     0.018 A 
HETATM   25  C11 UNL     1      25.984   7.625  47.984  1.00  0.00     0.012 A 
HETATM   26  C13 UNL     1      24.576   5.697  48.835  1.00  0.00     0.163 A 
ENDBRANCH  16  17
ENDBRANCH   2  16
TORSDOF 5
ENDMDL
