MODEL 1
REMARK VINA RESULT:      -8.3      0.000      0.000
REMARK  4 active torsions:
REMARK  status: ('A' for Active; 'I' for Inactive)
REMARK    1  A    between atoms: C7_9  and  N1_10 
REMARK    2  A    between atoms: N1_10  and  C8_11 
REMARK    3  A    between atoms: C8_11  and  C9_12 
REMARK    4  A    between atoms: C10_14  and  C11_15 
ROOT
HETATM    1  O1  UNL     1      22.752  -1.988  55.706  1.00  0.00    -0.274 OA
HETATM    2  C1  UNL     1      22.932  -1.184  54.762  1.00  0.00     0.234 C 
HETATM    3  C2  UNL     1      21.894  -0.813  53.817  1.00  0.00     0.069 C 
HETATM    4  C3  UNL     1      21.947  -0.006  52.788  1.00  0.00     0.008 C 
HETATM    5  C4  UNL     1      21.936   0.867  51.646  1.00  0.00     0.042 C 
HETATM    6  C5  UNL     1      22.817   1.640  51.037  1.00  0.00     0.118 C 
HETATM    7  F1  UNL     1      22.227   2.269  49.945  1.00  0.00    -0.206 F 
HETATM    8  C6  UNL     1      24.226   2.109  51.107  1.00  0.00     0.067 C 
HETATM    9  C7  UNL     1      25.404   2.090  51.731  1.00  0.00     0.012 C 
HETATM   10  C12 UNL     1      26.194   1.592  52.851  1.00  0.00     0.040 A 
HETATM   11  C13 UNL     1      27.186   0.488  52.477  1.00  0.00     0.016 A 
HETATM   12  C14 UNL     1      25.963   0.203  53.302  1.00  0.00    -0.004 A 
HETATM   13  C15 UNL     1      26.314   0.094  54.796  1.00  0.00     0.006 C 
HETATM   14  O2  UNL     1      25.495  -0.827  55.457  1.00  0.00     0.000 OA
HETATM   15  N2  UNL     1      24.288  -0.789  54.875  1.00  0.00    -0.185 NA
HETATM   16  H17 UNL     1      24.861  -1.227  55.668  1.00  0.00     0.150 HD
ENDROOT
BRANCH   9  17
HETATM   17  N1  UNL     1      26.505   2.878  51.200  1.00  0.00    -0.388 N 
HETATM   18  H5  UNL     1      27.298   3.361  51.716  1.00  0.00     0.159 HD
BRANCH  17  19
HETATM   19  C8  UNL     1      26.502   3.013  49.737  1.00  0.00     0.170 C 
BRANCH  19  20
HETATM   20  C9  UNL     1      26.715   4.446  49.329  1.00  0.00     0.026 C 
HETATM   21 CL1  UNL     1      25.496   5.559  49.932  1.00  0.00    -0.087 Cl
HETATM   22  C10 UNL     1      27.647   5.048  48.598  1.00  0.00     0.004 C 
BRANCH  22  23
HETATM   23  C11 UNL     1      27.758   6.485  48.257  1.00  0.00     0.108 C 
HETATM   24  I1  UNL     1      29.791   6.938  47.819  1.00  0.00    -0.086 I 
ENDBRANCH  22  23
ENDBRANCH  19  20
ENDBRANCH  17  19
ENDBRANCH   9  17
TORSDOF 4
ENDMDL
MODEL 2
REMARK VINA RESULT:      -7.9      3.814      4.777
REMARK  4 active torsions:
REMARK  status: ('A' for Active; 'I' for Inactive)
REMARK    1  A    between atoms: C7_9  and  N1_10 
REMARK    2  A    between atoms: N1_10  and  C8_11 
REMARK    3  A    between atoms: C8_11  and  C9_12 
REMARK    4  A    between atoms: C10_14  and  C11_15 
ROOT
HETATM    1  O1  UNL     1      17.965  -1.338  53.699  1.00  0.00    -0.274 OA
HETATM    2  C1  UNL     1      18.867  -0.750  53.056  1.00  0.00     0.234 C 
HETATM    3  C2  UNL     1      18.643  -0.091  51.783  1.00  0.00     0.069 C 
HETATM    4  C3  UNL     1      19.487   0.541  51.007  1.00  0.00     0.008 C 
HETATM    5  C4  UNL     1      20.359   1.250  50.110  1.00  0.00     0.042 C 
HETATM    6  C5  UNL     1      21.641   1.567  50.090  1.00  0.00     0.118 C 
HETATM    7  F1  UNL     1      21.940   2.278  48.932  1.00  0.00    -0.206 F 
HETATM    8  C6  UNL     1      22.897   1.460  50.878  1.00  0.00     0.067 C 
HETATM    9  C7  UNL     1      23.520   1.042  51.981  1.00  0.00     0.012 C 
HETATM   10  C12 UNL     1      23.414   0.376  53.274  1.00  0.00     0.040 A 
HETATM   11  C13 UNL     1      23.963  -1.053  53.290  1.00  0.00     0.016 A 
HETATM   12  C14 UNL     1      22.490  -0.772  53.392  1.00  0.00    -0.004 A 
HETATM   13  C15 UNL     1      22.005  -0.879  54.848  1.00  0.00     0.006 C 
HETATM   14  O2  UNL     1      20.691  -1.351  54.925  1.00  0.00     0.000 OA
HETATM   15  N2  UNL     1      20.033  -0.901  53.848  1.00  0.00    -0.185 NA
HETATM   16  H17 UNL     1      19.937  -1.457  54.760  1.00  0.00     0.150 HD
ENDROOT
BRANCH   9  17
HETATM   17  N1  UNL     1      24.943   1.295  52.135  1.00  0.00    -0.388 N 
HETATM   18  H5  UNL     1      25.743   1.068  51.474  1.00  0.00     0.159 HD
BRANCH  17  19
HETATM   19  C8  UNL     1      25.307   1.961  53.393  1.00  0.00     0.170 C 
BRANCH  19  20
HETATM   20  C9  UNL     1      26.671   1.527  53.856  1.00  0.00     0.026 C 
HETATM   21 CL1  UNL     1      27.991   2.522  53.260  1.00  0.00    -0.087 Cl
HETATM   22  C10 UNL     1      27.086   0.531  54.633  1.00  0.00     0.004 C 
BRANCH  22  23
HETATM   23  C11 UNL     1      28.473   0.194  55.028  1.00  0.00     0.108 C 
HETATM   24  I1  UNL     1      29.338  -1.044  53.527  1.00  0.00    -0.086 I 
ENDBRANCH  22  23
ENDBRANCH  19  20
ENDBRANCH  17  19
ENDBRANCH   9  17
TORSDOF 4
ENDMDL
MODEL 3
REMARK VINA RESULT:      -7.6      2.695      3.608
REMARK  4 active torsions:
REMARK  status: ('A' for Active; 'I' for Inactive)
REMARK    1  A    between atoms: C7_9  and  N1_10 
REMARK    2  A    between atoms: N1_10  and  C8_11 
REMARK    3  A    between atoms: C8_11  and  C9_12 
REMARK    4  A    between atoms: C10_14  and  C11_15 
ROOT
HETATM    1  O1  UNL     1      20.461  -0.269  53.971  1.00  0.00    -0.274 OA
HETATM    2  C1  UNL     1      21.599   0.071  53.569  1.00  0.00     0.234 C 
HETATM    3  C2  UNL     1      22.776  -0.769  53.697  1.00  0.00     0.069 C 
HETATM    4  C3  UNL     1      24.014  -0.536  53.338  1.00  0.00     0.008 C 
HETATM    5  C4  UNL     1      25.389  -0.347  52.968  1.00  0.00     0.042 C 
HETATM    6  C5  UNL     1      26.091   0.613  52.393  1.00  0.00     0.118 C 
HETATM    7  F1  UNL     1      27.426   0.234  52.291  1.00  0.00    -0.206 F 
HETATM    8  C6  UNL     1      25.969   1.964  51.784  1.00  0.00     0.067 C 
HETATM    9  C7  UNL     1      25.195   2.993  51.438  1.00  0.00     0.012 C 
HETATM   10  C12 UNL     1      23.852   3.557  51.388  1.00  0.00     0.040 A 
HETATM   11  C13 UNL     1      23.587   4.640  52.437  1.00  0.00     0.016 A 
HETATM   12  C14 UNL     1      22.940   3.286  52.519  1.00  0.00    -0.004 A 
HETATM   13  C15 UNL     1      21.486   3.334  52.017  1.00  0.00     0.006 C 
HETATM   14  O2  UNL     1      20.669   2.430  52.702  1.00  0.00     0.000 OA
HETATM   15  N2  UNL     1      21.418   1.363  53.017  1.00  0.00    -0.185 NA
HETATM   16  H17 UNL     1      20.431   1.780  53.059  1.00  0.00     0.150 HD
ENDROOT
BRANCH   9  17
HETATM   17  N1  UNL     1      25.794   4.151  50.796  1.00  0.00    -0.388 N 
HETATM   18  H5  UNL     1      25.770   5.172  51.090  1.00  0.00     0.159 HD
BRANCH  17  19
HETATM   19  C8  UNL     1      26.537   3.846  49.565  1.00  0.00     0.170 C 
BRANCH  19  20
HETATM   20  C9  UNL     1      27.006   5.109  48.894  1.00  0.00     0.026 C 
HETATM   21 CL1  UNL     1      28.644   5.028  48.262  1.00  0.00    -0.087 Cl
HETATM   22  C10 UNL     1      26.427   6.285  48.678  1.00  0.00     0.004 C 
BRANCH  22  23
HETATM   23  C11 UNL     1      26.991   7.473  47.996  1.00  0.00     0.108 C 
HETATM   24  I1  UNL     1      27.287   9.019  49.429  1.00  0.00    -0.086 I 
ENDBRANCH  22  23
ENDBRANCH  19  20
ENDBRANCH  17  19
ENDBRANCH   9  17
TORSDOF 4
ENDMDL
MODEL 4
REMARK VINA RESULT:      -7.6      4.780      7.516
REMARK  4 active torsions:
REMARK  status: ('A' for Active; 'I' for Inactive)
REMARK    1  A    between atoms: C7_9  and  N1_10 
REMARK    2  A    between atoms: N1_10  and  C8_11 
REMARK    3  A    between atoms: C8_11  and  C9_12 
REMARK    4  A    between atoms: C10_14  and  C11_15 
ROOT
HETATM    1  O1  UNL     1      28.042   8.877  49.374  1.00  0.00    -0.274 OA
HETATM    2  C1  UNL     1      27.001   8.219  49.610  1.00  0.00     0.234 C 
HETATM    3  C2  UNL     1      25.779   8.810  50.124  1.00  0.00     0.069 C 
HETATM    4  C3  UNL     1      24.637   8.245  50.424  1.00  0.00     0.008 C 
HETATM    5  C4  UNL     1      23.358   7.690  50.772  1.00  0.00     0.042 C 
HETATM    6  C5  UNL     1      22.814   6.486  50.761  1.00  0.00     0.118 C 
HETATM    7  F1  UNL     1      21.504   6.549  51.226  1.00  0.00    -0.206 F 
HETATM    8  C6  UNL     1      23.088   5.069  50.406  1.00  0.00     0.067 C 
HETATM    9  C7  UNL     1      23.932   4.157  49.922  1.00  0.00     0.012 C 
HETATM   10  C12 UNL     1      25.245   3.878  49.352  1.00  0.00     0.040 A 
HETATM   11  C13 UNL     1      26.224   3.219  50.327  1.00  0.00     0.016 A 
HETATM   12  C14 UNL     1      26.403   4.639  49.868  1.00  0.00    -0.004 A 
HETATM   13  C15 UNL     1      27.473   4.735  48.766  1.00  0.00     0.006 C 
HETATM   14  O2  UNL     1      28.177   5.941  48.828  1.00  0.00     0.000 OA
HETATM   15  N2  UNL     1      27.331   6.884  49.267  1.00  0.00    -0.185 NA
HETATM   16  H17 UNL     1      28.327   6.700  48.917  1.00  0.00     0.150 HD
ENDROOT
BRANCH   9  17
HETATM   17  N1  UNL     1      23.511   2.768  49.839  1.00  0.00    -0.388 N 
HETATM   18  H5  UNL     1      23.739   2.038  49.102  1.00  0.00     0.159 HD
BRANCH  17  19
HETATM   19  C8  UNL     1      22.644   2.331  50.943  1.00  0.00     0.170 C 
BRANCH  19  20
HETATM   20  C9  UNL     1      23.458   1.745  52.065  1.00  0.00     0.026 C 
HETATM   21 CL1  UNL     1      24.125   2.933  53.173  1.00  0.00    -0.087 Cl
HETATM   22  C10 UNL     1      23.777   0.497  52.392  1.00  0.00     0.004 C 
BRANCH  22  23
HETATM   23  C11 UNL     1      24.595   0.030  53.535  1.00  0.00     0.108 C 
HETATM   24  I1  UNL     1      26.581  -0.339  52.862  1.00  0.00    -0.086 I 
ENDBRANCH  22  23
ENDBRANCH  19  20
ENDBRANCH  17  19
ENDBRANCH   9  17
TORSDOF 4
ENDMDL
MODEL 5
REMARK VINA RESULT:      -7.5      1.915      3.287
REMARK  4 active torsions:
REMARK  status: ('A' for Active; 'I' for Inactive)
REMARK    1  A    between atoms: C7_9  and  N1_10 
REMARK    2  A    between atoms: N1_10  and  C8_11 
REMARK    3  A    between atoms: C8_11  and  C9_12 
REMARK    4  A    between atoms: C10_14  and  C11_15 
ROOT
HETATM    1  O1  UNL     1      22.203  -1.739  55.338  1.00  0.00    -0.274 OA
HETATM    2  C1  UNL     1      23.098  -1.087  54.751  1.00  0.00     0.234 C 
HETATM    3  C2  UNL     1      24.505  -1.166  55.098  1.00  0.00     0.069 C 
HETATM    4  C3  UNL     1      25.532  -0.536  54.583  1.00  0.00     0.008 C 
HETATM    5  C4  UNL     1      26.701   0.118  54.064  1.00  0.00     0.042 C 
HETATM    6  C5  UNL     1      26.948   1.002  53.115  1.00  0.00     0.118 C 
HETATM    7  F1  UNL     1      28.310   1.281  53.062  1.00  0.00    -0.206 F 
HETATM    8  C6  UNL     1      26.293   1.805  52.048  1.00  0.00     0.067 C 
HETATM    9  C7  UNL     1      25.179   2.143  51.396  1.00  0.00     0.012 C 
HETATM   10  C12 UNL     1      23.742   1.953  51.239  1.00  0.00     0.040 A 
HETATM   11  C13 UNL     1      22.893   3.090  51.814  1.00  0.00     0.016 A 
HETATM   12  C14 UNL     1      22.932   1.732  52.455  1.00  0.00    -0.004 A 
HETATM   13  C15 UNL     1      21.686   0.908  52.086  1.00  0.00     0.006 C 
HETATM   14  O2  UNL     1      21.300   0.055  53.125  1.00  0.00     0.000 OA
HETATM   15  N2  UNL     1      22.411  -0.337  53.764  1.00  0.00    -0.185 NA
HETATM   16  H17 UNL     1      21.345  -0.446  53.720  1.00  0.00     0.150 HD
ENDROOT
BRANCH   9  17
HETATM   17  N1  UNL     1      25.252   3.115  50.318  1.00  0.00    -0.388 N 
HETATM   18  H5  UNL     1      24.518   3.806  49.984  1.00  0.00     0.159 HD
BRANCH  17  19
HETATM   19  C8  UNL     1      26.533   3.126  49.598  1.00  0.00     0.170 C 
BRANCH  19  20
HETATM   20  C9  UNL     1      26.870   4.514  49.123  1.00  0.00     0.026 C 
HETATM   21 CL1  UNL     1      25.623   5.711  49.438  1.00  0.00    -0.087 Cl
HETATM   22  C10 UNL     1      27.932   5.024  48.506  1.00  0.00     0.004 C 
BRANCH  22  23
HETATM   23  C11 UNL     1      28.158   6.424  48.081  1.00  0.00     0.108 C 
HETATM   24  I1  UNL     1      30.254   6.787  47.980  1.00  0.00    -0.086 I 
ENDBRANCH  22  23
ENDBRANCH  19  20
ENDBRANCH  17  19
ENDBRANCH   9  17
TORSDOF 4
ENDMDL
MODEL 6
REMARK VINA RESULT:      -7.5      5.127      7.637
REMARK  4 active torsions:
REMARK  status: ('A' for Active; 'I' for Inactive)
REMARK    1  A    between atoms: C7_9  and  N1_10 
REMARK    2  A    between atoms: N1_10  and  C8_11 
REMARK    3  A    between atoms: C8_11  and  C9_12 
REMARK    4  A    between atoms: C10_14  and  C11_15 
ROOT
HETATM    1  O1  UNL     1      28.420   2.227  52.809  1.00  0.00    -0.274 OA
HETATM    2  C1  UNL     1      27.347   1.676  53.149  1.00  0.00     0.234 C 
HETATM    3  C2  UNL     1      27.274   0.585  54.104  1.00  0.00     0.069 C 
HETATM    4  C3  UNL     1      26.234  -0.084  54.534  1.00  0.00     0.008 C 
HETATM    5  C4  UNL     1      25.137  -0.856  55.049  1.00  0.00     0.042 C 
HETATM    6  C5  UNL     1      23.828  -0.878  54.870  1.00  0.00     0.118 C 
HETATM    7  F1  UNL     1      23.254  -1.873  55.655  1.00  0.00    -0.206 F 
HETATM    8  C6  UNL     1      22.724  -0.200  54.141  1.00  0.00     0.067 C 
HETATM    9  C7  UNL     1      22.332   0.754  53.296  1.00  0.00     0.012 C 
HETATM   10  C12 UNL     1      22.714   1.880  52.452  1.00  0.00     0.040 A 
HETATM   11  C13 UNL     1      22.733   1.563  50.955  1.00  0.00     0.016 A 
HETATM   12  C14 UNL     1      23.999   1.803  51.727  1.00  0.00    -0.004 A 
HETATM   13  C15 UNL     1      24.532   3.227  51.493  1.00  0.00     0.006 C 
HETATM   14  O2  UNL     1      25.928   3.273  51.531  1.00  0.00     0.000 OA
HETATM   15  N2  UNL     1      26.342   2.353  52.413  1.00  0.00    -0.185 NA
HETATM   16  H17 UNL     1      26.663   3.131  51.748  1.00  0.00     0.150 HD
ENDROOT
BRANCH   9  17
HETATM   17  N1  UNL     1      20.921   0.881  52.969  1.00  0.00    -0.388 N 
HETATM   18  H5  UNL     1      20.419   1.657  52.445  1.00  0.00     0.159 HD
BRANCH  17  19
HETATM   19  C8  UNL     1      20.087  -0.233  53.440  1.00  0.00     0.170 C 
BRANCH  19  20
HETATM   20  C9  UNL     1      18.861  -0.387  52.581  1.00  0.00     0.026 C 
HETATM   21 CL1  UNL     1      19.008   0.311  50.976  1.00  0.00    -0.087 Cl
HETATM   22  C10 UNL     1      17.676  -0.950  52.793  1.00  0.00     0.004 C 
BRANCH  22  23
HETATM   23  C11 UNL     1      16.527  -1.045  51.862  1.00  0.00     0.108 C 
HETATM   24  I1  UNL     1      15.179   0.554  52.261  1.00  0.00    -0.086 I 
ENDBRANCH  22  23
ENDBRANCH  19  20
ENDBRANCH  17  19
ENDBRANCH   9  17
TORSDOF 4
ENDMDL
MODEL 7
REMARK VINA RESULT:      -7.4      2.129      2.261
REMARK  4 active torsions:
REMARK  status: ('A' for Active; 'I' for Inactive)
REMARK    1  A    between atoms: C7_9  and  N1_10 
REMARK    2  A    between atoms: N1_10  and  C8_11 
REMARK    3  A    between atoms: C8_11  and  C9_12 
REMARK    4  A    between atoms: C10_14  and  C11_15 
ROOT
HETATM    1  O1  UNL     1      22.030  -2.017  55.187  1.00  0.00    -0.274 OA
HETATM    2  C1  UNL     1      22.016  -0.931  54.562  1.00  0.00     0.234 C 
HETATM    3  C2  UNL     1      20.796  -0.236  54.192  1.00  0.00     0.069 C 
HETATM    4  C3  UNL     1      20.638   0.885  53.534  1.00  0.00     0.008 C 
HETATM    5  C4  UNL     1      20.392   2.108  52.821  1.00  0.00     0.042 C 
HETATM    6  C5  UNL     1      21.137   3.038  52.251  1.00  0.00     0.118 C 
HETATM    7  F1  UNL     1      20.329   4.022  51.690  1.00  0.00    -0.206 F 
HETATM    8  C6  UNL     1      22.549   3.435  52.007  1.00  0.00     0.067 C 
HETATM    9  C7  UNL     1      23.849   3.182  52.166  1.00  0.00     0.012 C 
HETATM   10  C12 UNL     1      24.870   2.307  52.730  1.00  0.00     0.040 A 
HETATM   11  C13 UNL     1      25.554   1.399  51.704  1.00  0.00     0.016 A 
HETATM   12  C14 UNL     1      24.613   0.852  52.740  1.00  0.00    -0.004 A 
HETATM   13  C15 UNL     1      25.383   0.213  53.908  1.00  0.00     0.006 C 
HETATM   14  O2  UNL     1      24.693  -0.874  54.453  1.00  0.00     0.000 OA
HETATM   15  N2  UNL     1      23.381  -0.618  54.349  1.00  0.00    -0.185 NA
HETATM   16  H17 UNL     1      24.107  -1.316  54.715  1.00  0.00     0.150 HD
ENDROOT
BRANCH   9  17
HETATM   17  N1  UNL     1      24.827   4.095  51.598  1.00  0.00    -0.388 N 
HETATM   18  H5  UNL     1      25.831   4.276  51.895  1.00  0.00     0.159 HD
BRANCH  17  19
HETATM   19  C8  UNL     1      24.339   4.869  50.448  1.00  0.00     0.170 C 
BRANCH  19  20
HETATM   20  C9  UNL     1      25.340   5.915  50.040  1.00  0.00     0.026 C 
HETATM   21 CL1  UNL     1      26.547   5.355  48.893  1.00  0.00    -0.087 Cl
HETATM   22  C10 UNL     1      25.499   7.192  50.374  1.00  0.00     0.004 C 
BRANCH  22  23
HETATM   23  C11 UNL     1      26.534   8.140  49.903  1.00  0.00     0.108 C 
HETATM   24  I1  UNL     1      25.701   9.376  48.383  1.00  0.00    -0.086 I 
ENDBRANCH  22  23
ENDBRANCH  19  20
ENDBRANCH  17  19
ENDBRANCH   9  17
TORSDOF 4
ENDMDL
MODEL 8
REMARK VINA RESULT:      -7.3      4.840      7.111
REMARK  4 active torsions:
REMARK  status: ('A' for Active; 'I' for Inactive)
REMARK    1  A    between atoms: C7_9  and  N1_10 
REMARK    2  A    between atoms: N1_10  and  C8_11 
REMARK    3  A    between atoms: C8_11  and  C9_12 
REMARK    4  A    between atoms: C10_14  and  C11_15 
ROOT
HETATM    1  O1  UNL     1      27.476  -0.260  55.248  1.00  0.00    -0.274 OA
HETATM    2  C1  UNL     1      26.535   0.034  54.474  1.00  0.00     0.234 C 
HETATM    3  C2  UNL     1      26.683   0.923  53.336  1.00  0.00     0.069 C 
HETATM    4  C3  UNL     1      25.791   1.322  52.464  1.00  0.00     0.008 C 
HETATM    5  C4  UNL     1      24.865   1.798  51.473  1.00  0.00     0.042 C 
HETATM    6  C5  UNL     1      23.582   1.624  51.217  1.00  0.00     0.118 C 
HETATM    7  F1  UNL     1      23.213   2.362  50.096  1.00  0.00    -0.206 F 
HETATM    8  C6  UNL     1      22.372   0.896  51.682  1.00  0.00     0.067 C 
HETATM    9  C7  UNL     1      21.815   0.042  52.541  1.00  0.00     0.012 C 
HETATM   10  C12 UNL     1      21.997  -0.846  53.683  1.00  0.00     0.040 A 
HETATM   11  C13 UNL     1      21.463  -0.288  55.004  1.00  0.00     0.016 A 
HETATM   12  C14 UNL     1      22.936  -0.430  54.746  1.00  0.00    -0.004 A 
HETATM   13  C15 UNL     1      23.502  -1.683  55.437  1.00  0.00     0.006 C 
HETATM   14  O2  UNL     1      24.822  -1.494  55.857  1.00  0.00     0.000 OA
HETATM   15  N2  UNL     1      25.416  -0.675  54.978  1.00  0.00    -0.185 NA
HETATM   16  H17 UNL     1      25.567  -1.265  55.860  1.00  0.00     0.150 HD
ENDROOT
BRANCH   9  17
HETATM   17  N1  UNL     1      20.400  -0.270  52.420  1.00  0.00    -0.388 N 
HETATM   18  H5  UNL     1      19.794  -0.895  53.029  1.00  0.00     0.159 HD
BRANCH  17  19
HETATM   19  C8  UNL     1      19.730   0.382  51.287  1.00  0.00     0.170 C 
BRANCH  19  20
HETATM   20  C9  UNL     1      18.303  -0.079  51.169  1.00  0.00     0.026 C 
HETATM   21 CL1  UNL     1      17.756  -1.093  52.495  1.00  0.00    -0.087 Cl
HETATM   22  C10 UNL     1      17.360   0.128  50.254  1.00  0.00     0.004 C 
BRANCH  22  23
HETATM   23  C11 UNL     1      15.970  -0.383  50.240  1.00  0.00     0.108 C 
HETATM   24  I1  UNL     1      14.700   1.040  51.186  1.00  0.00    -0.086 I 
ENDBRANCH  22  23
ENDBRANCH  19  20
ENDBRANCH  17  19
ENDBRANCH   9  17
TORSDOF 4
ENDMDL
MODEL 9
REMARK VINA RESULT:      -7.3      4.716      6.127
REMARK  4 active torsions:
REMARK  status: ('A' for Active; 'I' for Inactive)
REMARK    1  A    between atoms: C7_9  and  N1_10 
REMARK    2  A    between atoms: N1_10  and  C8_11 
REMARK    3  A    between atoms: C8_11  and  C9_12 
REMARK    4  A    between atoms: C10_14  and  C11_15 
ROOT
HETATM    1  O1  UNL     1      17.006   0.442  50.159  1.00  0.00    -0.274 OA
HETATM    2  C1  UNL     1      18.079   0.392  50.806  1.00  0.00     0.234 C 
HETATM    3  C2  UNL     1      18.188  -0.191  52.131  1.00  0.00     0.069 C 
HETATM    4  C3  UNL     1      19.231  -0.296  52.916  1.00  0.00     0.008 C 
HETATM    5  C4  UNL     1      20.333  -0.446  53.827  1.00  0.00     0.042 C 
HETATM    6  C5  UNL     1      21.616  -0.131  53.819  1.00  0.00     0.118 C 
HETATM    7  F1  UNL     1      22.212  -0.527  55.012  1.00  0.00    -0.206 F 
HETATM    8  C6  UNL     1      22.677   0.481  52.978  1.00  0.00     0.067 C 
HETATM    9  C7  UNL     1      23.034   1.048  51.824  1.00  0.00     0.012 C 
HETATM   10  C12 UNL     1      22.629   1.483  50.493  1.00  0.00     0.040 A 
HETATM   11  C13 UNL     1      22.452   2.997  50.354  1.00  0.00     0.016 A 
HETATM   12  C14 UNL     1      21.278   2.060  50.329  1.00  0.00    -0.004 A 
HETATM   13  C15 UNL     1      20.796   1.812  48.889  1.00  0.00     0.006 C 
HETATM   14  O2  UNL     1      19.413   1.616  48.830  1.00  0.00     0.000 OA
HETATM   15  N2  UNL     1      19.040   1.000  49.961  1.00  0.00    -0.185 NA
HETATM   16  H17 UNL     1      18.696   1.373  49.017  1.00  0.00     0.150 HD
ENDROOT
BRANCH   9  17
HETATM   17  N1  UNL     1      24.411   1.471  51.633  1.00  0.00    -0.388 N 
HETATM   18  H5  UNL     1      24.945   1.636  50.730  1.00  0.00     0.159 HD
BRANCH  17  19
HETATM   19  C8  UNL     1      25.155   1.695  52.880  1.00  0.00     0.170 C 
BRANCH  19  20
HETATM   20  C9  UNL     1      26.036   0.518  53.201  1.00  0.00     0.026 C 
HETATM   21 CL1  UNL     1      25.927  -0.037  54.864  1.00  0.00    -0.087 Cl
HETATM   22  C10 UNL     1      26.889  -0.195  52.473  1.00  0.00     0.004 C 
BRANCH  22  23
HETATM   23  C11 UNL     1      27.714  -1.350  52.898  1.00  0.00     0.108 C 
HETATM   24  I1  UNL     1      29.567  -0.633  53.662  1.00  0.00    -0.086 I 
ENDBRANCH  22  23
ENDBRANCH  19  20
ENDBRANCH  17  19
ENDBRANCH   9  17
TORSDOF 4
ENDMDL
