MODEL 1
REMARK VINA RESULT:      -7.9      0.000      0.000
REMARK  1 active torsions:
REMARK  status: ('A' for Active; 'I' for Inactive)
REMARK    1  A    between atoms: C2_2  and  N1_4 
ROOT
HETATM    1  N1  UNL     1      24.601   2.339  51.677  1.00  0.00    -0.340 N 
HETATM    2  C4  UNL     1      24.225   3.321  50.760  1.00  0.00     0.051 C 
HETATM    3  C5  UNL     1      22.995   3.385  50.347  1.00  0.00     0.048 C 
HETATM    4  C6  UNL     1      22.322   4.273  49.444  1.00  0.00     0.163 C 
HETATM    5  O1  UNL     1      21.313   4.007  48.766  1.00  0.00    -0.292 OA
HETATM    6  C7  UNL     1      22.928   5.631  49.347  1.00  0.00     0.088 C 
HETATM    7  C8  UNL     1      24.285   5.406  48.662  1.00  0.00     0.045 C 
HETATM    8  P1  UNL     1      25.312   4.627  50.004  1.00  0.00    -0.075 P 
HETATM    9  P2  UNL     1      22.185   1.849  50.952  1.00  0.00     0.008 P 
HETATM   10  C9  UNL     1      23.496   1.547  52.034  1.00  0.00     0.055 C 
HETATM   11  C10 UNL     1      22.869   0.599  52.949  1.00  0.00     0.006 A 
HETATM   12  C11 UNL     1      23.421  -0.488  53.593  1.00  0.00     0.015 A 
HETATM   13  C12 UNL     1      22.632  -1.234  54.478  1.00  0.00     0.001 A 
HETATM   14  C13 UNL     1      21.294  -0.917  54.738  1.00  0.00     0.001 A 
HETATM   15  C14 UNL     1      20.791   0.195  54.055  1.00  0.00     0.016 A 
HETATM   16  C15 UNL     1      21.552   0.979  53.150  1.00  0.00     0.027 A 
HETATM   17  C16 UNL     1      21.101   2.180  52.374  1.00  0.00     0.188 C 
HETATM   18  O2  UNL     1      20.237   2.966  52.838  1.00  0.00    -0.287 OA
HETATM   19  H12 UNL     1      25.406   5.656  51.051  1.00  0.00     0.064 HD
HETATM   20  H13 UNL     1      21.924   0.973  50.164  1.00  0.00     0.072 HD
ENDROOT
BRANCH   1  21
HETATM   21  C2  UNL     1      25.922   2.111  52.226  1.00  0.00     0.082 C 
HETATM   22  C1  UNL     1      25.914   2.259  53.741  1.00  0.00     0.032 C 
HETATM   23  C3  UNL     1      26.438   0.729  51.811  1.00  0.00     0.032 C 
ENDBRANCH   1  21
TORSDOF 1
ENDMDL
MODEL 2
REMARK VINA RESULT:      -7.6      3.056      5.715
REMARK  1 active torsions:
REMARK  status: ('A' for Active; 'I' for Inactive)
REMARK    1  A    between atoms: C2_2  and  N1_4 
ROOT
HETATM    1  N1  UNL     1      23.721   1.862  52.814  1.00  0.00    -0.340 N 
HETATM    2  C4  UNL     1      22.624   1.031  53.045  1.00  0.00     0.051 C 
HETATM    3  C5  UNL     1      22.811  -0.191  53.446  1.00  0.00     0.048 C 
HETATM    4  C6  UNL     1      21.902  -1.251  53.776  1.00  0.00     0.163 C 
HETATM    5  O1  UNL     1      22.137  -2.471  53.702  1.00  0.00    -0.292 OA
HETATM    6  C7  UNL     1      20.564  -0.793  54.247  1.00  0.00     0.088 C 
HETATM    7  C8  UNL     1      19.913  -0.151  53.014  1.00  0.00     0.045 C 
HETATM    8  P1  UNL     1      20.826   1.460  52.842  1.00  0.00    -0.075 P 
HETATM    9  P2  UNL     1      24.614  -0.503  53.277  1.00  0.00     0.008 P 
HETATM   10  C9  UNL     1      24.921   1.187  53.098  1.00  0.00     0.055 C 
HETATM   11  C10 UNL     1      26.350   1.228  53.389  1.00  0.00     0.006 A 
HETATM   12  C11 UNL     1      27.330   2.027  52.838  1.00  0.00     0.015 A 
HETATM   13  C12 UNL     1      28.643   1.928  53.315  1.00  0.00     0.001 A 
HETATM   14  C13 UNL     1      29.004   1.042  54.337  1.00  0.00     0.001 A 
HETATM   15  C14 UNL     1      27.967   0.259  54.854  1.00  0.00     0.016 A 
HETATM   16  C15 UNL     1      26.624   0.324  54.402  1.00  0.00     0.027 A 
HETATM   17  C16 UNL     1      25.452  -0.473  54.891  1.00  0.00     0.188 C 
HETATM   18  O2  UNL     1      25.375  -0.846  56.089  1.00  0.00    -0.287 OA
HETATM   19  H12 UNL     1      20.503   2.208  54.067  1.00  0.00     0.064 HD
HETATM   20  H13 UNL     1      25.007  -1.218  52.388  1.00  0.00     0.072 HD
ENDROOT
BRANCH   1  21
HETATM   21  C2  UNL     1      23.699   3.234  52.351  1.00  0.00     0.082 C 
HETATM   22  C1  UNL     1      24.173   4.184  53.440  1.00  0.00     0.032 C 
HETATM   23  C3  UNL     1      24.551   3.379  51.085  1.00  0.00     0.032 C 
ENDBRANCH   1  21
TORSDOF 1
ENDMDL
MODEL 3
REMARK VINA RESULT:      -7.2      2.329      4.085
REMARK  1 active torsions:
REMARK  status: ('A' for Active; 'I' for Inactive)
REMARK    1  A    between atoms: C2_2  and  N1_4 
ROOT
HETATM    1  N1  UNL     1      22.101   2.439  51.773  1.00  0.00    -0.340 N 
HETATM    2  C4  UNL     1      22.048   3.753  51.306  1.00  0.00     0.051 C 
HETATM    3  C5  UNL     1      23.124   4.482  51.297  1.00  0.00     0.048 C 
HETATM    4  C6  UNL     1      23.378   5.827  50.870  1.00  0.00     0.163 C 
HETATM    5  O1  UNL     1      24.270   6.580  51.301  1.00  0.00    -0.292 OA
HETATM    6  C7  UNL     1      22.458   6.322  49.806  1.00  0.00     0.088 C 
HETATM    7  C8  UNL     1      21.089   6.431  50.492  1.00  0.00     0.045 C 
HETATM    8  P1  UNL     1      20.556   4.656  50.659  1.00  0.00    -0.075 P 
HETATM    9  P2  UNL     1      24.378   3.534  52.250  1.00  0.00     0.008 P 
HETATM   10  C9  UNL     1      23.411   2.105  52.160  1.00  0.00     0.055 C 
HETATM   11  C10 UNL     1      24.411   1.091  52.474  1.00  0.00     0.006 A 
HETATM   12  C11 UNL     1      24.269  -0.083  53.184  1.00  0.00     0.015 A 
HETATM   13  C12 UNL     1      25.369  -0.941  53.318  1.00  0.00     0.001 A 
HETATM   14  C13 UNL     1      26.617  -0.651  52.755  1.00  0.00     0.001 A 
HETATM   15  C14 UNL     1      26.699   0.553  52.048  1.00  0.00     0.016 A 
HETATM   16  C15 UNL     1      25.613   1.452  51.888  1.00  0.00     0.027 A 
HETATM   17  C16 UNL     1      25.606   2.760  51.154  1.00  0.00     0.188 C 
HETATM   18  O2  UNL     1      26.330   2.941  50.144  1.00  0.00    -0.287 OA
HETATM   19  H12 UNL     1      20.424   4.171  49.276  1.00  0.00     0.064 HD
HETATM   20  H13 UNL     1      24.682   3.908  53.356  1.00  0.00     0.072 HD
ENDROOT
BRANCH   1  21
HETATM   21  C2  UNL     1      21.005   1.498  51.871  1.00  0.00     0.082 C 
HETATM   22  C1  UNL     1      21.233   0.300  50.962  1.00  0.00     0.032 C 
HETATM   23  C3  UNL     1      20.815   1.056  53.326  1.00  0.00     0.032 C 
ENDBRANCH   1  21
TORSDOF 1
ENDMDL
MODEL 4
REMARK VINA RESULT:      -7.1      2.545      4.720
REMARK  1 active torsions:
REMARK  status: ('A' for Active; 'I' for Inactive)
REMARK    1  A    between atoms: C2_2  and  N1_4 
ROOT
HETATM    1  N1  UNL     1      23.578   0.390  53.272  1.00  0.00    -0.340 N 
HETATM    2  C4  UNL     1      24.947   0.656  53.214  1.00  0.00     0.051 C 
HETATM    3  C5  UNL     1      25.385   1.646  52.495  1.00  0.00     0.048 C 
HETATM    4  C6  UNL     1      26.702   2.163  52.261  1.00  0.00     0.163 C 
HETATM    5  O1  UNL     1      27.080   2.781  51.248  1.00  0.00    -0.292 OA
HETATM    6  C7  UNL     1      27.671   1.910  53.365  1.00  0.00     0.088 C 
HETATM    7  C8  UNL     1      27.890   0.391  53.353  1.00  0.00     0.045 C 
HETATM    8  P1  UNL     1      26.308  -0.271  54.077  1.00  0.00    -0.075 P 
HETATM    9  P2  UNL     1      23.948   2.214  51.499  1.00  0.00     0.008 P 
HETATM   10  C9  UNL     1      22.861   1.322  52.501  1.00  0.00     0.055 C 
HETATM   11  C10 UNL     1      21.600   1.974  52.167  1.00  0.00     0.006 A 
HETATM   12  C11 UNL     1      20.338   1.429  52.058  1.00  0.00     0.015 A 
HETATM   13  C12 UNL     1      19.251   2.267  51.774  1.00  0.00     0.001 A 
HETATM   14  C13 UNL     1      19.397   3.647  51.594  1.00  0.00     0.001 A 
HETATM   15  C14 UNL     1      20.700   4.140  51.716  1.00  0.00     0.016 A 
HETATM   16  C15 UNL     1      21.829   3.330  52.001  1.00  0.00     0.027 A 
HETATM   17  C16 UNL     1      23.257   3.766  52.147  1.00  0.00     0.188 C 
HETATM   18  O2  UNL     1      23.546   4.900  52.604  1.00  0.00    -0.287 OA
HETATM   19  H12 UNL     1      26.276   0.254  55.451  1.00  0.00     0.064 HD
HETATM   20  H13 UNL     1      23.917   1.967  50.318  1.00  0.00     0.072 HD
ENDROOT
BRANCH   1  21
HETATM   21  C2  UNL     1      22.922  -0.675  54.001  1.00  0.00     0.082 C 
HETATM   22  C1  UNL     1      21.936  -0.113  55.014  1.00  0.00     0.032 C 
HETATM   23  C3  UNL     1      22.225  -1.632  53.028  1.00  0.00     0.032 C 
ENDBRANCH   1  21
TORSDOF 1
ENDMDL
MODEL 5
REMARK VINA RESULT:      -7.0      1.850      5.369
REMARK  1 active torsions:
REMARK  status: ('A' for Active; 'I' for Inactive)
REMARK    1  A    between atoms: C2_2  and  N1_4 
ROOT
HETATM    1  N1  UNL     1      24.409   0.473  53.046  1.00  0.00    -0.340 N 
HETATM    2  C4  UNL     1      23.091   0.139  53.358  1.00  0.00     0.051 C 
HETATM    3  C5  UNL     1      22.113   0.863  52.901  1.00  0.00     0.048 C 
HETATM    4  C6  UNL     1      20.689   0.760  53.033  1.00  0.00     0.163 C 
HETATM    5  O1  UNL     1      19.875   1.699  52.970  1.00  0.00    -0.292 OA
HETATM    6  C7  UNL     1      20.189  -0.624  53.266  1.00  0.00     0.088 C 
HETATM    7  C8  UNL     1      20.693  -0.992  54.669  1.00  0.00     0.045 C 
HETATM    8  P1  UNL     1      22.511  -1.286  54.403  1.00  0.00    -0.075 P 
HETATM    9  P2  UNL     1      22.896   2.362  52.181  1.00  0.00     0.008 P 
HETATM   10  C9  UNL     1      24.448   1.605  52.213  1.00  0.00     0.055 C 
HETATM   11  C10 UNL     1      25.174   2.453  51.274  1.00  0.00     0.006 A 
HETATM   12  C11 UNL     1      26.494   2.849  51.298  1.00  0.00     0.015 A 
HETATM   13  C12 UNL     1      26.994   3.632  50.249  1.00  0.00     0.001 A 
HETATM   14  C13 UNL     1      26.200   4.030  49.168  1.00  0.00     0.001 A 
HETATM   15  C14 UNL     1      24.871   3.598  49.200  1.00  0.00     0.016 A 
HETATM   16  C15 UNL     1      24.321   2.806  50.241  1.00  0.00     0.027 A 
HETATM   17  C16 UNL     1      22.915   2.300  50.364  1.00  0.00     0.188 C 
HETATM   18  O2  UNL     1      22.237   2.014  49.345  1.00  0.00    -0.287 OA
HETATM   19  H12 UNL     1      22.575  -2.440  53.492  1.00  0.00     0.064 HD
HETATM   20  H13 UNL     1      22.799   3.414  52.764  1.00  0.00     0.072 HD
ENDROOT
BRANCH   1  21
HETATM   21  C2  UNL     1      25.612  -0.206  53.480  1.00  0.00     0.082 C 
HETATM   22  C1  UNL     1      26.429  -0.682  52.289  1.00  0.00     0.032 C 
HETATM   23  C3  UNL     1      26.442   0.713  54.384  1.00  0.00     0.032 C 
ENDBRANCH   1  21
TORSDOF 1
ENDMDL
MODEL 6
REMARK VINA RESULT:      -6.9      2.357      3.944
REMARK  1 active torsions:
REMARK  status: ('A' for Active; 'I' for Inactive)
REMARK    1  A    between atoms: C2_2  and  N1_4 
ROOT
HETATM    1  N1  UNL     1      22.219   2.868  51.133  1.00  0.00    -0.340 N 
HETATM    2  C4  UNL     1      20.829   2.816  51.024  1.00  0.00     0.051 C 
HETATM    3  C5  UNL     1      20.191   1.743  51.384  1.00  0.00     0.048 C 
HETATM    4  C6  UNL     1      18.797   1.407  51.406  1.00  0.00     0.163 C 
HETATM    5  O1  UNL     1      18.314   0.263  51.321  1.00  0.00    -0.292 OA
HETATM    6  C7  UNL     1      17.882   2.576  51.546  1.00  0.00     0.088 C 
HETATM    7  C8  UNL     1      18.031   3.349  50.228  1.00  0.00     0.045 C 
HETATM    8  P1  UNL     1      19.700   4.153  50.394  1.00  0.00    -0.075 P 
HETATM    9  P2  UNL     1      21.482   0.464  51.665  1.00  0.00     0.008 P 
HETATM   10  C9  UNL     1      22.718   1.670  51.672  1.00  0.00     0.055 C 
HETATM   11  C10 UNL     1      23.798   0.935  52.321  1.00  0.00     0.006 A 
HETATM   12  C11 UNL     1      25.156   0.995  52.090  1.00  0.00     0.015 A 
HETATM   13  C12 UNL     1      26.021   0.227  52.880  1.00  0.00     0.001 A 
HETATM   14  C13 UNL     1      25.558  -0.606  53.904  1.00  0.00     0.001 A 
HETATM   15  C14 UNL     1      24.172  -0.625  54.090  1.00  0.00     0.016 A 
HETATM   16  C15 UNL     1      23.259   0.134  53.315  1.00  0.00     0.027 A 
HETATM   17  C16 UNL     1      21.765   0.177  53.438  1.00  0.00     0.188 C 
HETATM   18  O2  UNL     1      21.201   0.028  54.551  1.00  0.00    -0.287 OA
HETATM   19  H12 UNL     1      19.565   5.067  51.538  1.00  0.00     0.064 HD
HETATM   20  H13 UNL     1      21.608  -0.430  50.864  1.00  0.00     0.072 HD
ENDROOT
BRANCH   1  21
HETATM   21  C2  UNL     1      23.087   3.967  50.763  1.00  0.00     0.082 C 
HETATM   22  C1  UNL     1      23.806   4.526  51.981  1.00  0.00     0.032 C 
HETATM   23  C3  UNL     1      24.087   3.516  49.693  1.00  0.00     0.032 C 
ENDBRANCH   1  21
TORSDOF 1
ENDMDL
MODEL 7
REMARK VINA RESULT:      -6.8      1.824      5.475
REMARK  1 active torsions:
REMARK  status: ('A' for Active; 'I' for Inactive)
REMARK    1  A    between atoms: C2_2  and  N1_4 
ROOT
HETATM    1  N1  UNL     1      24.701   1.024  52.864  1.00  0.00    -0.340 N 
HETATM    2  C4  UNL     1      23.785   0.192  53.508  1.00  0.00     0.051 C 
HETATM    3  C5  UNL     1      22.513   0.326  53.277  1.00  0.00     0.048 C 
HETATM    4  C6  UNL     1      21.362  -0.377  53.763  1.00  0.00     0.163 C 
HETATM    5  O1  UNL     1      20.209   0.080  53.862  1.00  0.00    -0.292 OA
HETATM    6  C7  UNL     1      21.626  -1.785  54.175  1.00  0.00     0.088 C 
HETATM    7  C8  UNL     1      22.512  -1.668  55.424  1.00  0.00     0.045 C 
HETATM    8  P1  UNL     1      24.161  -1.161  54.727  1.00  0.00    -0.075 P 
HETATM    9  P2  UNL     1      22.341   1.885  52.318  1.00  0.00     0.008 P 
HETATM   10  C9  UNL     1      24.039   1.912  51.998  1.00  0.00     0.055 C 
HETATM   11  C10 UNL     1      24.079   2.837  50.871  1.00  0.00     0.006 A 
HETATM   12  C11 UNL     1      25.034   3.777  50.548  1.00  0.00     0.015 A 
HETATM   13  C12 UNL     1      24.889   4.527  49.373  1.00  0.00     0.001 A 
HETATM   14  C13 UNL     1      23.803   4.358  48.507  1.00  0.00     0.001 A 
HETATM   15  C14 UNL     1      22.868   3.391  48.888  1.00  0.00     0.016 A 
HETATM   16  C15 UNL     1      22.973   2.610  50.067  1.00  0.00     0.027 A 
HETATM   17  C16 UNL     1      22.024   1.557  50.558  1.00  0.00     0.188 C 
HETATM   18  O2  UNL     1      21.372   0.846  49.753  1.00  0.00    -0.287 OA
HETATM   19  H12 UNL     1      24.576  -2.291  53.882  1.00  0.00     0.064 HD
HETATM   20  H13 UNL     1      21.881   2.861  52.860  1.00  0.00     0.072 HD
ENDROOT
BRANCH   1  21
HETATM   21  C2  UNL     1      26.141   1.028  53.016  1.00  0.00     0.082 C 
HETATM   22  C1  UNL     1      26.830   0.757  51.686  1.00  0.00     0.032 C 
HETATM   23  C3  UNL     1      26.608   2.358  53.615  1.00  0.00     0.032 C 
ENDBRANCH   1  21
TORSDOF 1
ENDMDL
MODEL 8
REMARK VINA RESULT:      -6.8      2.794      6.348
REMARK  1 active torsions:
REMARK  status: ('A' for Active; 'I' for Inactive)
REMARK    1  A    between atoms: C2_2  and  N1_4 
ROOT
HETATM    1  N1  UNL     1      22.945   2.333  50.374  1.00  0.00    -0.340 N 
HETATM    2  C4  UNL     1      23.912   1.997  51.322  1.00  0.00     0.051 C 
HETATM    3  C5  UNL     1      25.083   2.561  51.281  1.00  0.00     0.048 C 
HETATM    4  C6  UNL     1      26.246   2.435  52.110  1.00  0.00     0.163 C 
HETATM    5  O1  UNL     1      27.424   2.635  51.760  1.00  0.00    -0.292 OA
HETATM    6  C7  UNL     1      25.963   2.025  53.515  1.00  0.00     0.088 C 
HETATM    7  C8  UNL     1      25.459   0.579  53.407  1.00  0.00     0.045 C 
HETATM    8  P1  UNL     1      23.743   0.778  52.716  1.00  0.00    -0.075 P 
HETATM    9  P2  UNL     1      25.147   3.465  49.682  1.00  0.00     0.008 P 
HETATM   10  C9  UNL     1      23.437   3.310  49.491  1.00  0.00     0.055 C 
HETATM   11  C10 UNL     1      23.190   4.344  48.492  1.00  0.00     0.006 A 
HETATM   12  C11 UNL     1      22.282   4.356  47.455  1.00  0.00     0.015 A 
HETATM   13  C12 UNL     1      22.182   5.494  46.644  1.00  0.00     0.001 A 
HETATM   14  C13 UNL     1      22.974   6.629  46.846  1.00  0.00     0.001 A 
HETATM   15  C14 UNL     1      23.876   6.557  47.912  1.00  0.00     0.016 A 
HETATM   16  C15 UNL     1      24.012   5.427  48.759  1.00  0.00     0.027 A 
HETATM   17  C16 UNL     1      24.948   5.257  49.918  1.00  0.00     0.188 C 
HETATM   18  O2  UNL     1      25.288   6.237  50.627  1.00  0.00    -0.287 OA
HETATM   19  H12 UNL     1      23.007   1.525  53.749  1.00  0.00     0.064 HD
HETATM   20  H13 UNL     1      25.830   3.029  48.788  1.00  0.00     0.072 HD
ENDROOT
BRANCH   1  21
HETATM   21  C2  UNL     1      21.606   1.795  50.259  1.00  0.00     0.082 C 
HETATM   22  C1  UNL     1      20.563   2.886  50.447  1.00  0.00     0.032 C 
HETATM   23  C3  UNL     1      21.431   1.094  48.908  1.00  0.00     0.032 C 
ENDBRANCH   1  21
TORSDOF 1
ENDMDL
MODEL 9
REMARK VINA RESULT:      -6.7      7.349      9.846
REMARK  1 active torsions:
REMARK  status: ('A' for Active; 'I' for Inactive)
REMARK    1  A    between atoms: C2_2  and  N1_4 
ROOT
HETATM    1  N1  UNL     1      31.183   7.251  47.784  1.00  0.00    -0.340 N 
HETATM    2  C4  UNL     1      31.556   8.504  47.298  1.00  0.00     0.051 C 
HETATM    3  C5  UNL     1      30.648   9.334  46.879  1.00  0.00     0.048 C 
HETATM    4  C6  UNL     1      30.722  10.667  46.355  1.00  0.00     0.163 C 
HETATM    5  O1  UNL     1      29.909  11.197  45.576  1.00  0.00    -0.292 OA
HETATM    6  C7  UNL     1      31.903  11.448  46.820  1.00  0.00     0.088 C 
HETATM    7  C8  UNL     1      33.111  10.755  46.172  1.00  0.00     0.045 C 
HETATM    8  P1  UNL     1      33.280   9.188  47.160  1.00  0.00    -0.075 P 
HETATM    9  P2  UNL     1      29.086   8.368  46.803  1.00  0.00     0.008 P 
HETATM   10  C9  UNL     1      29.785   7.104  47.751  1.00  0.00     0.055 C 
HETATM   11  C10 UNL     1      28.581   6.412  48.196  1.00  0.00     0.006 A 
HETATM   12  C11 UNL     1      28.373   5.065  48.399  1.00  0.00     0.015 A 
HETATM   13  C12 UNL     1      27.135   4.627  48.887  1.00  0.00     0.001 A 
HETATM   14  C13 UNL     1      26.091   5.511  49.180  1.00  0.00     0.001 A 
HETATM   15  C14 UNL     1      26.361   6.864  48.954  1.00  0.00     0.016 A 
HETATM   16  C15 UNL     1      27.598   7.353  48.460  1.00  0.00     0.027 A 
HETATM   17  C16 UNL     1      27.978   8.777  48.185  1.00  0.00     0.188 C 
HETATM   18  O2  UNL     1      27.506   9.719  48.871  1.00  0.00    -0.287 OA
HETATM   19  H12 UNL     1      33.591   9.637  48.526  1.00  0.00     0.064 HD
HETATM   20  H13 UNL     1      28.643   8.050  45.726  1.00  0.00     0.072 HD
ENDROOT
BRANCH   1  21
HETATM   21  C2  UNL     1      32.056   6.203  48.270  1.00  0.00     0.082 C 
HETATM   22  C1  UNL     1      31.836   5.956  49.755  1.00  0.00     0.032 C 
HETATM   23  C3  UNL     1      31.844   4.919  47.461  1.00  0.00     0.032 C 
ENDBRANCH   1  21
TORSDOF 1
ENDMDL
