MODEL 1
REMARK VINA RESULT:      -6.5      0.000      0.000
REMARK  8 active torsions:
REMARK  status: ('A' for Active; 'I' for Inactive)
REMARK    1  A    between atoms: N1_1  and  C1_2 
REMARK    2  A    between atoms: C1_2  and  C2_3 
REMARK    3  A    between atoms: C1_2  and  C12_16 
REMARK    4  A    between atoms: C5_6  and  N2_7 
REMARK    5  A    between atoms: N2_7  and  C6_8 
REMARK    6  A    between atoms: N2_7  and  C8_11 
REMARK    7  A    between atoms: C6_8  and  C7_9 
REMARK    8  A    between atoms: C8_11  and  C9_12 
ROOT
HETATM    1  C2  UNL     1      24.874   1.196  52.971  1.00  0.00    -0.025 A 
HETATM    2  C3  UNL     1      23.875   0.314  53.325  1.00  0.00     0.011 A 
HETATM    3  C4  UNL     1      22.719   0.295  52.573  1.00  0.00     0.030 A 
HETATM    4  C5  UNL     1      22.453   1.084  51.478  1.00  0.00     0.030 A 
HETATM    5  C10 UNL     1      23.488   1.939  51.178  1.00  0.00     0.030 A 
HETATM    6  C11 UNL     1      24.671   2.017  51.880  1.00  0.00     0.011 A 
ENDROOT
BRANCH   1   7
HETATM    7  C1  UNL     1      26.144   1.277  53.756  1.00  0.00     0.262 C 
BRANCH   7   8
HETATM    8  N1  UNL     1      26.424   2.644  54.131  1.00  0.00     0.088 N 
HETATM    9  H1  UNL     1      27.433   2.896  54.017  1.00  0.00     0.313 HD
HETATM   10  H2  UNL     1      26.051   2.849  55.092  1.00  0.00     0.313 HD
ENDBRANCH   7   8
BRANCH   7  11
HETATM   11  C12 UNL     1      27.313   0.741  52.982  1.00  0.00     0.092 C 
HETATM   12  C13 UNL     1      28.481   1.678  53.154  1.00  0.00     0.015 C 
HETATM   13  C14 UNL     1      29.322   1.080  54.262  1.00  0.00     0.008 C 
HETATM   14  C15 UNL     1      28.555  -0.140  54.683  1.00  0.00     0.079 C 
HETATM   15  C16 UNL     1      27.766  -0.583  53.488  1.00  0.00     0.133 C 
HETATM   16  O1  UNL     1      27.640  -1.767  53.167  1.00  0.00    -0.298 OA
ENDBRANCH   7  11
ENDBRANCH   1   7
BRANCH   4  17
HETATM   17  N2  UNL     1      21.252   1.034  50.735  1.00  0.00    -0.379 N 
BRANCH  17  18
HETATM   18  C6  UNL     1      19.972   1.421  51.266  1.00  0.00     0.138 C 
BRANCH  18  19
HETATM   19  C7  UNL     1      19.036   0.215  51.347  1.00  0.00     0.134 C 
HETATM   20 CL1  UNL     1      19.199  -0.456  52.987  1.00  0.00    -0.129 Cl
ENDBRANCH  18  19
ENDBRANCH  17  18
BRANCH  17  21
HETATM   21  C8  UNL     1      21.187   0.599  49.375  1.00  0.00     0.138 C 
BRANCH  21  22
HETATM   22  C9  UNL     1      20.983   1.791  48.473  1.00  0.00     0.134 C 
HETATM   23 CL2  UNL     1      22.532   2.110  47.624  1.00  0.00    -0.129 Cl
ENDBRANCH  21  22
ENDBRANCH  17  21
ENDBRANCH   4  17
TORSDOF 8
ENDMDL
MODEL 2
REMARK VINA RESULT:      -6.5      0.118      2.524
REMARK  8 active torsions:
REMARK  status: ('A' for Active; 'I' for Inactive)
REMARK    1  A    between atoms: N1_1  and  C1_2 
REMARK    2  A    between atoms: C1_2  and  C2_3 
REMARK    3  A    between atoms: C1_2  and  C12_16 
REMARK    4  A    between atoms: C5_6  and  N2_7 
REMARK    5  A    between atoms: N2_7  and  C6_8 
REMARK    6  A    between atoms: N2_7  and  C8_11 
REMARK    7  A    between atoms: C6_8  and  C7_9 
REMARK    8  A    between atoms: C8_11  and  C9_12 
ROOT
HETATM    1  C2  UNL     1      24.825   1.298  52.937  1.00  0.00    -0.025 A 
HETATM    2  C3  UNL     1      23.867   0.350  53.233  1.00  0.00     0.011 A 
HETATM    3  C4  UNL     1      22.709   0.331  52.486  1.00  0.00     0.030 A 
HETATM    4  C5  UNL     1      22.402   1.181  51.448  1.00  0.00     0.030 A 
HETATM    5  C10 UNL     1      23.395   2.100  51.204  1.00  0.00     0.030 A 
HETATM    6  C11 UNL     1      24.578   2.183  51.907  1.00  0.00     0.011 A 
ENDROOT
BRANCH   1   7
HETATM    7  C1  UNL     1      26.094   1.381  53.722  1.00  0.00     0.262 C 
BRANCH   7   8
HETATM    8  N1  UNL     1      26.393   2.754  54.061  1.00  0.00     0.088 N 
HETATM    9  H1  UNL     1      25.760   3.436  53.582  1.00  0.00     0.313 HD
HETATM   10  H2  UNL     1      27.414   2.959  53.912  1.00  0.00     0.313 HD
ENDBRANCH   7   8
BRANCH   7  11
HETATM   11  C12 UNL     1      27.257   0.810  52.964  1.00  0.00     0.092 C 
HETATM   12  C13 UNL     1      28.454   1.703  53.162  1.00  0.00     0.015 C 
HETATM   13  C14 UNL     1      29.255   1.069  54.279  1.00  0.00     0.008 C 
HETATM   14  C15 UNL     1      28.438  -0.127  54.679  1.00  0.00     0.079 C 
HETATM   15  C16 UNL     1      27.654  -0.533  53.468  1.00  0.00     0.133 C 
HETATM   16  O1  UNL     1      27.491  -1.710  53.137  1.00  0.00    -0.298 OA
ENDBRANCH   7  11
ENDBRANCH   1   7
BRANCH   4  17
HETATM   17  N2  UNL     1      21.198   1.128  50.708  1.00  0.00    -0.379 N 
BRANCH  17  18
HETATM   18  C6  UNL     1      21.127   0.702  49.336  1.00  0.00     0.138 C 
BRANCH  18  19
HETATM   19  C7  UNL     1      20.971   1.906  48.407  1.00  0.00     0.134 C 
HETATM   20 CL1  UNL     1      22.538   2.141  47.598  1.00  0.00    -0.129 Cl
ENDBRANCH  18  19
ENDBRANCH  17  18
BRANCH  17  21
HETATM   21  C8  UNL     1      19.925   1.485  51.253  1.00  0.00     0.138 C 
BRANCH  21  22
HETATM   22  C9  UNL     1      19.030   0.271  51.279  1.00  0.00     0.134 C 
HETATM   23 CL2  UNL     1      19.177  -0.487  52.899  1.00  0.00    -0.129 Cl
ENDBRANCH  21  22
ENDBRANCH  17  21
ENDBRANCH   4  17
TORSDOF 8
ENDMDL
MODEL 3
REMARK VINA RESULT:      -6.4      2.508      3.168
REMARK  8 active torsions:
REMARK  status: ('A' for Active; 'I' for Inactive)
REMARK    1  A    between atoms: N1_1  and  C1_2 
REMARK    2  A    between atoms: C1_2  and  C2_3 
REMARK    3  A    between atoms: C1_2  and  C12_16 
REMARK    4  A    between atoms: C5_6  and  N2_7 
REMARK    5  A    between atoms: N2_7  and  C6_8 
REMARK    6  A    between atoms: N2_7  and  C8_11 
REMARK    7  A    between atoms: C6_8  and  C7_9 
REMARK    8  A    between atoms: C8_11  and  C9_12 
ROOT
HETATM    1  C2  UNL     1      26.151   0.077  52.320  1.00  0.00    -0.025 A 
HETATM    2  C3  UNL     1      24.994  -0.095  53.051  1.00  0.00     0.011 A 
HETATM    3  C4  UNL     1      24.036   0.896  53.007  1.00  0.00     0.030 A 
HETATM    4  C5  UNL     1      24.116   2.068  52.290  1.00  0.00     0.030 A 
HETATM    5  C10 UNL     1      25.292   2.177  51.584  1.00  0.00     0.030 A 
HETATM    6  C11 UNL     1      26.295   1.232  51.578  1.00  0.00     0.011 A 
ENDROOT
BRANCH   1   7
HETATM    7  C1  UNL     1      27.235  -0.952  52.340  1.00  0.00     0.262 C 
BRANCH   7   8
HETATM    8  N1  UNL     1      26.707  -2.253  51.997  1.00  0.00     0.088 N 
HETATM    9  H1  UNL     1      25.972  -2.581  52.666  1.00  0.00     0.313 HD
HETATM   10  H2  UNL     1      27.487  -2.946  51.864  1.00  0.00     0.313 HD
ENDBRANCH   7   8
BRANCH   7  11
HETATM   11  C12 UNL     1      27.895  -1.041  53.685  1.00  0.00     0.092 C 
HETATM   12  C13 UNL     1      29.239  -1.705  53.525  1.00  0.00     0.015 C 
HETATM   13  C14 UNL     1      30.243  -0.575  53.439  1.00  0.00     0.008 C 
HETATM   14  C15 UNL     1      29.400   0.666  53.511  1.00  0.00     0.079 C 
HETATM   15  C16 UNL     1      28.162   0.299  54.272  1.00  0.00     0.133 C 
HETATM   16  O1  UNL     1      27.651   1.036  55.118  1.00  0.00    -0.298 OA
ENDBRANCH   7  11
ENDBRANCH   1   7
BRANCH   4  17
HETATM   17  N2  UNL     1      23.109   3.059  52.274  1.00  0.00    -0.379 N 
BRANCH  17  18
HETATM   18  C6  UNL     1      21.750   2.806  51.876  1.00  0.00     0.138 C 
BRANCH  18  19
HETATM   19  C7  UNL     1      21.707   2.184  50.480  1.00  0.00     0.134 C 
HETATM   20 CL1  UNL     1      21.292   0.466  50.693  1.00  0.00    -0.129 Cl
ENDBRANCH  18  19
ENDBRANCH  17  18
BRANCH  17  21
HETATM   21  C8  UNL     1      23.338   4.417  52.662  1.00  0.00     0.138 C 
BRANCH  21  22
HETATM   22  C9  UNL     1      23.055   5.329  51.495  1.00  0.00     0.134 C 
HETATM   23 CL2  UNL     1      24.604   5.624  50.637  1.00  0.00    -0.129 Cl
ENDBRANCH  21  22
ENDBRANCH  17  21
ENDBRANCH   4  17
TORSDOF 8
ENDMDL
MODEL 4
REMARK VINA RESULT:      -6.3      2.215      2.536
REMARK  8 active torsions:
REMARK  status: ('A' for Active; 'I' for Inactive)
REMARK    1  A    between atoms: N1_1  and  C1_2 
REMARK    2  A    between atoms: C1_2  and  C2_3 
REMARK    3  A    between atoms: C1_2  and  C12_16 
REMARK    4  A    between atoms: C5_6  and  N2_7 
REMARK    5  A    between atoms: N2_7  and  C6_8 
REMARK    6  A    between atoms: N2_7  and  C8_11 
REMARK    7  A    between atoms: C6_8  and  C7_9 
REMARK    8  A    between atoms: C8_11  and  C9_12 
ROOT
HETATM    1  C2  UNL     1      25.138  -0.004  52.791  1.00  0.00    -0.025 A 
HETATM    2  C3  UNL     1      24.129  -0.615  53.506  1.00  0.00     0.011 A 
HETATM    3  C4  UNL     1      22.830  -0.209  53.288  1.00  0.00     0.030 A 
HETATM    4  C5  UNL     1      22.425   0.767  52.406  1.00  0.00     0.030 A 
HETATM    5  C10 UNL     1      23.477   1.335  51.725  1.00  0.00     0.030 A 
HETATM    6  C11 UNL     1      24.800   0.984  51.889  1.00  0.00     0.011 A 
ENDROOT
BRANCH   1   7
HETATM    7  C1  UNL     1      26.568  -0.388  52.995  1.00  0.00     0.262 C 
BRANCH   7   8
HETATM    8  N1  UNL     1      26.694  -1.819  53.152  1.00  0.00     0.088 N 
HETATM    9  H1  UNL     1      25.864  -2.341  52.784  1.00  0.00     0.313 HD
HETATM   10  H2  UNL     1      26.930  -2.064  54.147  1.00  0.00     0.313 HD
ENDBRANCH   7   8
BRANCH   7  11
HETATM   11  C12 UNL     1      27.159   0.282  54.201  1.00  0.00     0.092 C 
HETATM   12  C13 UNL     1      28.520  -0.308  54.468  1.00  0.00     0.015 C 
HETATM   13  C14 UNL     1      29.508   0.642  53.827  1.00  0.00     0.008 C 
HETATM   14  C15 UNL     1      28.643   1.695  53.195  1.00  0.00     0.079 C 
HETATM   15  C16 UNL     1      27.373   1.739  53.990  1.00  0.00     0.133 C 
HETATM   16  O1  UNL     1      26.806   2.791  54.292  1.00  0.00    -0.298 OA
ENDBRANCH   7  11
ENDBRANCH   1   7
BRANCH   4  17
HETATM   17  N2  UNL     1      21.079   1.155  52.214  1.00  0.00    -0.379 N 
BRANCH  17  18
HETATM   18  C6  UNL     1      20.159   0.440  51.371  1.00  0.00     0.138 C 
BRANCH  18  19
HETATM   19  C7  UNL     1      18.866   0.133  52.126  1.00  0.00     0.134 C 
HETATM   20 CL1  UNL     1      19.278  -1.039  53.401  1.00  0.00    -0.129 Cl
ENDBRANCH  18  19
ENDBRANCH  17  18
BRANCH  17  21
HETATM   21  C8  UNL     1      20.493   2.294  52.847  1.00  0.00     0.138 C 
BRANCH  21  22
HETATM   22  C9  UNL     1      20.503   3.463  51.892  1.00  0.00     0.134 C 
HETATM   23 CL2  UNL     1      21.905   4.502  52.309  1.00  0.00    -0.129 Cl
ENDBRANCH  21  22
ENDBRANCH  17  21
ENDBRANCH   4  17
TORSDOF 8
ENDMDL
MODEL 5
REMARK VINA RESULT:      -6.3      2.478      3.658
REMARK  8 active torsions:
REMARK  status: ('A' for Active; 'I' for Inactive)
REMARK    1  A    between atoms: N1_1  and  C1_2 
REMARK    2  A    between atoms: C1_2  and  C2_3 
REMARK    3  A    between atoms: C1_2  and  C12_16 
REMARK    4  A    between atoms: C5_6  and  N2_7 
REMARK    5  A    between atoms: N2_7  and  C6_8 
REMARK    6  A    between atoms: N2_7  and  C8_11 
REMARK    7  A    between atoms: C6_8  and  C7_9 
REMARK    8  A    between atoms: C8_11  and  C9_12 
ROOT
HETATM    1  C2  UNL     1      26.260   0.092  52.259  1.00  0.00    -0.025 A 
HETATM    2  C3  UNL     1      26.472   1.229  51.507  1.00  0.00     0.011 A 
HETATM    3  C4  UNL     1      25.472   2.177  51.455  1.00  0.00     0.030 A 
HETATM    4  C5  UNL     1      24.255   2.105  52.093  1.00  0.00     0.030 A 
HETATM    5  C10 UNL     1      24.107   0.950  52.824  1.00  0.00     0.030 A 
HETATM    6  C11 UNL     1      25.058  -0.043  52.924  1.00  0.00     0.011 A 
ENDROOT
BRANCH   1   7
HETATM    7  C1  UNL     1      27.298  -0.981  52.341  1.00  0.00     0.262 C 
BRANCH   7   8
HETATM    8  N1  UNL     1      26.719  -2.272  52.045  1.00  0.00     0.088 N 
HETATM    9  H1  UNL     1      26.276  -2.718  52.882  1.00  0.00     0.313 HD
HETATM   10  H2  UNL     1      27.421  -2.892  51.566  1.00  0.00     0.313 HD
ENDBRANCH   7   8
BRANCH   7  11
HETATM   11  C12 UNL     1      27.933  -1.039  53.699  1.00  0.00     0.092 C 
HETATM   12  C13 UNL     1      29.285  -1.694  53.578  1.00  0.00     0.015 C 
HETATM   13  C14 UNL     1      30.281  -0.558  53.490  1.00  0.00     0.008 C 
HETATM   14  C15 UNL     1      29.427   0.678  53.522  1.00  0.00     0.079 C 
HETATM   15  C16 UNL     1      28.178   0.314  54.267  1.00  0.00     0.133 C 
HETATM   16  O1  UNL     1      27.645   1.063  55.089  1.00  0.00    -0.298 OA
ENDBRANCH   7  11
ENDBRANCH   1   7
BRANCH   4  17
HETATM   17  N2  UNL     1      23.255   3.102  52.011  1.00  0.00    -0.379 N 
BRANCH  17  18
HETATM   18  C6  UNL     1      23.387   4.409  52.596  1.00  0.00     0.138 C 
BRANCH  18  19
HETATM   19  C7  UNL     1      23.175   5.494  51.540  1.00  0.00     0.134 C 
HETATM   20 CL1  UNL     1      24.675   5.587  50.587  1.00  0.00    -0.129 Cl
ENDBRANCH  18  19
ENDBRANCH  17  18
BRANCH  17  21
HETATM   21  C8  UNL     1      22.013   2.913  51.329  1.00  0.00     0.138 C 
BRANCH  21  22
HETATM   22  C9  UNL     1      22.224   2.015  50.135  1.00  0.00     0.134 C 
HETATM   23 CL2  UNL     1      22.979   2.996  48.835  1.00  0.00    -0.129 Cl
ENDBRANCH  21  22
ENDBRANCH  17  21
ENDBRANCH   4  17
TORSDOF 8
ENDMDL
MODEL 6
REMARK VINA RESULT:      -6.3      2.016      3.098
REMARK  8 active torsions:
REMARK  status: ('A' for Active; 'I' for Inactive)
REMARK    1  A    between atoms: N1_1  and  C1_2 
REMARK    2  A    between atoms: C1_2  and  C2_3 
REMARK    3  A    between atoms: C1_2  and  C12_16 
REMARK    4  A    between atoms: C5_6  and  N2_7 
REMARK    5  A    between atoms: N2_7  and  C6_8 
REMARK    6  A    between atoms: N2_7  and  C8_11 
REMARK    7  A    between atoms: C6_8  and  C7_9 
REMARK    8  A    between atoms: C8_11  and  C9_12 
ROOT
HETATM    1  C2  UNL     1      24.683   0.317  52.896  1.00  0.00    -0.025 A 
HETATM    2  C3  UNL     1      24.537   1.244  51.884  1.00  0.00     0.011 A 
HETATM    3  C4  UNL     1      23.265   1.658  51.552  1.00  0.00     0.030 A 
HETATM    4  C5  UNL     1      22.096   1.234  52.141  1.00  0.00     0.030 A 
HETATM    5  C10 UNL     1      22.310   0.313  53.140  1.00  0.00     0.030 A 
HETATM    6  C11 UNL     1      23.549  -0.150  53.529  1.00  0.00     0.011 A 
ENDROOT
BRANCH   1   7
HETATM    7  C1  UNL     1      26.034  -0.186  53.291  1.00  0.00     0.262 C 
BRANCH   7   8
HETATM    8  N1  UNL     1      25.915  -1.309  54.193  1.00  0.00     0.088 N 
HETATM    9  H1  UNL     1      25.218  -1.143  54.956  1.00  0.00     0.313 HD
HETATM   10  H2  UNL     1      26.860  -1.600  54.549  1.00  0.00     0.313 HD
ENDBRANCH   7   8
BRANCH   7  11
HETATM   11  C12 UNL     1      26.853   0.881  53.958  1.00  0.00     0.092 C 
HETATM   12  C13 UNL     1      27.626   0.263  55.095  1.00  0.00     0.015 C 
HETATM   13  C14 UNL     1      29.004  -0.029  54.539  1.00  0.00     0.008 C 
HETATM   14  C15 UNL     1      28.915   0.403  53.103  1.00  0.00     0.079 C 
HETATM   15  C16 UNL     1      27.865   1.471  53.041  1.00  0.00     0.133 C 
HETATM   16  O1  UNL     1      27.986   2.492  52.361  1.00  0.00    -0.298 OA
ENDBRANCH   7  11
ENDBRANCH   1   7
BRANCH   4  17
HETATM   17  N2  UNL     1      20.809   1.685  51.768  1.00  0.00    -0.379 N 
BRANCH  17  18
HETATM   18  C6  UNL     1      20.192   2.866  52.311  1.00  0.00     0.138 C 
BRANCH  18  19
HETATM   19  C7  UNL     1      20.398   4.057  51.375  1.00  0.00     0.134 C 
HETATM   20 CL1  UNL     1      21.823   4.942  51.972  1.00  0.00    -0.129 Cl
ENDBRANCH  18  19
ENDBRANCH  17  18
BRANCH  17  21
HETATM   21  C8  UNL     1      19.992   1.016  50.803  1.00  0.00     0.138 C 
BRANCH  21  22
HETATM   22  C9  UNL     1      18.626   0.762  51.389  1.00  0.00     0.134 C 
HETATM   23 CL2  UNL     1      18.788  -0.532  52.622  1.00  0.00    -0.129 Cl
ENDBRANCH  21  22
ENDBRANCH  17  21
ENDBRANCH   4  17
TORSDOF 8
ENDMDL
MODEL 7
REMARK VINA RESULT:      -6.2      3.034      4.302
REMARK  8 active torsions:
REMARK  status: ('A' for Active; 'I' for Inactive)
REMARK    1  A    between atoms: N1_1  and  C1_2 
REMARK    2  A    between atoms: C1_2  and  C2_3 
REMARK    3  A    between atoms: C1_2  and  C12_16 
REMARK    4  A    between atoms: C5_6  and  N2_7 
REMARK    5  A    between atoms: N2_7  and  C6_8 
REMARK    6  A    between atoms: N2_7  and  C8_11 
REMARK    7  A    between atoms: C6_8  and  C7_9 
REMARK    8  A    between atoms: C8_11  and  C9_12 
ROOT
HETATM    1  C2  UNL     1      26.195   1.290  52.061  1.00  0.00    -0.025 A 
HETATM    2  C3  UNL     1      26.490   2.240  51.106  1.00  0.00     0.011 A 
HETATM    3  C4  UNL     1      25.578   3.248  50.878  1.00  0.00     0.030 A 
HETATM    4  C5  UNL     1      24.372   3.409  51.522  1.00  0.00     0.030 A 
HETATM    5  C10 UNL     1      24.139   2.431  52.461  1.00  0.00     0.030 A 
HETATM    6  C11 UNL     1      25.000   1.393  52.745  1.00  0.00     0.011 A 
ENDROOT
BRANCH   1   7
HETATM    7  C1  UNL     1      27.135   0.162  52.343  1.00  0.00     0.262 C 
BRANCH   7   8
HETATM    8  N1  UNL     1      26.482  -1.110  52.131  1.00  0.00     0.088 N 
HETATM    9  H1  UNL     1      25.941  -1.430  52.968  1.00  0.00     0.313 HD
HETATM   10  H2  UNL     1      27.168  -1.825  51.781  1.00  0.00     0.313 HD
ENDBRANCH   7   8
BRANCH   7  11
HETATM   11  C12 UNL     1      27.655   0.208  53.749  1.00  0.00     0.092 C 
HETATM   12  C13 UNL     1      28.385  -1.078  54.041  1.00  0.00     0.015 C 
HETATM   13  C14 UNL     1      29.850  -0.777  53.807  1.00  0.00     0.008 C 
HETATM   14  C15 UNL     1      29.859   0.654  53.353  1.00  0.00     0.079 C 
HETATM   15  C16 UNL     1      28.645   1.300  53.950  1.00  0.00     0.133 C 
HETATM   16  O1  UNL     1      28.657   2.436  54.431  1.00  0.00    -0.298 OA
ENDBRANCH   7  11
ENDBRANCH   1   7
BRANCH   4  17
HETATM   17  N2  UNL     1      23.464   4.458  51.256  1.00  0.00    -0.379 N 
BRANCH  17  18
HETATM   18  C6  UNL     1      23.644   5.805  51.729  1.00  0.00     0.138 C 
BRANCH  18  19
HETATM   19  C7  UNL     1      24.240   6.684  50.629  1.00  0.00     0.134 C 
HETATM   20 CL1  UNL     1      23.071   7.991  50.323  1.00  0.00    -0.129 Cl
ENDBRANCH  18  19
ENDBRANCH  17  18
BRANCH  17  21
HETATM   21  C8  UNL     1      22.275   4.289  50.480  1.00  0.00     0.138 C 
BRANCH  21  22
HETATM   22  C9  UNL     1      21.082   4.757  51.277  1.00  0.00     0.134 C 
HETATM   23 CL2  UNL     1      20.619   3.438  52.403  1.00  0.00    -0.129 Cl
ENDBRANCH  21  22
ENDBRANCH  17  21
ENDBRANCH   4  17
TORSDOF 8
ENDMDL
MODEL 8
REMARK VINA RESULT:      -6.2      2.607      3.408
REMARK  8 active torsions:
REMARK  status: ('A' for Active; 'I' for Inactive)
REMARK    1  A    between atoms: N1_1  and  C1_2 
REMARK    2  A    between atoms: C1_2  and  C2_3 
REMARK    3  A    between atoms: C1_2  and  C12_16 
REMARK    4  A    between atoms: C5_6  and  N2_7 
REMARK    5  A    between atoms: N2_7  and  C6_8 
REMARK    6  A    between atoms: N2_7  and  C8_11 
REMARK    7  A    between atoms: C6_8  and  C7_9 
REMARK    8  A    between atoms: C8_11  and  C9_12 
ROOT
HETATM    1  C2  UNL     1      25.610   1.405  51.820  1.00  0.00    -0.025 A 
HETATM    2  C3  UNL     1      24.259   1.250  52.048  1.00  0.00     0.011 A 
HETATM    3  C4  UNL     1      23.382   2.090  51.396  1.00  0.00     0.030 A 
HETATM    4  C5  UNL     1      23.724   3.092  50.517  1.00  0.00     0.030 A 
HETATM    5  C10 UNL     1      25.083   3.194  50.332  1.00  0.00     0.030 A 
HETATM    6  C11 UNL     1      26.021   2.393  50.948  1.00  0.00     0.011 A 
ENDROOT
BRANCH   1   7
HETATM    7  C1  UNL     1      26.613   0.537  52.510  1.00  0.00     0.262 C 
BRANCH   7   8
HETATM    8  N1  UNL     1      26.011  -0.713  52.915  1.00  0.00     0.088 N 
HETATM    9  H1  UNL     1      25.126  -0.922  52.397  1.00  0.00     0.313 HD
HETATM   10  H2  UNL     1      25.899  -0.749  53.960  1.00  0.00     0.313 HD
ENDBRANCH   7   8
BRANCH   7  11
HETATM   11  C12 UNL     1      27.191   1.207  53.722  1.00  0.00     0.092 C 
HETATM   12  C13 UNL     1      27.395   0.174  54.800  1.00  0.00     0.015 C 
HETATM   13  C14 UNL     1      28.849  -0.235  54.702  1.00  0.00     0.008 C 
HETATM   14  C15 UNL     1      29.373   0.561  53.541  1.00  0.00     0.079 C 
HETATM   15  C16 UNL     1      28.531   1.798  53.455  1.00  0.00     0.133 C 
HETATM   16  O1  UNL     1      28.999   2.914  53.221  1.00  0.00    -0.298 OA
ENDBRANCH   7  11
ENDBRANCH   1   7
BRANCH   4  17
HETATM   17  N2  UNL     1      22.790   3.933  49.870  1.00  0.00    -0.379 N 
BRANCH  17  18
HETATM   18  C6  UNL     1      21.431   3.549  49.595  1.00  0.00     0.138 C 
BRANCH  18  19
HETATM   19  C7  UNL     1      21.322   2.915  48.209  1.00  0.00     0.134 C 
HETATM   20 CL1  UNL     1      21.627   1.173  48.412  1.00  0.00    -0.129 Cl
ENDBRANCH  18  19
ENDBRANCH  17  18
BRANCH  17  21
HETATM   21  C8  UNL     1      23.100   5.258  49.430  1.00  0.00     0.138 C 
BRANCH  21  22
HETATM   22  C9  UNL     1      22.770   6.243  50.523  1.00  0.00     0.134 C 
HETATM   23 CL2  UNL     1      24.297   6.657  51.371  1.00  0.00    -0.129 Cl
ENDBRANCH  21  22
ENDBRANCH  17  21
ENDBRANCH   4  17
TORSDOF 8
ENDMDL
MODEL 9
REMARK VINA RESULT:      -6.1      2.730      3.768
REMARK  8 active torsions:
REMARK  status: ('A' for Active; 'I' for Inactive)
REMARK    1  A    between atoms: N1_1  and  C1_2 
REMARK    2  A    between atoms: C1_2  and  C2_3 
REMARK    3  A    between atoms: C1_2  and  C12_16 
REMARK    4  A    between atoms: C5_6  and  N2_7 
REMARK    5  A    between atoms: N2_7  and  C6_8 
REMARK    6  A    between atoms: N2_7  and  C8_11 
REMARK    7  A    between atoms: C6_8  and  C7_9 
REMARK    8  A    between atoms: C8_11  and  C9_12 
ROOT
HETATM    1  C2  UNL     1      25.727   1.552  51.663  1.00  0.00    -0.025 A 
HETATM    2  C3  UNL     1      26.308   2.350  50.699  1.00  0.00     0.011 A 
HETATM    3  C4  UNL     1      25.496   3.182  49.959  1.00  0.00     0.030 A 
HETATM    4  C5  UNL     1      24.131   3.303  50.085  1.00  0.00     0.030 A 
HETATM    5  C10 UNL     1      23.615   2.483  51.061  1.00  0.00     0.030 A 
HETATM    6  C11 UNL     1      24.360   1.625  51.841  1.00  0.00     0.011 A 
ENDROOT
BRANCH   1   7
HETATM    7  C1  UNL     1      26.551   0.616  52.487  1.00  0.00     0.262 C 
BRANCH   7   8
HETATM    8  N1  UNL     1      25.760  -0.516  52.915  1.00  0.00     0.088 N 
HETATM    9  H1  UNL     1      24.951  -0.239  53.518  1.00  0.00     0.313 HD
HETATM   10  H2  UNL     1      26.371  -1.251  53.353  1.00  0.00     0.313 HD
ENDBRANCH   7   8
BRANCH   7  11
HETATM   11  C12 UNL     1      27.118   1.292  53.701  1.00  0.00     0.092 C 
HETATM   12  C13 UNL     1      27.247   0.278  54.809  1.00  0.00     0.015 C 
HETATM   13  C14 UNL     1      28.686  -0.190  54.766  1.00  0.00     0.008 C 
HETATM   14  C15 UNL     1      29.277   0.556  53.604  1.00  0.00     0.079 C 
HETATM   15  C16 UNL     1      28.488   1.823  53.463  1.00  0.00     0.133 C 
HETATM   16  O1  UNL     1      29.007   2.914  53.218  1.00  0.00    -0.298 OA
ENDBRANCH   7  11
ENDBRANCH   1   7
BRANCH   4  17
HETATM   17  N2  UNL     1      23.335   4.169  49.302  1.00  0.00    -0.379 N 
BRANCH  17  18
HETATM   18  C6  UNL     1      23.707   5.523  48.987  1.00  0.00     0.138 C 
BRANCH  18  19
HETATM   19  C7  UNL     1      23.804   6.363  50.260  1.00  0.00     0.134 C 
HETATM   20 CL1  UNL     1      22.192   6.346  51.015  1.00  0.00    -0.129 Cl
ENDBRANCH  18  19
ENDBRANCH  17  18
BRANCH  17  21
HETATM   21  C8  UNL     1      22.080   3.784  48.735  1.00  0.00     0.138 C 
BRANCH  21  22
HETATM   22  C9  UNL     1      22.302   2.702  47.707  1.00  0.00     0.134 C 
HETATM   23 CL2  UNL     1      21.671   1.164  48.382  1.00  0.00    -0.129 Cl
ENDBRANCH  21  22
ENDBRANCH  17  21
ENDBRANCH   4  17
TORSDOF 8
ENDMDL
