MODEL 1
REMARK VINA RESULT:      -9.4      0.000      0.000
REMARK  6 active torsions:
REMARK  status: ('A' for Active; 'I' for Inactive)
REMARK    1  A    between atoms: C2_2  and  O1_3 
REMARK    2  A    between atoms: O1_3  and  C3_4 
REMARK    3  A    between atoms: C7_10  and  N3_11 
REMARK    4  A    between atoms: N3_11  and  C8_12 
REMARK    5  A    between atoms: C18_22  and  N4_23 
REMARK       I    between atoms: N4_23  and  C19_24 
REMARK    6  A    between atoms: C19_24  and  C20_26 
ROOT
HETATM    1  C3  UNL     1      23.150   1.383  52.992  1.00  0.00     0.097 A 
HETATM    2  C4  UNL     1      21.981   1.884  52.453  1.00  0.00     0.071 A 
HETATM    3  C5  UNL     1      21.882   3.200  52.006  1.00  0.00     0.075 A 
HETATM    4  N1  UNL     1      20.720   3.669  51.480  1.00  0.00    -0.241 NA
HETATM    5  C6  UNL     1      20.696   4.967  51.062  1.00  0.00     0.235 A 
HETATM    6  N2  UNL     1      21.783   5.790  51.156  1.00  0.00    -0.224 NA
HETATM    7  C7  UNL     1      22.951   5.365  51.670  1.00  0.00     0.138 A 
HETATM    8  C16 UNL     1      22.939   4.049  52.081  1.00  0.00     0.041 A 
HETATM    9  C17 UNL     1      24.093   3.532  52.620  1.00  0.00     0.050 A 
HETATM   10  C18 UNL     1      24.235   2.238  53.075  1.00  0.00     0.069 A 
ENDROOT
BRANCH  10  11
HETATM   11  N4  UNL     1      25.445   1.732  53.628  1.00  0.00    -0.323 N 
HETATM   12  C19 UNL     1      26.364   1.178  52.679  1.00  0.00     0.247 C 
HETATM   13  O2  UNL     1      26.048   1.177  51.464  1.00  0.00    -0.271 OA
HETATM   14  H19 UNL     1      25.784   1.692  54.608  1.00  0.00     0.169 HD
BRANCH  12  15
HETATM   15  C20 UNL     1      27.698   0.577  52.953  1.00  0.00     0.203 C 
HETATM   16  C21 UNL     1      27.886   0.543  54.452  1.00  0.00     0.215 C 
HETATM   17  O3  UNL     1      28.797  -0.530  54.627  1.00  0.00    -0.301 OA
HETATM   18  C22 UNL     1      28.647  -1.425  53.563  1.00  0.00     0.361 C 
HETATM   19  O4  UNL     1      29.235  -2.542  53.454  1.00  0.00    -0.238 OA
HETATM   20  N5  UNL     1      27.715  -0.837  52.640  1.00  0.00    -0.321 N 
HETATM   21  H23 UNL     1      27.200  -1.396  51.922  1.00  0.00     0.165 HD
ENDBRANCH  12  15
ENDBRANCH  10  11
BRANCH   1  22
HETATM   22  O1  UNL     1      23.256   0.083  53.437  1.00  0.00    -0.349 OA
BRANCH  22  23
HETATM   23  C2  UNL     1      22.248  -0.883  53.428  1.00  0.00     0.171 C 
HETATM   24  C1  UNL     1      21.776  -1.132  54.857  1.00  0.00     0.034 C 
ENDBRANCH  22  23
ENDBRANCH   1  22
BRANCH   7  25
HETATM   25  N3  UNL     1      24.056   6.253  51.749  1.00  0.00    -0.363 N 
HETATM   26  H8  UNL     1      24.457   6.648  52.624  1.00  0.00     0.162 HD
BRANCH  25  27
HETATM   27  C8  UNL     1      24.637   6.607  50.468  1.00  0.00     0.130 C 
HETATM   28  C9  UNL     1      25.414   7.886  50.576  1.00  0.00     0.002 C 
HETATM   29  C10 UNL     1      26.473   8.380  49.955  1.00  0.00    -0.002 C 
HETATM   30  C11 UNL     1      27.273   7.775  48.881  1.00  0.00     0.000 C 
HETATM   31  C12 UNL     1      27.312   6.490  48.565  1.00  0.00     0.006 C 
HETATM   32  C13 UNL     1      26.580   5.398  49.203  1.00  0.00    -0.064 C 
HETATM   33  C14 UNL     1      27.082   4.003  48.990  1.00  0.00     0.048 C 
HETATM   34  C15 UNL     1      25.502   5.497  49.964  1.00  0.00     0.009 C 
ENDBRANCH  25  27
ENDBRANCH   7  25
TORSDOF 6
ENDMDL
MODEL 2
REMARK VINA RESULT:      -8.9      1.060      1.188
REMARK  6 active torsions:
REMARK  status: ('A' for Active; 'I' for Inactive)
REMARK    1  A    between atoms: C2_2  and  O1_3 
REMARK    2  A    between atoms: O1_3  and  C3_4 
REMARK    3  A    between atoms: C7_10  and  N3_11 
REMARK    4  A    between atoms: N3_11  and  C8_12 
REMARK    5  A    between atoms: C18_22  and  N4_23 
REMARK       I    between atoms: N4_23  and  C19_24 
REMARK    6  A    between atoms: C19_24  and  C20_26 
ROOT
HETATM    1  C3  UNL     1      22.511   2.465  52.536  1.00  0.00     0.097 A 
HETATM    2  C4  UNL     1      21.521   3.216  51.933  1.00  0.00     0.071 A 
HETATM    3  C5  UNL     1      21.752   4.515  51.486  1.00  0.00     0.075 A 
HETATM    4  N1  UNL     1      20.761   5.234  50.896  1.00  0.00    -0.241 NA
HETATM    5  C6  UNL     1      21.059   6.499  50.483  1.00  0.00     0.235 A 
HETATM    6  N2  UNL     1      22.299   7.051  50.643  1.00  0.00    -0.224 NA
HETATM    7  C7  UNL     1      23.306   6.374  51.222  1.00  0.00     0.138 A 
HETATM    8  C16 UNL     1      22.970   5.100  51.626  1.00  0.00     0.041 A 
HETATM    9  C17 UNL     1      23.941   4.337  52.229  1.00  0.00     0.050 A 
HETATM   10  C18 UNL     1      23.756   3.049  52.685  1.00  0.00     0.069 A 
ENDROOT
BRANCH  10  11
HETATM   11  N4  UNL     1      24.784   2.284  53.305  1.00  0.00    -0.323 N 
HETATM   12  C19 UNL     1      25.694   1.642  52.404  1.00  0.00     0.247 C 
HETATM   13  O2  UNL     1      25.526   1.794  51.169  1.00  0.00    -0.271 OA
HETATM   14  H19 UNL     1      24.994   2.106  54.306  1.00  0.00     0.169 HD
BRANCH  12  15
HETATM   15  C20 UNL     1      26.859   0.783  52.751  1.00  0.00     0.203 C 
HETATM   16  C21 UNL     1      26.778   0.477  54.228  1.00  0.00     0.215 C 
HETATM   17  O3  UNL     1      27.478  -0.753  54.331  1.00  0.00    -0.301 OA
HETATM   18  C22 UNL     1      27.385  -1.425  53.109  1.00  0.00     0.361 C 
HETATM   19  O4  UNL     1      27.814  -2.596  52.880  1.00  0.00    -0.238 OA
HETATM   20  N5  UNL     1      26.722  -0.545  52.186  1.00  0.00    -0.321 N 
HETATM   21  H23 UNL     1      26.263  -0.883  51.311  1.00  0.00     0.165 HD
ENDBRANCH  12  15
ENDBRANCH  10  11
BRANCH   1  22
HETATM   22  O1  UNL     1      22.290   1.180  52.980  1.00  0.00    -0.349 OA
BRANCH  22  23
HETATM   23  C2  UNL     1      21.143   0.707  53.622  1.00  0.00     0.171 C 
HETATM   24  C1  UNL     1      21.525  -0.432  54.562  1.00  0.00     0.034 C 
ENDBRANCH  22  23
ENDBRANCH   1  22
BRANCH   7  25
HETATM   25  N3  UNL     1      24.580   6.986  51.368  1.00  0.00    -0.363 N 
HETATM   26  H8  UNL     1      25.040   7.224  52.271  1.00  0.00     0.162 HD
BRANCH  25  27
HETATM   27  C8  UNL     1      25.252   7.283  50.118  1.00  0.00     0.130 C 
HETATM   28  C9  UNL     1      26.168   8.461  50.278  1.00  0.00     0.002 C 
HETATM   29  C10 UNL     1      27.303   8.835  49.710  1.00  0.00    -0.002 C 
HETATM   30  C11 UNL     1      28.072   8.152  48.660  1.00  0.00     0.000 C 
HETATM   31  C12 UNL     1      27.976   6.875  48.327  1.00  0.00     0.006 C 
HETATM   32  C13 UNL     1      27.095   5.869  48.916  1.00  0.00    -0.064 C 
HETATM   33  C14 UNL     1      27.439   4.427  48.703  1.00  0.00     0.048 C 
HETATM   34  C15 UNL     1      26.004   6.085  49.633  1.00  0.00     0.009 C 
ENDBRANCH  25  27
ENDBRANCH   7  25
TORSDOF 6
ENDMDL
MODEL 3
REMARK VINA RESULT:      -8.9      3.301      7.267
REMARK  6 active torsions:
REMARK  status: ('A' for Active; 'I' for Inactive)
REMARK    1  A    between atoms: C2_2  and  O1_3 
REMARK    2  A    between atoms: O1_3  and  C3_4 
REMARK    3  A    between atoms: C7_10  and  N3_11 
REMARK    4  A    between atoms: N3_11  and  C8_12 
REMARK    5  A    between atoms: C18_22  and  N4_23 
REMARK       I    between atoms: N4_23  and  C19_24 
REMARK    6  A    between atoms: C19_24  and  C20_26 
ROOT
HETATM    1  C3  UNL     1      20.541   2.075  52.702  1.00  0.00     0.097 A 
HETATM    2  C4  UNL     1      20.516   1.111  53.690  1.00  0.00     0.071 A 
HETATM    3  C5  UNL     1      21.626   0.319  53.974  1.00  0.00     0.075 A 
HETATM    4  N1  UNL     1      21.577  -0.624  54.952  1.00  0.00    -0.241 NA
HETATM    5  C6  UNL     1      22.702  -1.361  55.176  1.00  0.00     0.235 A 
HETATM    6  N2  UNL     1      23.852  -1.182  54.459  1.00  0.00    -0.224 NA
HETATM    7  C7  UNL     1      23.943  -0.260  53.485  1.00  0.00     0.138 A 
HETATM    8  C16 UNL     1      22.789   0.466  53.286  1.00  0.00     0.041 A 
HETATM    9  C17 UNL     1      22.793   1.430  52.307  1.00  0.00     0.050 A 
HETATM   10  C18 UNL     1      21.719   2.235  51.993  1.00  0.00     0.069 A 
ENDROOT
BRANCH  10  11
HETATM   11  N4  UNL     1      21.755   3.226  50.972  1.00  0.00    -0.323 N 
HETATM   12  C19 UNL     1      22.438   4.437  51.323  1.00  0.00     0.247 C 
HETATM   13  O2  UNL     1      22.940   4.535  52.470  1.00  0.00    -0.271 OA
HETATM   14  H19 UNL     1      21.372   3.229  50.008  1.00  0.00     0.169 HD
BRANCH  12  15
HETATM   15  C20 UNL     1      22.639   5.642  50.474  1.00  0.00     0.203 C 
HETATM   16  C21 UNL     1      21.638   6.685  50.915  1.00  0.00     0.215 C 
HETATM   17  O3  UNL     1      22.269   7.900  50.542  1.00  0.00    -0.301 OA
HETATM   18  C22 UNL     1      23.654   7.703  50.537  1.00  0.00     0.361 C 
HETATM   19  O4  UNL     1      24.523   8.605  50.344  1.00  0.00    -0.238 OA
HETATM   20  N5  UNL     1      23.887   6.307  50.788  1.00  0.00    -0.321 N 
HETATM   21  H23 UNL     1      24.805   5.938  51.126  1.00  0.00     0.165 HD
ENDBRANCH  12  15
ENDBRANCH  10  11
BRANCH   1  22
HETATM   22  O1  UNL     1      19.447   2.861  52.415  1.00  0.00    -0.349 OA
BRANCH  22  23
HETATM   23  C2  UNL     1      18.573   2.708  51.336  1.00  0.00     0.171 C 
HETATM   24  C1  UNL     1      17.801   1.402  51.494  1.00  0.00     0.034 C 
ENDBRANCH  22  23
ENDBRANCH   1  22
BRANCH   7  25
HETATM   25  N3  UNL     1      25.158  -0.107  52.765  1.00  0.00    -0.363 N 
HETATM   26  H8  UNL     1      25.244   0.196  51.773  1.00  0.00     0.162 HD
BRANCH  25  27
HETATM   27  C8  UNL     1      26.352  -0.414  53.528  1.00  0.00     0.130 C 
HETATM   28  C9  UNL     1      27.082  -1.577  52.921  1.00  0.00     0.002 C 
HETATM   29  C10 UNL     1      28.352  -1.943  52.863  1.00  0.00    -0.002 C 
HETATM   30  C11 UNL     1      29.530  -1.266  53.424  1.00  0.00     0.000 C 
HETATM   31  C12 UNL     1      29.600   0.004  53.788  1.00  0.00     0.006 C 
HETATM   32  C13 UNL     1      28.540   1.007  53.719  1.00  0.00    -0.064 C 
HETATM   33  C14 UNL     1      28.938   2.449  53.768  1.00  0.00     0.048 C 
HETATM   34  C15 UNL     1      27.239   0.787  53.614  1.00  0.00     0.009 C 
ENDBRANCH  25  27
ENDBRANCH   7  25
TORSDOF 6
ENDMDL
MODEL 4
REMARK VINA RESULT:      -8.8      2.833      7.159
REMARK  6 active torsions:
REMARK  status: ('A' for Active; 'I' for Inactive)
REMARK    1  A    between atoms: C2_2  and  O1_3 
REMARK    2  A    between atoms: O1_3  and  C3_4 
REMARK    3  A    between atoms: C7_10  and  N3_11 
REMARK    4  A    between atoms: N3_11  and  C8_12 
REMARK    5  A    between atoms: C18_22  and  N4_23 
REMARK       I    between atoms: N4_23  and  C19_24 
REMARK    6  A    between atoms: C19_24  and  C20_26 
ROOT
HETATM    1  C3  UNL     1      27.047   0.694  53.346  1.00  0.00     0.097 A 
HETATM    2  C4  UNL     1      26.611   0.038  54.480  1.00  0.00     0.071 A 
HETATM    3  C5  UNL     1      25.307  -0.435  54.601  1.00  0.00     0.075 A 
HETATM    4  N1  UNL     1      24.901  -1.078  55.727  1.00  0.00    -0.241 NA
HETATM    5  C6  UNL     1      23.610  -1.514  55.776  1.00  0.00     0.235 A 
HETATM    6  N2  UNL     1      22.732  -1.326  54.745  1.00  0.00    -0.224 NA
HETATM    7  C7  UNL     1      23.093  -0.696  53.613  1.00  0.00     0.138 A 
HETATM    8  C16 UNL     1      24.404  -0.269  53.599  1.00  0.00     0.041 A 
HETATM    9  C17 UNL     1      24.857   0.386  52.479  1.00  0.00     0.050 A 
HETATM   10  C18 UNL     1      26.138   0.870  52.317  1.00  0.00     0.069 A 
ENDROOT
BRANCH  10  11
HETATM   11  N4  UNL     1      26.577   1.544  51.144  1.00  0.00    -0.323 N 
HETATM   12  C19 UNL     1      25.830   2.718  50.799  1.00  0.00     0.247 C 
HETATM   13  O2  UNL     1      24.869   3.057  51.534  1.00  0.00    -0.271 OA
HETATM   14  H19 UNL     1      27.352   1.336  50.485  1.00  0.00     0.169 HD
BRANCH  12  15
HETATM   15  C20 UNL     1      26.049   3.624  49.639  1.00  0.00     0.203 C 
HETATM   16  C21 UNL     1      24.731   4.294  49.326  1.00  0.00     0.215 C 
HETATM   17  O3  UNL     1      25.137   5.502  48.702  1.00  0.00    -0.301 OA
HETATM   18  C22 UNL     1      26.409   5.844  49.170  1.00  0.00     0.361 C 
HETATM   19  O4  UNL     1      27.030   6.914  48.894  1.00  0.00    -0.238 OA
HETATM   20  N5  UNL     1      26.860   4.766  50.007  1.00  0.00    -0.321 N 
HETATM   21  H23 UNL     1      27.625   4.877  50.711  1.00  0.00     0.165 HD
ENDBRANCH  12  15
ENDBRANCH  10  11
BRANCH   1  22
HETATM   22  O1  UNL     1      28.336   1.165  53.219  1.00  0.00    -0.349 OA
BRANCH  22  23
HETATM   23  C2  UNL     1      29.445   0.765  53.968  1.00  0.00     0.171 C 
HETATM   24  C1  UNL     1      29.922  -0.597  53.476  1.00  0.00     0.034 C 
ENDBRANCH  22  23
ENDBRANCH   1  22
BRANCH   7  25
HETATM   25  N3  UNL     1      22.149  -0.522  52.566  1.00  0.00    -0.363 N 
HETATM   26  H8  UNL     1      22.161  -1.014  51.649  1.00  0.00     0.162 HD
BRANCH  25  27
HETATM   27  C8  UNL     1      21.099   0.435  52.855  1.00  0.00     0.130 C 
HETATM   28  C9  UNL     1      21.558   1.831  52.547  1.00  0.00     0.002 C 
HETATM   29  C10 UNL     1      20.951   2.939  52.154  1.00  0.00    -0.002 C 
HETATM   30  C11 UNL     1      19.524   3.155  51.879  1.00  0.00     0.000 C 
HETATM   31  C12 UNL     1      18.625   2.216  51.631  1.00  0.00     0.006 C 
HETATM   32  C13 UNL     1      18.843   0.773  51.577  1.00  0.00    -0.064 C 
HETATM   33  C14 UNL     1      17.820  -0.062  50.871  1.00  0.00     0.048 C 
HETATM   34  C15 UNL     1      19.861   0.099  52.088  1.00  0.00     0.009 C 
ENDBRANCH  25  27
ENDBRANCH   7  25
TORSDOF 6
ENDMDL
MODEL 5
REMARK VINA RESULT:      -8.8      2.159      6.436
REMARK  6 active torsions:
REMARK  status: ('A' for Active; 'I' for Inactive)
REMARK    1  A    between atoms: C2_2  and  O1_3 
REMARK    2  A    between atoms: O1_3  and  C3_4 
REMARK    3  A    between atoms: C7_10  and  N3_11 
REMARK    4  A    between atoms: N3_11  and  C8_12 
REMARK    5  A    between atoms: C18_22  and  N4_23 
REMARK       I    between atoms: N4_23  and  C19_24 
REMARK    6  A    between atoms: C19_24  and  C20_26 
ROOT
HETATM    1  C3  UNL     1      24.468   4.244  50.312  1.00  0.00     0.097 A 
HETATM    2  C4  UNL     1      23.490   4.438  49.356  1.00  0.00     0.071 A 
HETATM    3  C5  UNL     1      22.169   4.051  49.567  1.00  0.00     0.075 A 
HETATM    4  N1  UNL     1      21.225   4.253  48.610  1.00  0.00    -0.241 NA
HETATM    5  C6  UNL     1      19.951   3.849  48.885  1.00  0.00     0.235 A 
HETATM    6  N2  UNL     1      19.607   3.260  50.070  1.00  0.00    -0.224 NA
HETATM    7  C7  UNL     1      20.510   3.043  51.042  1.00  0.00     0.138 A 
HETATM    8  C16 UNL     1      21.785   3.463  50.730  1.00  0.00     0.041 A 
HETATM    9  C17 UNL     1      22.773   3.279  51.668  1.00  0.00     0.050 A 
HETATM   10  C18 UNL     1      24.092   3.646  51.502  1.00  0.00     0.069 A 
ENDROOT
BRANCH  10  11
HETATM   11  N4  UNL     1      25.092   3.441  52.493  1.00  0.00    -0.323 N 
HETATM   12  C19 UNL     1      25.575   2.097  52.604  1.00  0.00     0.247 C 
HETATM   13  O2  UNL     1      25.096   1.220  51.843  1.00  0.00    -0.271 OA
HETATM   14  H19 UNL     1      25.540   4.101  53.158  1.00  0.00     0.169 HD
BRANCH  12  15
HETATM   15  C20 UNL     1      26.610   1.580  53.541  1.00  0.00     0.203 C 
HETATM   16  C21 UNL     1      27.540   0.690  52.749  1.00  0.00     0.215 C 
HETATM   17  O3  UNL     1      28.746   0.761  53.492  1.00  0.00    -0.301 OA
HETATM   18  C22 UNL     1      28.781   1.981  54.175  1.00  0.00     0.361 C 
HETATM   19  O4  UNL     1      29.759   2.413  54.856  1.00  0.00    -0.238 OA
HETATM   20  N5  UNL     1      27.518   2.630  53.955  1.00  0.00    -0.321 N 
HETATM   21  H23 UNL     1      27.377   3.656  54.093  1.00  0.00     0.165 HD
ENDBRANCH  12  15
ENDBRANCH  10  11
BRANCH   1  22
HETATM   22  O1  UNL     1      25.777   4.624  50.111  1.00  0.00    -0.349 OA
BRANCH  22  23
HETATM   23  C2  UNL     1      26.742   3.928  49.380  1.00  0.00     0.171 C 
HETATM   24  C1  UNL     1      27.631   4.924  48.642  1.00  0.00     0.034 C 
ENDBRANCH  22  23
ENDBRANCH   1  22
BRANCH   7  25
HETATM   25  N3  UNL     1      20.110   2.428  52.258  1.00  0.00    -0.363 N 
HETATM   26  H8  UNL     1      19.639   2.905  53.054  1.00  0.00     0.162 HD
BRANCH  25  27
HETATM   27  C8  UNL     1      20.408   1.011  52.343  1.00  0.00     0.130 C 
HETATM   28  C9  UNL     1      21.391   0.744  53.446  1.00  0.00     0.002 C 
HETATM   29  C10 UNL     1      21.618  -0.278  54.254  1.00  0.00    -0.002 C 
HETATM   30  C11 UNL     1      20.920  -1.569  54.320  1.00  0.00     0.000 C 
HETATM   31  C12 UNL     1      19.717  -1.833  53.835  1.00  0.00     0.006 C 
HETATM   32  C13 UNL     1      18.824  -0.914  53.133  1.00  0.00    -0.064 C 
HETATM   33  C14 UNL     1      17.373  -1.274  53.053  1.00  0.00     0.048 C 
HETATM   34  C15 UNL     1      19.152   0.225  52.545  1.00  0.00     0.009 C 
ENDBRANCH  25  27
ENDBRANCH   7  25
TORSDOF 6
ENDMDL
MODEL 6
REMARK VINA RESULT:      -8.6      3.402      7.879
REMARK  6 active torsions:
REMARK  status: ('A' for Active; 'I' for Inactive)
REMARK    1  A    between atoms: C2_2  and  O1_3 
REMARK    2  A    between atoms: O1_3  and  C3_4 
REMARK    3  A    between atoms: C7_10  and  N3_11 
REMARK    4  A    between atoms: N3_11  and  C8_12 
REMARK    5  A    between atoms: C18_22  and  N4_23 
REMARK       I    between atoms: N4_23  and  C19_24 
REMARK    6  A    between atoms: C19_24  and  C20_26 
ROOT
HETATM    1  C3  UNL     1      25.350   0.912  52.436  1.00  0.00     0.097 A 
HETATM    2  C4  UNL     1      25.206  -0.034  53.430  1.00  0.00     0.071 A 
HETATM    3  C5  UNL     1      23.958  -0.370  53.951  1.00  0.00     0.075 A 
HETATM    4  N1  UNL     1      23.841  -1.305  54.930  1.00  0.00    -0.241 NA
HETATM    5  C6  UNL     1      22.588  -1.583  55.391  1.00  0.00     0.235 A 
HETATM    6  N2  UNL     1      21.472  -0.961  54.906  1.00  0.00    -0.224 NA
HETATM    7  C7  UNL     1      21.544  -0.031  53.938  1.00  0.00     0.138 A 
HETATM    8  C16 UNL     1      22.824   0.225  53.496  1.00  0.00     0.041 A 
HETATM    9  C17 UNL     1      22.989   1.164  52.506  1.00  0.00     0.050 A 
HETATM   10  C18 UNL     1      24.204   1.526  51.963  1.00  0.00     0.069 A 
ENDROOT
BRANCH  10  11
HETATM   11  N4  UNL     1      24.342   2.503  50.938  1.00  0.00    -0.323 N 
HETATM   12  C19 UNL     1      24.204   3.863  51.369  1.00  0.00     0.247 C 
HETATM   13  O2  UNL     1      23.978   4.090  52.583  1.00  0.00    -0.271 OA
HETATM   14  H19 UNL     1      24.528   2.406  49.921  1.00  0.00     0.169 HD
BRANCH  12  15
HETATM   15  C20 UNL     1      24.297   5.092  50.534  1.00  0.00     0.203 C 
HETATM   16  C21 UNL     1      23.683   6.227  51.320  1.00  0.00     0.215 C 
HETATM   17  O3  UNL     1      24.337   7.366  50.785  1.00  0.00    -0.301 OA
HETATM   18  C22 UNL     1      25.589   6.978  50.298  1.00  0.00     0.361 C 
HETATM   19  O4  UNL     1      26.474   7.761  49.842  1.00  0.00    -0.238 OA
HETATM   20  N5  UNL     1      25.668   5.548  50.417  1.00  0.00    -0.321 N 
HETATM   21  H23 UNL     1      26.574   5.028  50.409  1.00  0.00     0.165 HD
ENDBRANCH  12  15
ENDBRANCH  10  11
BRANCH   1  22
HETATM   22  O1  UNL     1      26.581   1.250  51.917  1.00  0.00    -0.349 OA
BRANCH  22  23
HETATM   23  C2  UNL     1      27.821   1.082  52.538  1.00  0.00     0.171 C 
HETATM   24  C1  UNL     1      28.138   2.320  53.371  1.00  0.00     0.034 C 
ENDBRANCH  22  23
ENDBRANCH   1  22
BRANCH   7  25
HETATM   25  N3  UNL     1      20.358   0.591  53.462  1.00  0.00    -0.363 N 
HETATM   26  H8  UNL     1      20.018   1.537  53.732  1.00  0.00     0.162 HD
BRANCH  25  27
HETATM   27  C8  UNL     1      19.595  -0.207  52.523  1.00  0.00     0.130 C 
HETATM   28  C9  UNL     1      18.425  -0.853  53.208  1.00  0.00     0.002 C 
HETATM   29  C10 UNL     1      17.217  -1.226  52.820  1.00  0.00    -0.002 C 
HETATM   30  C11 UNL     1      16.604  -1.111  51.489  1.00  0.00     0.000 C 
HETATM   31  C12 UNL     1      16.997  -0.307  50.515  1.00  0.00     0.006 C 
HETATM   32  C13 UNL     1      18.114   0.635  50.539  1.00  0.00    -0.064 C 
HETATM   33  C14 UNL     1      18.124   1.734  49.522  1.00  0.00     0.048 C 
HETATM   34  C15 UNL     1      19.142   0.633  51.372  1.00  0.00     0.009 C 
ENDBRANCH  25  27
ENDBRANCH   7  25
TORSDOF 6
ENDMDL
MODEL 7
REMARK VINA RESULT:      -8.5      2.210      6.215
REMARK  6 active torsions:
REMARK  status: ('A' for Active; 'I' for Inactive)
REMARK    1  A    between atoms: C2_2  and  O1_3 
REMARK    2  A    between atoms: O1_3  and  C3_4 
REMARK    3  A    between atoms: C7_10  and  N3_11 
REMARK    4  A    between atoms: N3_11  and  C8_12 
REMARK    5  A    between atoms: C18_22  and  N4_23 
REMARK       I    between atoms: N4_23  and  C19_24 
REMARK    6  A    between atoms: C19_24  and  C20_26 
ROOT
HETATM    1  C3  UNL     1      25.527   4.622  49.504  1.00  0.00     0.097 A 
HETATM    2  C4  UNL     1      24.433   5.352  49.084  1.00  0.00     0.071 A 
HETATM    3  C5  UNL     1      23.152   4.806  49.054  1.00  0.00     0.075 A 
HETATM    4  N1  UNL     1      22.090   5.545  48.637  1.00  0.00    -0.241 NA
HETATM    5  C6  UNL     1      20.865   4.945  48.635  1.00  0.00     0.235 A 
HETATM    6  N2  UNL     1      20.680   3.651  49.032  1.00  0.00    -0.224 NA
HETATM    7  C7  UNL     1      21.703   2.886  49.453  1.00  0.00     0.138 A 
HETATM    8  C16 UNL     1      22.925   3.523  49.442  1.00  0.00     0.041 A 
HETATM    9  C17 UNL     1      24.027   2.814  49.856  1.00  0.00     0.050 A 
HETATM   10  C18 UNL     1      25.311   3.313  49.901  1.00  0.00     0.069 A 
ENDROOT
BRANCH  10  11
HETATM   11  N4  UNL     1      26.432   2.553  50.336  1.00  0.00    -0.323 N 
HETATM   12  C19 UNL     1      26.476   2.281  51.743  1.00  0.00     0.247 C 
HETATM   13  O2  UNL     1      25.551   2.721  52.470  1.00  0.00    -0.271 OA
HETATM   14  H19 UNL     1      27.233   2.154  49.810  1.00  0.00     0.169 HD
BRANCH  12  15
HETATM   15  C20 UNL     1      27.514   1.517  52.487  1.00  0.00     0.203 C 
HETATM   16  C21 UNL     1      28.158   2.462  53.475  1.00  0.00     0.215 C 
HETATM   17  O3  UNL     1      28.623   1.584  54.487  1.00  0.00    -0.301 OA
HETATM   18  C22 UNL     1      27.822   0.438  54.492  1.00  0.00     0.361 C 
HETATM   19  O4  UNL     1      27.897  -0.507  55.332  1.00  0.00    -0.238 OA
HETATM   20  N5  UNL     1      26.916   0.547  53.381  1.00  0.00    -0.321 N 
HETATM   21  H23 UNL     1      26.030  -0.003  53.316  1.00  0.00     0.165 HD
ENDBRANCH  12  15
ENDBRANCH  10  11
BRANCH   1  22
HETATM   22  O1  UNL     1      26.797   5.155  49.536  1.00  0.00    -0.349 OA
BRANCH  22  23
HETATM   23  C2  UNL     1      27.562   5.549  48.435  1.00  0.00     0.171 C 
HETATM   24  C1  UNL     1      27.725   7.065  48.453  1.00  0.00     0.034 C 
ENDBRANCH  22  23
ENDBRANCH   1  22
BRANCH   7  25
HETATM   25  N3  UNL     1      21.466   1.545  49.857  1.00  0.00    -0.363 N 
HETATM   26  H8  UNL     1      21.595   0.699  49.265  1.00  0.00     0.162 HD
BRANCH  25  27
HETATM   27  C8  UNL     1      21.006   1.402  51.225  1.00  0.00     0.130 C 
HETATM   28  C9  UNL     1      19.701   0.661  51.267  1.00  0.00     0.002 C 
HETATM   29  C10 UNL     1      19.119  -0.138  52.146  1.00  0.00    -0.002 C 
HETATM   30  C11 UNL     1      19.617  -0.578  53.457  1.00  0.00     0.000 C 
HETATM   31  C12 UNL     1      20.875  -0.551  53.864  1.00  0.00     0.006 C 
HETATM   32  C13 UNL     1      22.039  -0.082  53.115  1.00  0.00    -0.064 C 
HETATM   33  C14 UNL     1      23.392  -0.527  53.575  1.00  0.00     0.048 C 
HETATM   34  C15 UNL     1      22.039   0.708  52.053  1.00  0.00     0.009 C 
ENDBRANCH  25  27
ENDBRANCH   7  25
TORSDOF 6
ENDMDL
MODEL 8
REMARK VINA RESULT:      -8.4      2.818      7.098
REMARK  6 active torsions:
REMARK  status: ('A' for Active; 'I' for Inactive)
REMARK    1  A    between atoms: C2_2  and  O1_3 
REMARK    2  A    between atoms: O1_3  and  C3_4 
REMARK    3  A    between atoms: C7_10  and  N3_11 
REMARK    4  A    between atoms: N3_11  and  C8_12 
REMARK    5  A    between atoms: C18_22  and  N4_23 
REMARK       I    between atoms: N4_23  and  C19_24 
REMARK    6  A    between atoms: C19_24  and  C20_26 
ROOT
HETATM    1  C3  UNL     1      22.623   3.378  50.896  1.00  0.00     0.097 A 
HETATM    2  C4  UNL     1      22.101   2.123  51.142  1.00  0.00     0.071 A 
HETATM    3  C5  UNL     1      22.717   1.228  52.013  1.00  0.00     0.075 A 
HETATM    4  N1  UNL     1      22.184  -0.002  52.239  1.00  0.00    -0.241 NA
HETATM    5  C6  UNL     1      22.840  -0.825  53.106  1.00  0.00     0.235 A 
HETATM    6  N2  UNL     1      23.993  -0.455  53.739  1.00  0.00    -0.224 NA
HETATM    7  C7  UNL     1      24.553   0.751  53.545  1.00  0.00     0.138 A 
HETATM    8  C16 UNL     1      23.864   1.557  52.664  1.00  0.00     0.041 A 
HETATM    9  C17 UNL     1      24.366   2.809  52.406  1.00  0.00     0.050 A 
HETATM   10  C18 UNL     1      23.791   3.726  51.551  1.00  0.00     0.069 A 
ENDROOT
BRANCH  10  11
HETATM   11  N4  UNL     1      24.337   5.016  51.305  1.00  0.00    -0.323 N 
HETATM   12  C19 UNL     1      25.227   5.099  50.185  1.00  0.00     0.247 C 
HETATM   13  O2  UNL     1      25.456   4.059  49.521  1.00  0.00    -0.271 OA
HETATM   14  H19 UNL     1      24.203   5.921  51.798  1.00  0.00     0.169 HD
BRANCH  12  15
HETATM   15  C20 UNL     1      25.946   6.303  49.685  1.00  0.00     0.203 C 
HETATM   16  C21 UNL     1      25.075   6.953  48.635  1.00  0.00     0.215 C 
HETATM   17  O3  UNL     1      25.491   8.308  48.681  1.00  0.00    -0.301 OA
HETATM   18  C22 UNL     1      25.983   8.584  49.961  1.00  0.00     0.361 C 
HETATM   19  O4  UNL     1      26.347   9.723  50.378  1.00  0.00    -0.238 OA
HETATM   20  N5  UNL     1      25.991   7.345  50.690  1.00  0.00    -0.321 N 
HETATM   21  H23 UNL     1      26.025   7.303  51.734  1.00  0.00     0.165 HD
ENDBRANCH  12  15
ENDBRANCH  10  11
BRANCH   1  22
HETATM   22  O1  UNL     1      22.020   4.268  50.034  1.00  0.00    -0.349 OA
BRANCH  22  23
HETATM   23  C2  UNL     1      20.944   5.110  50.327  1.00  0.00     0.171 C 
HETATM   24  C1  UNL     1      21.288   6.533  49.900  1.00  0.00     0.034 C 
ENDBRANCH  22  23
ENDBRANCH   1  22
BRANCH   7  25
HETATM   25  N3  UNL     1      25.752   1.095  54.224  1.00  0.00    -0.363 N 
HETATM   26  H8  UNL     1      25.816   1.475  55.190  1.00  0.00     0.162 HD
BRANCH  25  27
HETATM   27  C8  UNL     1      26.963   0.876  53.456  1.00  0.00     0.130 C 
HETATM   28  C9  UNL     1      28.134   1.542  54.117  1.00  0.00     0.002 C 
HETATM   29  C10 UNL     1      29.432   1.290  54.171  1.00  0.00    -0.002 C 
HETATM   30  C11 UNL     1      30.180   0.190  53.545  1.00  0.00     0.000 C 
HETATM   31  C12 UNL     1      29.671  -0.948  53.102  1.00  0.00     0.006 C 
HETATM   32  C13 UNL     1      28.271  -1.365  53.133  1.00  0.00    -0.064 C 
HETATM   33  C14 UNL     1      27.973  -2.825  52.987  1.00  0.00     0.048 C 
HETATM   34  C15 UNL     1      27.210  -0.587  53.278  1.00  0.00     0.009 C 
ENDBRANCH  25  27
ENDBRANCH   7  25
TORSDOF 6
ENDMDL
MODEL 9
REMARK VINA RESULT:      -8.4      2.705      3.936
REMARK  6 active torsions:
REMARK  status: ('A' for Active; 'I' for Inactive)
REMARK    1  A    between atoms: C2_2  and  O1_3 
REMARK    2  A    between atoms: O1_3  and  C3_4 
REMARK    3  A    between atoms: C7_10  and  N3_11 
REMARK    4  A    between atoms: N3_11  and  C8_12 
REMARK    5  A    between atoms: C18_22  and  N4_23 
REMARK       I    between atoms: N4_23  and  C19_24 
REMARK    6  A    between atoms: C19_24  and  C20_26 
ROOT
HETATM    1  C3  UNL     1      23.589   3.816  50.070  1.00  0.00     0.097 A 
HETATM    2  C4  UNL     1      23.190   4.634  49.032  1.00  0.00     0.071 A 
HETATM    3  C5  UNL     1      23.968   5.706  48.599  1.00  0.00     0.075 A 
HETATM    4  N1  UNL     1      23.553   6.497  47.575  1.00  0.00    -0.241 NA
HETATM    5  C6  UNL     1      24.366   7.527  47.204  1.00  0.00     0.235 A 
HETATM    6  N2  UNL     1      25.560   7.779  47.820  1.00  0.00    -0.224 NA
HETATM    7  C7  UNL     1      26.007   7.021  48.836  1.00  0.00     0.138 A 
HETATM    8  C16 UNL     1      25.161   5.990  49.184  1.00  0.00     0.041 A 
HETATM    9  C17 UNL     1      25.540   5.164  50.215  1.00  0.00     0.050 A 
HETATM   10  C18 UNL     1      24.802   4.094  50.676  1.00  0.00     0.069 A 
ENDROOT
BRANCH  10  11
HETATM   11  N4  UNL     1      25.223   3.257  51.746  1.00  0.00    -0.323 N 
HETATM   12  C19 UNL     1      26.339   2.406  51.453  1.00  0.00     0.247 C 
HETATM   13  O2  UNL     1      26.850   2.458  50.307  1.00  0.00    -0.271 OA
HETATM   14  H19 UNL     1      24.863   3.150  52.714  1.00  0.00     0.169 HD
BRANCH  12  15
HETATM   15  C20 UNL     1      26.998   1.430  52.362  1.00  0.00     0.203 C 
HETATM   16  C21 UNL     1      27.803   2.215  53.372  1.00  0.00     0.215 C 
HETATM   17  O3  UNL     1      27.859   1.332  54.480  1.00  0.00    -0.301 OA
HETATM   18  C22 UNL     1      26.738   0.496  54.446  1.00  0.00     0.361 C 
HETATM   19  O4  UNL     1      26.422  -0.346  55.338  1.00  0.00    -0.238 OA
HETATM   20  N5  UNL     1      26.034   0.777  53.224  1.00  0.00    -0.321 N 
HETATM   21  H23 UNL     1      25.031   0.525  53.078  1.00  0.00     0.165 HD
ENDBRANCH  12  15
ENDBRANCH  10  11
BRANCH   1  22
HETATM   22  O1  UNL     1      22.825   2.755  50.505  1.00  0.00    -0.349 OA
BRANCH  22  23
HETATM   23  C2  UNL     1      22.346   1.700  49.724  1.00  0.00     0.171 C 
HETATM   24  C1  UNL     1      21.518   0.763  50.597  1.00  0.00     0.034 C 
ENDBRANCH  22  23
ENDBRANCH   1  22
BRANCH   7  25
HETATM   25  N3  UNL     1      27.254   7.318  49.448  1.00  0.00    -0.363 N 
HETATM   26  H8  UNL     1      27.461   7.257  50.466  1.00  0.00     0.162 HD
BRANCH  25  27
HETATM   27  C8  UNL     1      28.291   7.739  48.526  1.00  0.00     0.130 C 
HETATM   28  C9  UNL     1      29.066   8.892  49.095  1.00  0.00     0.002 C 
HETATM   29  C10 UNL     1      30.312   9.319  48.973  1.00  0.00    -0.002 C 
HETATM   30  C11 UNL     1      31.405   8.744  48.177  1.00  0.00     0.000 C 
HETATM   31  C12 UNL     1      31.464   7.509  47.708  1.00  0.00     0.006 C 
HETATM   32  C13 UNL     1      30.470   6.450  47.871  1.00  0.00    -0.064 C 
HETATM   33  C14 UNL     1      30.910   5.037  47.645  1.00  0.00     0.048 C 
HETATM   34  C15 UNL     1      29.197   6.595  48.204  1.00  0.00     0.009 C 
ENDBRANCH  25  27
ENDBRANCH   7  25
TORSDOF 6
ENDMDL
