MODEL 1
REMARK VINA RESULT:      -8.1      0.000      0.000
REMARK  3 active torsions:
REMARK  status: ('A' for Active; 'I' for Inactive)
REMARK    1  A    between atoms: C1_2  and  O2_3 
REMARK    2  A    between atoms: O2_3  and  C2_4 
REMARK    3  A    between atoms: C5_8  and  C6_9 
ROOT
HETATM    1  C2  UNL     1      26.008   2.881  50.568  1.00  0.00     0.075 C 
HETATM    2  C3  UNL     1      26.236   2.544  51.834  1.00  0.00     0.071 C 
HETATM    3  C4  UNL     1      24.898   2.298  52.431  1.00  0.00     0.073 C 
HETATM    4  N1  UNL     1      24.352   1.484  53.184  1.00  0.00    -0.254 NA
HETATM    5  C5  UNL     1      24.742   0.346  53.870  1.00  0.00     0.240 C 
HETATM    6  N2  UNL     1      23.956  -0.774  53.243  1.00  0.00    -0.373 N 
HETATM    7  C12 UNL     1      22.533  -0.531  53.238  1.00  0.00     0.085 C 
HETATM    8  C13 UNL     1      21.680   0.442  52.963  1.00  0.00     0.017 C 
HETATM    9  C14 UNL     1      21.556   1.826  52.517  1.00  0.00     0.006 C 
HETATM   10  C15 UNL     1      22.315   2.881  52.135  1.00  0.00     0.025 C 
HETATM   11  S1  UNL     1      23.871   3.441  51.878  1.00  0.00    -0.198 SA
HETATM   12  C16 UNL     1      23.816   4.029  50.325  1.00  0.00     0.019 A 
HETATM   13  C17 UNL     1      24.536   2.867  50.287  1.00  0.00     0.117 A 
HETATM   14  H9  UNL     1      24.404  -1.609  52.858  1.00  0.00     0.161 HD
HETATM   15  H14 UNL     1      24.364   4.478  52.501  1.00  0.00     0.088 HD
ENDROOT
BRANCH   5  16
HETATM   16  C6  UNL     1      26.158  -0.091  53.759  1.00  0.00    -0.015 A 
HETATM   17  C7  UNL     1      26.683  -0.951  52.844  1.00  0.00     0.011 A 
HETATM   18  C8  UNL     1      28.017  -1.294  52.806  1.00  0.00     0.001 A 
HETATM   19  C9  UNL     1      28.908  -0.771  53.715  1.00  0.00     0.000 A 
HETATM   20  C10 UNL     1      28.439   0.105  54.667  1.00  0.00     0.001 A 
HETATM   21  C11 UNL     1      27.099   0.416  54.664  1.00  0.00     0.011 A 
ENDBRANCH   5  16
BRANCH   1  22
HETATM   22  O2  UNL     1      27.009   3.199  49.641  1.00  0.00    -0.289 OA
BRANCH  22  23
HETATM   23  C1  UNL     1      26.987   4.462  49.079  1.00  0.00     0.403 C 
HETATM   24  O1  UNL     1      28.164   4.660  48.649  1.00  0.00    -0.276 OA
ENDBRANCH  22  23
ENDBRANCH   1  22
TORSDOF 3
ENDMDL
MODEL 2
REMARK VINA RESULT:      -8.0      2.317      5.072
REMARK  3 active torsions:
REMARK  status: ('A' for Active; 'I' for Inactive)
REMARK    1  A    between atoms: C1_2  and  O2_3 
REMARK    2  A    between atoms: O2_3  and  C2_4 
REMARK    3  A    between atoms: C5_8  and  C6_9 
ROOT
HETATM    1  C2  UNL     1      27.151   2.095  53.504  1.00  0.00     0.075 C 
HETATM    2  C3  UNL     1      26.773   2.136  52.229  1.00  0.00     0.071 C 
HETATM    3  C4  UNL     1      25.504   1.367  52.162  1.00  0.00     0.073 C 
HETATM    4  N1  UNL     1      24.392   1.453  51.628  1.00  0.00    -0.254 NA
HETATM    5  C5  UNL     1      23.757   2.356  50.793  1.00  0.00     0.240 C 
HETATM    6  N2  UNL     1      22.625   2.914  51.614  1.00  0.00    -0.373 N 
HETATM    7  C12 UNL     1      21.765   1.888  52.159  1.00  0.00     0.085 C 
HETATM    8  C13 UNL     1      21.858   0.723  52.777  1.00  0.00     0.017 C 
HETATM    9  C14 UNL     1      22.784  -0.276  53.302  1.00  0.00     0.006 C 
HETATM   10  C15 UNL     1      24.110  -0.521  53.423  1.00  0.00     0.025 C 
HETATM   11  S1  UNL     1      25.653   0.046  53.110  1.00  0.00    -0.198 SA
HETATM   12  C16 UNL     1      26.391  -0.004  54.599  1.00  0.00     0.019 A 
HETATM   13  C17 UNL     1      26.159   1.313  54.311  1.00  0.00     0.117 A 
HETATM   14  H9  UNL     1      22.499   3.917  51.765  1.00  0.00     0.161 HD
HETATM   15  H14 UNL     1      26.523  -0.620  52.398  1.00  0.00     0.088 HD
ENDROOT
BRANCH   5  16
HETATM   16  C6  UNL     1      24.514   3.557  50.349  1.00  0.00    -0.015 A 
HETATM   17  C7  UNL     1      25.506   3.604  49.419  1.00  0.00     0.011 A 
HETATM   18  C8  UNL     1      26.149   4.769  49.058  1.00  0.00     0.001 A 
HETATM   19  C9  UNL     1      25.811   5.971  49.635  1.00  0.00     0.000 A 
HETATM   20  C10 UNL     1      24.814   5.990  50.584  1.00  0.00     0.001 A 
HETATM   21  C11 UNL     1      24.203   4.801  50.910  1.00  0.00     0.011 A 
ENDBRANCH   5  16
BRANCH   1  22
HETATM   22  O2  UNL     1      28.309   2.702  54.007  1.00  0.00    -0.289 OA
BRANCH  22  23
HETATM   23  C1  UNL     1      29.369   1.883  54.343  1.00  0.00     0.403 C 
HETATM   24  O1  UNL     1      29.790   2.315  55.459  1.00  0.00    -0.276 OA
ENDBRANCH  22  23
ENDBRANCH   1  22
TORSDOF 3
ENDMDL
MODEL 3
REMARK VINA RESULT:      -7.7      3.274      5.060
REMARK  3 active torsions:
REMARK  status: ('A' for Active; 'I' for Inactive)
REMARK    1  A    between atoms: C1_2  and  O2_3 
REMARK    2  A    between atoms: O2_3  and  C2_4 
REMARK    3  A    between atoms: C5_8  and  C6_9 
ROOT
HETATM    1  C2  UNL     1      21.740   0.513  53.451  1.00  0.00     0.075 C 
HETATM    2  C3  UNL     1      22.842   0.253  52.755  1.00  0.00     0.071 C 
HETATM    3  C4  UNL     1      22.877   1.265  51.667  1.00  0.00     0.073 C 
HETATM    4  N1  UNL     1      23.699   2.000  51.109  1.00  0.00    -0.254 NA
HETATM    5  C5  UNL     1      25.054   2.254  51.233  1.00  0.00     0.240 C 
HETATM    6  N2  UNL     1      25.140   3.685  51.691  1.00  0.00    -0.373 N 
HETATM    7  C12 UNL     1      24.433   4.599  50.824  1.00  0.00     0.085 C 
HETATM    8  C13 UNL     1      23.272   4.696  50.199  1.00  0.00     0.017 C 
HETATM    9  C14 UNL     1      21.996   4.033  49.948  1.00  0.00     0.006 C 
HETATM   10  C15 UNL     1      21.320   2.901  50.255  1.00  0.00     0.025 C 
HETATM   11  S1  UNL     1      21.361   1.452  51.090  1.00  0.00    -0.198 SA
HETATM   12  C16 UNL     1      19.973   1.494  52.003  1.00  0.00     0.019 A 
HETATM   13  C17 UNL     1      21.021   1.687  52.860  1.00  0.00     0.117 A 
HETATM   14  H9  UNL     1      25.645   3.961  52.537  1.00  0.00     0.161 HD
HETATM   15  H14 UNL     1      21.219   0.291  50.507  1.00  0.00     0.088 HD
ENDROOT
BRANCH   5  16
HETATM   16  C6  UNL     1      25.820   1.495  52.257  1.00  0.00    -0.015 A 
HETATM   17  C7  UNL     1      25.965   1.807  53.574  1.00  0.00     0.011 A 
HETATM   18  C8  UNL     1      26.686   1.036  54.459  1.00  0.00     0.001 A 
HETATM   19  C9  UNL     1      27.314  -0.117  54.045  1.00  0.00     0.000 A 
HETATM   20  C10 UNL     1      27.207  -0.487  52.723  1.00  0.00     0.001 A 
HETATM   21  C11 UNL     1      26.475   0.316  51.879  1.00  0.00     0.011 A 
ENDBRANCH   5  16
BRANCH   1  22
HETATM   22  O2  UNL     1      21.323  -0.213  54.575  1.00  0.00    -0.289 OA
BRANCH  22  23
HETATM   23  C1  UNL     1      21.292  -1.591  54.475  1.00  0.00     0.403 C 
HETATM   24  O1  UNL     1      22.109  -2.011  55.349  1.00  0.00    -0.276 OA
ENDBRANCH  22  23
ENDBRANCH   1  22
TORSDOF 3
ENDMDL
MODEL 4
REMARK VINA RESULT:      -7.6      2.464      4.539
REMARK  3 active torsions:
REMARK  status: ('A' for Active; 'I' for Inactive)
REMARK    1  A    between atoms: C1_2  and  O2_3 
REMARK    2  A    between atoms: O2_3  and  C2_4 
REMARK    3  A    between atoms: C5_8  and  C6_9 
ROOT
HETATM    1  C2  UNL     1      25.890   1.636  52.388  1.00  0.00     0.075 C 
HETATM    2  C3  UNL     1      24.648   1.836  52.821  1.00  0.00     0.071 C 
HETATM    3  C4  UNL     1      23.904   2.392  51.662  1.00  0.00     0.073 C 
HETATM    4  N1  UNL     1      22.803   2.261  51.116  1.00  0.00    -0.254 NA
HETATM    5  C5  UNL     1      21.672   1.491  51.327  1.00  0.00     0.240 C 
HETATM    6  N2  UNL     1      21.587   0.587  50.127  1.00  0.00    -0.373 N 
HETATM    7  C12 UNL     1      21.599   1.310  48.876  1.00  0.00     0.085 C 
HETATM    8  C13 UNL     1      22.256   2.298  48.292  1.00  0.00     0.017 C 
HETATM    9  C14 UNL     1      23.325   3.278  48.457  1.00  0.00     0.006 C 
HETATM   10  C15 UNL     1      24.244   3.691  49.361  1.00  0.00     0.025 C 
HETATM   11  S1  UNL     1      24.871   3.461  50.895  1.00  0.00    -0.198 SA
HETATM   12  C16 UNL     1      26.500   3.275  50.621  1.00  0.00     0.019 A 
HETATM   13  C17 UNL     1      26.007   2.043  50.950  1.00  0.00     0.117 A 
HETATM   14  H9  UNL     1      21.535  -0.431  50.208  1.00  0.00     0.161 HD
HETATM   15  H14 UNL     1      24.895   4.402  51.801  1.00  0.00     0.088 HD
ENDROOT
BRANCH   5  16
HETATM   16  C6  UNL     1      21.662   0.561  52.488  1.00  0.00    -0.015 A 
HETATM   17  C7  UNL     1      22.284  -0.646  52.578  1.00  0.00     0.011 A 
HETATM   18  C8  UNL     1      22.232  -1.442  53.702  1.00  0.00     0.001 A 
HETATM   19  C9  UNL     1      21.528  -1.046  54.817  1.00  0.00     0.000 A 
HETATM   20  C10 UNL     1      20.876   0.166  54.788  1.00  0.00     0.001 A 
HETATM   21  C11 UNL     1      20.959   0.924  53.643  1.00  0.00     0.011 A 
ENDBRANCH   5  16
BRANCH   1  22
HETATM   22  O2  UNL     1      26.928   1.116  53.172  1.00  0.00    -0.289 OA
BRANCH  22  23
HETATM   23  C1  UNL     1      28.093   1.854  53.266  1.00  0.00     0.403 C 
HETATM   24  O1  UNL     1      27.895   2.678  54.209  1.00  0.00    -0.276 OA
ENDBRANCH  22  23
ENDBRANCH   1  22
TORSDOF 3
ENDMDL
MODEL 5
REMARK VINA RESULT:      -7.1      3.055      5.162
REMARK  3 active torsions:
REMARK  status: ('A' for Active; 'I' for Inactive)
REMARK    1  A    between atoms: C1_2  and  O2_3 
REMARK    2  A    between atoms: O2_3  and  C2_4 
REMARK    3  A    between atoms: C5_8  and  C6_9 
ROOT
HETATM    1  C2  UNL     1      22.401   2.718  47.815  1.00  0.00     0.075 C 
HETATM    2  C3  UNL     1      22.908   3.649  48.617  1.00  0.00     0.071 C 
HETATM    3  C4  UNL     1      22.789   3.102  49.993  1.00  0.00     0.073 C 
HETATM    4  N1  UNL     1      23.465   3.030  51.026  1.00  0.00    -0.254 NA
HETATM    5  C5  UNL     1      24.726   3.443  51.421  1.00  0.00     0.240 C 
HETATM    6  N2  UNL     1      25.490   2.171  51.673  1.00  0.00    -0.373 N 
HETATM    7  C12 UNL     1      24.825   1.288  52.604  1.00  0.00     0.085 C 
HETATM    8  C13 UNL     1      23.617   0.805  52.843  1.00  0.00     0.017 C 
HETATM    9  C14 UNL     1      22.226   0.805  52.402  1.00  0.00     0.006 C 
HETATM   10  C15 UNL     1      21.422   1.344  51.455  1.00  0.00     0.025 C 
HETATM   11  S1  UNL     1      21.341   2.359  50.127  1.00  0.00    -0.198 SA
HETATM   12  C16 UNL     1      20.622   1.414  48.964  1.00  0.00     0.019 A 
HETATM   13  C17 UNL     1      21.939   1.540  48.619  1.00  0.00     0.117 A 
HETATM   14  H9  UNL     1      26.382   1.967  51.217  1.00  0.00     0.161 HD
HETATM   15  H14 UNL     1      20.567   3.410  50.083  1.00  0.00     0.088 HD
ENDROOT
BRANCH   5  16
HETATM   16  C6  UNL     1      25.562   4.185  50.441  1.00  0.00    -0.015 A 
HETATM   17  C7  UNL     1      26.577   3.686  49.683  1.00  0.00     0.011 A 
HETATM   18  C8  UNL     1      27.296   4.447  48.786  1.00  0.00     0.001 A 
HETATM   19  C9  UNL     1      27.016   5.782  48.608  1.00  0.00     0.000 A 
HETATM   20  C10 UNL     1      26.000   6.346  49.345  1.00  0.00     0.001 A 
HETATM   21  C11 UNL     1      25.312   5.546  50.228  1.00  0.00     0.011 A 
ENDBRANCH   5  16
BRANCH   1  22
HETATM   22  O2  UNL     1      22.318   2.832  46.421  1.00  0.00    -0.289 OA
BRANCH  22  23
HETATM   23  C1  UNL     1      21.638   3.918  45.905  1.00  0.00     0.403 C 
HETATM   24  O1  UNL     1      21.671   3.769  44.645  1.00  0.00    -0.276 OA
ENDBRANCH  22  23
ENDBRANCH   1  22
TORSDOF 3
ENDMDL
MODEL 6
REMARK VINA RESULT:      -7.1      3.231      6.775
REMARK  3 active torsions:
REMARK  status: ('A' for Active; 'I' for Inactive)
REMARK    1  A    between atoms: C1_2  and  O2_3 
REMARK    2  A    between atoms: O2_3  and  C2_4 
REMARK    3  A    between atoms: C5_8  and  C6_9 
ROOT
HETATM    1  C2  UNL     1      23.127  -0.268  53.211  1.00  0.00     0.075 C 
HETATM    2  C3  UNL     1      22.684   0.985  53.181  1.00  0.00     0.071 C 
HETATM    3  C4  UNL     1      23.840   1.808  52.742  1.00  0.00     0.073 C 
HETATM    4  N1  UNL     1      24.072   2.752  51.978  1.00  0.00    -0.254 NA
HETATM    5  C5  UNL     1      23.329   3.539  51.114  1.00  0.00     0.240 C 
HETATM    6  N2  UNL     1      23.861   3.218  49.743  1.00  0.00    -0.373 N 
HETATM    7  C12 UNL     1      25.291   3.392  49.638  1.00  0.00     0.085 C 
HETATM    8  C13 UNL     1      26.391   3.102  50.313  1.00  0.00     0.017 C 
HETATM    9  C14 UNL     1      26.916   2.472  51.520  1.00  0.00     0.006 C 
HETATM   10  C15 UNL     1      26.502   1.822  52.633  1.00  0.00     0.025 C 
HETATM   11  S1  UNL     1      25.182   1.248  53.486  1.00  0.00    -0.198 SA
HETATM   12  C16 UNL     1      25.554  -0.351  53.743  1.00  0.00     0.019 A 
HETATM   13  C17 UNL     1      24.567  -0.317  52.798  1.00  0.00     0.117 A 
HETATM   14  H9  UNL     1      23.258   2.904  48.980  1.00  0.00     0.161 HD
HETATM   15  H14 UNL     1      24.909   1.622  54.708  1.00  0.00     0.088 HD
ENDROOT
BRANCH   5  16
HETATM   16  C6  UNL     1      21.868   3.283  51.010  1.00  0.00    -0.015 A 
HETATM   17  C7  UNL     1      20.881   3.839  51.763  1.00  0.00     0.011 A 
HETATM   18  C8  UNL     1      19.544   3.552  51.589  1.00  0.00     0.001 A 
HETATM   19  C9  UNL     1      19.131   2.665  50.622  1.00  0.00     0.000 A 
HETATM   20  C10 UNL     1      20.083   2.067  49.827  1.00  0.00     0.001 A 
HETATM   21  C11 UNL     1      21.404   2.386  50.039  1.00  0.00     0.011 A 
ENDBRANCH   5  16
BRANCH   1  22
HETATM   22  O2  UNL     1      22.349  -1.375  53.577  1.00  0.00    -0.289 OA
BRANCH  22  23
HETATM   23  C1  UNL     1      21.771  -1.368  54.832  1.00  0.00     0.403 C 
HETATM   24  O1  UNL     1      22.709  -1.652  55.637  1.00  0.00    -0.276 OA
ENDBRANCH  22  23
ENDBRANCH   1  22
TORSDOF 3
ENDMDL
MODEL 7
REMARK VINA RESULT:      -6.9      2.421      5.523
REMARK  3 active torsions:
REMARK  status: ('A' for Active; 'I' for Inactive)
REMARK    1  A    between atoms: C1_2  and  O2_3 
REMARK    2  A    between atoms: O2_3  and  C2_4 
REMARK    3  A    between atoms: C5_8  and  C6_9 
ROOT
HETATM    1  C2  UNL     1      24.259   3.121  52.045  1.00  0.00     0.075 C 
HETATM    2  C3  UNL     1      23.459   2.233  51.462  1.00  0.00     0.071 C 
HETATM    3  C4  UNL     1      23.598   0.986  52.257  1.00  0.00     0.073 C 
HETATM    4  N1  UNL     1      22.879   0.091  52.714  1.00  0.00    -0.254 NA
HETATM    5  C5  UNL     1      21.525  -0.198  52.710  1.00  0.00     0.240 C 
HETATM    6  N2  UNL     1      21.100  -0.091  54.149  1.00  0.00    -0.373 N 
HETATM    7  C12 UNL     1      21.889  -0.917  55.033  1.00  0.00     0.085 C 
HETATM    8  C13 UNL     1      23.156  -1.224  55.258  1.00  0.00     0.017 C 
HETATM    9  C14 UNL     1      24.531  -0.989  54.831  1.00  0.00     0.006 C 
HETATM   10  C15 UNL     1      25.246  -0.285  53.921  1.00  0.00     0.025 C 
HETATM   11  S1  UNL     1      25.173   0.798  52.647  1.00  0.00    -0.198 SA
HETATM   12  C16 UNL     1      26.210   2.010  53.113  1.00  0.00     0.019 A 
HETATM   13  C17 UNL     1      24.941   2.504  53.229  1.00  0.00     0.117 A 
HETATM   14  H9  UNL     1      20.334   0.516  54.452  1.00  0.00     0.161 HD
HETATM   15  H14 UNL     1      25.647   0.530  51.460  1.00  0.00     0.088 HD
ENDROOT
BRANCH   5  16
HETATM   16  C6  UNL     1      20.611   0.728  51.988  1.00  0.00    -0.015 A 
HETATM   17  C7  UNL     1      19.992   1.830  52.492  1.00  0.00     0.011 A 
HETATM   18  C8  UNL     1      19.167   2.642  51.745  1.00  0.00     0.001 A 
HETATM   19  C9  UNL     1      18.921   2.372  50.418  1.00  0.00     0.000 A 
HETATM   20  C10 UNL     1      19.518   1.270  49.849  1.00  0.00     0.001 A 
HETATM   21  C11 UNL     1      20.333   0.490  50.636  1.00  0.00     0.011 A 
ENDBRANCH   5  16
BRANCH   1  22
HETATM   22  O2  UNL     1      24.428   4.442  51.609  1.00  0.00    -0.289 OA
BRANCH  22  23
HETATM   23  C1  UNL     1      23.460   4.973  50.778  1.00  0.00     0.403 C 
HETATM   24  O1  UNL     1      22.765   5.737  51.515  1.00  0.00    -0.276 OA
ENDBRANCH  22  23
ENDBRANCH   1  22
TORSDOF 3
ENDMDL
MODEL 8
REMARK VINA RESULT:      -6.8      3.612      5.317
REMARK  3 active torsions:
REMARK  status: ('A' for Active; 'I' for Inactive)
REMARK    1  A    between atoms: C1_2  and  O2_3 
REMARK    2  A    between atoms: O2_3  and  C2_4 
REMARK    3  A    between atoms: C5_8  and  C6_9 
ROOT
HETATM    1  C2  UNL     1      22.383  -0.566  54.489  1.00  0.00     0.075 C 
HETATM    2  C3  UNL     1      23.096  -0.229  53.419  1.00  0.00     0.071 C 
HETATM    3  C4  UNL     1      22.219   0.664  52.617  1.00  0.00     0.073 C 
HETATM    4  N1  UNL     1      22.304   1.716  51.974  1.00  0.00    -0.254 NA
HETATM    5  C5  UNL     1      23.308   2.622  51.676  1.00  0.00     0.240 C 
HETATM    6  N2  UNL     1      22.896   3.898  52.359  1.00  0.00    -0.373 N 
HETATM    7  C12 UNL     1      21.566   4.329  51.994  1.00  0.00     0.085 C 
HETATM    8  C13 UNL     1      20.353   3.825  51.841  1.00  0.00     0.017 C 
HETATM    9  C14 UNL     1      19.552   2.608  51.913  1.00  0.00     0.006 C 
HETATM   10  C15 UNL     1      19.664   1.288  52.194  1.00  0.00     0.025 C 
HETATM   11  S1  UNL     1      20.703   0.058  52.648  1.00  0.00    -0.198 SA
HETATM   12  C16 UNL     1      19.951  -0.612  53.970  1.00  0.00     0.019 A 
HETATM   13  C17 UNL     1      21.033   0.083  54.435  1.00  0.00     0.117 A 
HETATM   14  H9  UNL     1      23.505   4.389  53.017  1.00  0.00     0.161 HD
HETATM   15  H14 UNL     1      20.896  -1.012  51.924  1.00  0.00     0.088 HD
ENDROOT
BRANCH   5  16
HETATM   16  C6  UNL     1      24.675   2.353  52.195  1.00  0.00    -0.015 A 
HETATM   17  C7  UNL     1      25.143   2.607  53.447  1.00  0.00     0.011 A 
HETATM   18  C8  UNL     1      26.428   2.312  53.848  1.00  0.00     0.001 A 
HETATM   19  C9  UNL     1      27.325   1.733  52.981  1.00  0.00     0.000 A 
HETATM   20  C10 UNL     1      26.913   1.452  51.698  1.00  0.00     0.001 A 
HETATM   21  C11 UNL     1      25.620   1.764  51.345  1.00  0.00     0.011 A 
ENDBRANCH   5  16
BRANCH   1  22
HETATM   22  O2  UNL     1      22.839  -1.406  55.513  1.00  0.00    -0.289 OA
BRANCH  22  23
HETATM   23  C1  UNL     1      24.152  -1.835  55.455  1.00  0.00     0.403 C 
HETATM   24  O1  UNL     1      24.766  -1.163  56.340  1.00  0.00    -0.276 OA
ENDBRANCH  22  23
ENDBRANCH   1  22
TORSDOF 3
ENDMDL
MODEL 9
REMARK VINA RESULT:      -6.6      4.307      6.096
REMARK  3 active torsions:
REMARK  status: ('A' for Active; 'I' for Inactive)
REMARK    1  A    between atoms: C1_2  and  O2_3 
REMARK    2  A    between atoms: O2_3  and  C2_4 
REMARK    3  A    between atoms: C5_8  and  C6_9 
ROOT
HETATM    1  C2  UNL     1      19.637   1.291  49.796  1.00  0.00     0.075 C 
HETATM    2  C3  UNL     1      20.597   0.542  50.330  1.00  0.00     0.071 C 
HETATM    3  C4  UNL     1      21.864   1.275  50.081  1.00  0.00     0.073 C 
HETATM    4  N1  UNL     1      22.905   1.564  50.683  1.00  0.00    -0.254 NA
HETATM    5  C5  UNL     1      23.419   1.333  51.947  1.00  0.00     0.240 C 
HETATM    6  N2  UNL     1      23.508   2.694  52.584  1.00  0.00    -0.373 N 
HETATM    7  C12 UNL     1      24.258   3.640  51.791  1.00  0.00     0.085 C 
HETATM    8  C13 UNL     1      24.361   4.039  50.534  1.00  0.00     0.017 C 
HETATM    9  C14 UNL     1      23.859   3.844  49.178  1.00  0.00     0.006 C 
HETATM   10  C15 UNL     1      22.970   3.098  48.482  1.00  0.00     0.025 C 
HETATM   11  S1  UNL     1      21.812   1.892  48.569  1.00  0.00    -0.198 SA
HETATM   12  C16 UNL     1      20.484   2.581  47.846  1.00  0.00     0.019 A 
HETATM   13  C17 UNL     1      20.226   2.528  49.188  1.00  0.00     0.117 A 
HETATM   14  H9  UNL     1      23.069   2.910  53.482  1.00  0.00     0.161 HD
HETATM   15  H14 UNL     1      21.894   0.779  47.891  1.00  0.00     0.088 HD
ENDROOT
BRANCH   5  16
HETATM   16  C6  UNL     1      22.607   0.534  52.902  1.00  0.00    -0.015 A 
HETATM   17  C7  UNL     1      21.589   0.979  53.688  1.00  0.00     0.011 A 
HETATM   18  C8  UNL     1      20.878   0.162  54.540  1.00  0.00     0.001 A 
HETATM   19  C9  UNL     1      21.170  -1.179  54.642  1.00  0.00     0.000 A 
HETATM   20  C10 UNL     1      22.190  -1.691  53.873  1.00  0.00     0.001 A 
HETATM   21  C11 UNL     1      22.870  -0.835  53.038  1.00  0.00     0.011 A 
ENDBRANCH   5  16
BRANCH   1  22
HETATM   22  O2  UNL     1      18.275   0.963  49.809  1.00  0.00    -0.289 OA
BRANCH  22  23
HETATM   23  C1  UNL     1      17.763   0.391  50.959  1.00  0.00     0.403 C 
HETATM   24  O1  UNL     1      17.174   1.333  51.571  1.00  0.00    -0.276 OA
ENDBRANCH  22  23
ENDBRANCH   1  22
TORSDOF 3
ENDMDL
