MODEL 1
REMARK VINA RESULT:      -8.8      0.000      0.000
REMARK  3 active torsions:
REMARK  status: ('A' for Active; 'I' for Inactive)
REMARK    1  A    between atoms: C3_3  and  C4_4 
REMARK    2  A    between atoms: C4_4  and  C5_5 
REMARK    3  A    between atoms: C5_5  and  O2_7 
ROOT
HETATM    1  C1  UNL     1      26.558  -0.291  51.834  1.00  0.00     0.019 C 
HETATM    2  C2  UNL     1      25.825   0.667  52.762  1.00  0.00     0.044 C 
HETATM    3  C3  UNL     1      26.719   1.049  53.905  1.00  0.00    -0.048 C 
HETATM    4  C6  UNL     1      26.680   0.513  55.110  1.00  0.00     0.087 C 
HETATM    5  N1  UNL     1      25.689  -0.488  55.245  1.00  0.00    -0.395 N 
HETATM    6  C7  UNL     1      25.140  -1.104  54.025  1.00  0.00     0.155 C 
HETATM    7  C8  UNL     1      24.603  -0.043  53.197  1.00  0.00    -0.038 C 
HETATM    8  C9  UNL     1      23.402   0.332  52.812  1.00  0.00     0.049 A 
HETATM    9  C10 UNL     1      23.194   1.466  51.931  1.00  0.00     0.257 A 
HETATM   10  O3  UNL     1      23.824   2.343  51.305  1.00  0.00    -0.267 OA
HETATM   11  N2  UNL     1      21.795   1.602  51.728  1.00  0.00    -0.322 N 
HETATM   12  C11 UNL     1      21.075   0.590  52.451  1.00  0.00     0.046 A 
HETATM   13  C12 UNL     1      19.736   0.268  52.605  1.00  0.00     0.030 A 
HETATM   14  C13 UNL     1      19.339  -0.782  53.387  1.00  0.00     0.002 A 
HETATM   15  C14 UNL     1      20.299  -1.529  54.026  1.00  0.00     0.001 A 
HETATM   16  C15 UNL     1      21.616  -1.186  53.853  1.00  0.00     0.015 A 
HETATM   17  C16 UNL     1      22.057  -0.142  53.079  1.00  0.00     0.007 A 
HETATM   18  H8  UNL     1      25.331  -0.810  56.186  1.00  0.00     0.159 HD
HETATM   19  H11 UNL     1      21.195   2.283  51.165  1.00  0.00     0.169 HD
ENDROOT
BRANCH   3  20
HETATM   20  C4  UNL     1      27.727   2.122  53.640  1.00  0.00     0.148 C 
BRANCH  20  21
HETATM   21  C5  UNL     1      29.090   1.693  53.958  1.00  0.00     0.274 C 
HETATM   22  O1  UNL     1      29.635   2.284  54.948  1.00  0.00    -0.264 OA
BRANCH  21  23
HETATM   23  O2  UNL     1      30.072   0.805  53.534  1.00  0.00    -0.236 OA
HETATM   24 BR1  UNL     1      29.804  -1.058  53.653  1.00  0.00     0.109 Br
ENDBRANCH  21  23
ENDBRANCH  20  21
ENDBRANCH   3  20
TORSDOF 3
ENDMDL
MODEL 2
REMARK VINA RESULT:      -8.0      2.285      3.375
REMARK  3 active torsions:
REMARK  status: ('A' for Active; 'I' for Inactive)
REMARK    1  A    between atoms: C3_3  and  C4_4 
REMARK    2  A    between atoms: C4_4  and  C5_5 
REMARK    3  A    between atoms: C5_5  and  O2_7 
ROOT
HETATM    1  C1  UNL     1      25.699  -0.144  54.822  1.00  0.00     0.019 C 
HETATM    2  C2  UNL     1      25.189  -0.369  53.406  1.00  0.00     0.044 C 
HETATM    3  C3  UNL     1      26.345  -0.630  52.486  1.00  0.00    -0.048 C 
HETATM    4  C6  UNL     1      26.903   0.267  51.695  1.00  0.00     0.087 C 
HETATM    5  N1  UNL     1      26.299   1.544  51.786  1.00  0.00    -0.395 N 
HETATM    6  C7  UNL     1      25.474   1.850  52.966  1.00  0.00     0.155 C 
HETATM    7  C8  UNL     1      24.430   0.848  53.049  1.00  0.00    -0.038 C 
HETATM    8  C9  UNL     1      23.123   0.839  52.898  1.00  0.00     0.049 A 
HETATM    9  C10 UNL     1      22.335  -0.367  53.077  1.00  0.00     0.257 A 
HETATM   10  O3  UNL     1      22.453  -1.575  53.369  1.00  0.00    -0.267 OA
HETATM   11  N2  UNL     1      20.977  -0.034  52.830  1.00  0.00    -0.322 N 
HETATM   12  C11 UNL     1      20.847   1.358  52.494  1.00  0.00     0.046 A 
HETATM   13  C12 UNL     1      19.786   2.187  52.168  1.00  0.00     0.030 A 
HETATM   14  C13 UNL     1      19.976   3.512  51.882  1.00  0.00     0.002 A 
HETATM   15  C14 UNL     1      21.252   4.020  51.924  1.00  0.00     0.001 A 
HETATM   16  C15 UNL     1      22.281   3.174  52.251  1.00  0.00     0.015 A 
HETATM   17  C16 UNL     1      22.135   1.841  52.544  1.00  0.00     0.007 A 
HETATM   18  H8  UNL     1      26.420   2.283  51.040  1.00  0.00     0.159 HD
HETATM   19  H11 UNL     1      20.067  -0.591  52.844  1.00  0.00     0.169 HD
ENDROOT
BRANCH   3  20
HETATM   20  C4  UNL     1      26.897  -2.021  52.478  1.00  0.00     0.148 C 
BRANCH  20  21
HETATM   21  C5  UNL     1      28.274  -2.074  52.971  1.00  0.00     0.274 C 
HETATM   22  O1  UNL     1      28.633  -3.187  53.480  1.00  0.00    -0.264 OA
BRANCH  21  23
HETATM   23  O2  UNL     1      29.412  -1.285  53.088  1.00  0.00    -0.236 OA
HETATM   24 BR1  UNL     1      29.424   0.232  54.209  1.00  0.00     0.109 Br
ENDBRANCH  21  23
ENDBRANCH  20  21
ENDBRANCH   3  20
TORSDOF 3
ENDMDL
MODEL 3
REMARK VINA RESULT:      -7.9      3.917      7.174
REMARK  3 active torsions:
REMARK  status: ('A' for Active; 'I' for Inactive)
REMARK    1  A    between atoms: C3_3  and  C4_4 
REMARK    2  A    between atoms: C4_4  and  C5_5 
REMARK    3  A    between atoms: C5_5  and  O2_7 
ROOT
HETATM    1  C1  UNL     1      22.830   1.559  50.545  1.00  0.00     0.019 C 
HETATM    2  C2  UNL     1      22.932   1.890  52.027  1.00  0.00     0.044 C 
HETATM    3  C3  UNL     1      22.046   3.058  52.347  1.00  0.00    -0.048 C 
HETATM    4  C6  UNL     1      22.453   4.308  52.467  1.00  0.00     0.087 C 
HETATM    5  N1  UNL     1      23.844   4.465  52.264  1.00  0.00    -0.395 N 
HETATM    6  C7  UNL     1      24.577   3.398  51.561  1.00  0.00     0.155 C 
HETATM    7  C8  UNL     1      24.362   2.161  52.286  1.00  0.00    -0.038 C 
HETATM    8  C9  UNL     1      25.107   1.355  53.010  1.00  0.00     0.049 A 
HETATM    9  C10 UNL     1      24.577   0.140  53.602  1.00  0.00     0.257 A 
HETATM   10  O3  UNL     1      23.525  -0.525  53.687  1.00  0.00    -0.267 OA
HETATM   11  N2  UNL     1      25.632  -0.483  54.322  1.00  0.00    -0.322 N 
HETATM   12  C11 UNL     1      26.842   0.287  54.221  1.00  0.00     0.046 A 
HETATM   13  C12 UNL     1      28.129   0.149  54.714  1.00  0.00     0.030 A 
HETATM   14  C13 UNL     1      29.099   1.076  54.447  1.00  0.00     0.002 A 
HETATM   15  C14 UNL     1      28.779   2.162  53.669  1.00  0.00     0.001 A 
HETATM   16  C15 UNL     1      27.496   2.270  53.194  1.00  0.00     0.015 A 
HETATM   17  C16 UNL     1      26.494   1.365  53.439  1.00  0.00     0.007 A 
HETATM   18  H8  UNL     1      24.374   5.317  52.595  1.00  0.00     0.159 HD
HETATM   19  H11 UNL     1      25.701  -1.377  54.901  1.00  0.00     0.169 HD
ENDROOT
BRANCH   3  20
HETATM   20  C4  UNL     1      20.592   2.765  52.542  1.00  0.00     0.148 C 
BRANCH  20  21
HETATM   21  C5  UNL     1      19.753   3.438  51.549  1.00  0.00     0.274 C 
HETATM   22  O1  UNL     1      18.587   3.768  51.948  1.00  0.00    -0.264 OA
BRANCH  21  23
HETATM   23  O2  UNL     1      19.779   3.880  50.231  1.00  0.00    -0.236 OA
HETATM   24 BR1  UNL     1      19.592   2.662  48.803  1.00  0.00     0.109 Br
ENDBRANCH  21  23
ENDBRANCH  20  21
ENDBRANCH   3  20
TORSDOF 3
ENDMDL
MODEL 4
REMARK VINA RESULT:      -7.8      3.723      6.861
REMARK  3 active torsions:
REMARK  status: ('A' for Active; 'I' for Inactive)
REMARK    1  A    between atoms: C3_3  and  C4_4 
REMARK    2  A    between atoms: C4_4  and  C5_5 
REMARK    3  A    between atoms: C5_5  and  O2_7 
ROOT
HETATM    1  C1  UNL     1      22.915   1.739  50.321  1.00  0.00     0.019 C 
HETATM    2  C2  UNL     1      22.961   1.972  51.824  1.00  0.00     0.044 C 
HETATM    3  C3  UNL     1      22.061   3.117  52.187  1.00  0.00    -0.048 C 
HETATM    4  C6  UNL     1      22.460   4.355  52.403  1.00  0.00     0.087 C 
HETATM    5  N1  UNL     1      23.858   4.525  52.263  1.00  0.00    -0.395 N 
HETATM    6  C7  UNL     1      24.619   3.507  51.520  1.00  0.00     0.155 C 
HETATM    7  C8  UNL     1      24.380   2.226  52.153  1.00  0.00    -0.038 C 
HETATM    8  C9  UNL     1      25.100   1.374  52.850  1.00  0.00     0.049 A 
HETATM    9  C10 UNL     1      24.552   0.123  53.341  1.00  0.00     0.257 A 
HETATM   10  O3  UNL     1      23.498  -0.547  53.343  1.00  0.00    -0.267 OA
HETATM   11  N2  UNL     1      25.580  -0.546  54.057  1.00  0.00    -0.322 N 
HETATM   12  C11 UNL     1      26.791   0.229  54.052  1.00  0.00     0.046 A 
HETATM   13  C12 UNL     1      28.060   0.059  54.584  1.00  0.00     0.030 A 
HETATM   14  C13 UNL     1      29.037   1.002  54.414  1.00  0.00     0.002 A 
HETATM   15  C14 UNL     1      28.743   2.136  53.698  1.00  0.00     0.001 A 
HETATM   16  C15 UNL     1      27.478   2.275  53.183  1.00  0.00     0.015 A 
HETATM   17  C16 UNL     1      26.470   1.356  53.330  1.00  0.00     0.007 A 
HETATM   18  H8  UNL     1      24.373   5.354  52.669  1.00  0.00     0.159 HD
HETATM   19  H11 UNL     1      25.630  -1.476  54.579  1.00  0.00     0.169 HD
ENDROOT
BRANCH   3  20
HETATM   20  C4  UNL     1      20.602   2.811  52.307  1.00  0.00     0.148 C 
BRANCH  20  21
HETATM   21  C5  UNL     1      20.355   1.409  52.644  1.00  0.00     0.274 C 
HETATM   22  O1  UNL     1      20.504   1.105  53.874  1.00  0.00    -0.264 OA
BRANCH  21  23
HETATM   23  O2  UNL     1      19.987   0.204  52.058  1.00  0.00    -0.236 OA
HETATM   24 BR1  UNL     1      18.222  -0.446  52.213  1.00  0.00     0.109 Br
ENDBRANCH  21  23
ENDBRANCH  20  21
ENDBRANCH   3  20
TORSDOF 3
ENDMDL
MODEL 5
REMARK VINA RESULT:      -7.5      5.170      7.426
REMARK  3 active torsions:
REMARK  status: ('A' for Active; 'I' for Inactive)
REMARK    1  A    between atoms: C3_3  and  C4_4 
REMARK    2  A    between atoms: C4_4  and  C5_5 
REMARK    3  A    between atoms: C5_5  and  O2_7 
ROOT
HETATM    1  C1  UNL     1      23.229   3.069  50.133  1.00  0.00     0.019 C 
HETATM    2  C2  UNL     1      24.446   3.559  50.906  1.00  0.00     0.044 C 
HETATM    3  C3  UNL     1      24.148   3.553  52.376  1.00  0.00    -0.048 C 
HETATM    4  C6  UNL     1      23.795   4.609  53.083  1.00  0.00     0.087 C 
HETATM    5  N1  UNL     1      23.718   5.795  52.314  1.00  0.00    -0.395 N 
HETATM    6  C7  UNL     1      23.610   5.679  50.850  1.00  0.00     0.155 C 
HETATM    7  C8  UNL     1      24.744   4.909  50.382  1.00  0.00    -0.038 C 
HETATM    8  C9  UNL     1      25.821   5.160  49.669  1.00  0.00     0.049 A 
HETATM    9  C10 UNL     1      26.788   4.128  49.344  1.00  0.00     0.257 A 
HETATM   10  O3  UNL     1      27.007   2.910  49.507  1.00  0.00    -0.267 OA
HETATM   11  N2  UNL     1      27.823   4.733  48.583  1.00  0.00    -0.322 N 
HETATM   12  C11 UNL     1      27.565   6.136  48.397  1.00  0.00     0.046 A 
HETATM   13  C12 UNL     1      28.227   7.172  47.757  1.00  0.00     0.030 A 
HETATM   14  C13 UNL     1      27.724   8.445  47.754  1.00  0.00     0.002 A 
HETATM   15  C14 UNL     1      26.538   8.688  48.401  1.00  0.00     0.001 A 
HETATM   16  C15 UNL     1      25.906   7.641  49.025  1.00  0.00     0.015 A 
HETATM   17  C16 UNL     1      26.374   6.351  49.052  1.00  0.00     0.007 A 
HETATM   18  H8  UNL     1      23.734   6.757  52.751  1.00  0.00     0.159 HD
HETATM   19  H11 UNL     1      28.722   4.367  48.137  1.00  0.00     0.169 HD
ENDROOT
BRANCH   3  20
HETATM   20  C4  UNL     1      24.265   2.238  53.080  1.00  0.00     0.148 C 
BRANCH  20  21
HETATM   21  C5  UNL     1      25.649   1.769  53.154  1.00  0.00     0.274 C 
HETATM   22  O1  UNL     1      26.287   2.102  54.208  1.00  0.00    -0.264 OA
BRANCH  21  23
HETATM   23  O2  UNL     1      26.584   1.037  52.431  1.00  0.00    -0.236 OA
HETATM   24 BR1  UNL     1      26.788  -0.817  52.719  1.00  0.00     0.109 Br
ENDBRANCH  21  23
ENDBRANCH  20  21
ENDBRANCH   3  20
TORSDOF 3
ENDMDL
MODEL 6
REMARK VINA RESULT:      -7.5      2.070      3.333
REMARK  3 active torsions:
REMARK  status: ('A' for Active; 'I' for Inactive)
REMARK    1  A    between atoms: C3_3  and  C4_4 
REMARK    2  A    between atoms: C4_4  and  C5_5 
REMARK    3  A    between atoms: C5_5  and  O2_7 
ROOT
HETATM    1  C1  UNL     1      24.594   2.983  53.690  1.00  0.00     0.019 C 
HETATM    2  C2  UNL     1      24.482   1.738  52.822  1.00  0.00     0.044 C 
HETATM    3  C3  UNL     1      25.280   1.924  51.564  1.00  0.00    -0.048 C 
HETATM    4  C6  UNL     1      24.780   2.276  50.395  1.00  0.00     0.087 C 
HETATM    5  N1  UNL     1      23.379   2.470  50.421  1.00  0.00    -0.395 N 
HETATM    6  C7  UNL     1      22.722   2.681  51.722  1.00  0.00     0.155 C 
HETATM    7  C8  UNL     1      23.038   1.547  52.568  1.00  0.00    -0.038 C 
HETATM    8  C9  UNL     1      22.364   0.542  53.081  1.00  0.00     0.049 A 
HETATM    9  C10 UNL     1      22.991  -0.450  53.936  1.00  0.00     0.257 A 
HETATM   10  O3  UNL     1      24.092  -0.742  54.446  1.00  0.00    -0.267 OA
HETATM   11  N2  UNL     1      21.995  -1.393  54.303  1.00  0.00    -0.322 N 
HETATM   12  C11 UNL     1      20.729  -1.052  53.713  1.00  0.00     0.046 A 
HETATM   13  C12 UNL     1      19.460  -1.610  53.736  1.00  0.00     0.030 A 
HETATM   14  C13 UNL     1      18.420  -1.046  53.050  1.00  0.00     0.002 A 
HETATM   15  C14 UNL     1      18.648   0.100  52.328  1.00  0.00     0.001 A 
HETATM   16  C15 UNL     1      19.915   0.629  52.326  1.00  0.00     0.015 A 
HETATM   17  C16 UNL     1      20.985   0.096  52.999  1.00  0.00     0.007 A 
HETATM   18  H8  UNL     1      22.789   2.470  49.544  1.00  0.00     0.159 HD
HETATM   19  H11 UNL     1      22.000  -2.273  54.907  1.00  0.00     0.169 HD
ENDROOT
BRANCH   3  20
HETATM   20  C4  UNL     1      26.754   1.689  51.663  1.00  0.00     0.148 C 
BRANCH  20  21
HETATM   21  C5  UNL     1      27.074   0.495  52.446  1.00  0.00     0.274 C 
HETATM   22  O1  UNL     1      26.732  -0.616  51.919  1.00  0.00    -0.264 OA
BRANCH  21  23
HETATM   23  O2  UNL     1      27.662   0.113  53.646  1.00  0.00    -0.236 OA
HETATM   24 BR1  UNL     1      29.458  -0.461  53.700  1.00  0.00     0.109 Br
ENDBRANCH  21  23
ENDBRANCH  20  21
ENDBRANCH   3  20
TORSDOF 3
ENDMDL
MODEL 7
REMARK VINA RESULT:      -7.2      3.769      6.702
REMARK  3 active torsions:
REMARK  status: ('A' for Active; 'I' for Inactive)
REMARK    1  A    between atoms: C3_3  and  C4_4 
REMARK    2  A    between atoms: C4_4  and  C5_5 
REMARK    3  A    between atoms: C5_5  and  O2_7 
ROOT
HETATM    1  C1  UNL     1      21.871   3.493  52.134  1.00  0.00     0.019 C 
HETATM    2  C2  UNL     1      22.690   2.496  51.326  1.00  0.00     0.044 C 
HETATM    3  C3  UNL     1      21.775   1.533  50.631  1.00  0.00    -0.048 C 
HETATM    4  C6  UNL     1      21.488   0.317  51.055  1.00  0.00     0.087 C 
HETATM    5  N1  UNL     1      22.139  -0.020  52.266  1.00  0.00    -0.395 N 
HETATM    6  C7  UNL     1      22.675   1.067  53.103  1.00  0.00     0.155 C 
HETATM    7  C8  UNL     1      23.596   1.838  52.292  1.00  0.00    -0.038 C 
HETATM    8  C9  UNL     1      24.896   2.034  52.278  1.00  0.00     0.049 A 
HETATM    9  C10 UNL     1      25.532   2.915  51.315  1.00  0.00     0.257 A 
HETATM   10  O3  UNL     1      25.264   3.671  50.359  1.00  0.00    -0.267 OA
HETATM   11  N2  UNL     1      26.930   2.889  51.566  1.00  0.00    -0.322 N 
HETATM   12  C11 UNL     1      27.233   2.017  52.668  1.00  0.00     0.046 A 
HETATM   13  C12 UNL     1      28.397   1.631  53.314  1.00  0.00     0.030 A 
HETATM   14  C13 UNL     1      28.373   0.752  54.363  1.00  0.00     0.002 A 
HETATM   15  C14 UNL     1      27.164   0.251  54.777  1.00  0.00     0.001 A 
HETATM   16  C15 UNL     1      26.029   0.653  54.118  1.00  0.00     0.015 A 
HETATM   17  C16 UNL     1      26.008   1.530  53.063  1.00  0.00     0.007 A 
HETATM   18  H8  UNL     1      22.253  -1.019  52.590  1.00  0.00     0.159 HD
HETATM   19  H11 UNL     1      27.769   3.372  51.116  1.00  0.00     0.169 HD
ENDROOT
BRANCH   3  20
HETATM   20  C4  UNL     1      21.146   2.004  49.358  1.00  0.00     0.148 C 
BRANCH  20  21
HETATM   21  C5  UNL     1      22.122   2.599  48.444  1.00  0.00     0.274 C 
HETATM   22  O1  UNL     1      22.569   1.823  47.535  1.00  0.00    -0.264 OA
BRANCH  21  23
HETATM   23  O2  UNL     1      22.782   3.797  48.196  1.00  0.00    -0.236 OA
HETATM   24 BR1  UNL     1      22.139   5.001  46.894  1.00  0.00     0.109 Br
ENDBRANCH  21  23
ENDBRANCH  20  21
ENDBRANCH   3  20
TORSDOF 3
ENDMDL
MODEL 8
REMARK VINA RESULT:      -7.1      8.575      9.924
REMARK  3 active torsions:
REMARK  status: ('A' for Active; 'I' for Inactive)
REMARK    1  A    between atoms: C3_3  and  C4_4 
REMARK    2  A    between atoms: C4_4  and  C5_5 
REMARK    3  A    between atoms: C5_5  and  O2_7 
ROOT
HETATM    1  C1  UNL     1      30.370   7.706  46.220  1.00  0.00     0.019 C 
HETATM    2  C2  UNL     1      29.806   8.039  47.593  1.00  0.00     0.044 C 
HETATM    3  C3  UNL     1      30.910   8.510  48.494  1.00  0.00    -0.048 C 
HETATM    4  C6  UNL     1      31.529   7.765  49.389  1.00  0.00     0.087 C 
HETATM    5  N1  UNL     1      31.049   6.434  49.436  1.00  0.00    -0.395 N 
HETATM    6  C7  UNL     1      30.285   5.921  48.287  1.00  0.00     0.155 C 
HETATM    7  C8  UNL     1      29.155   6.803  48.076  1.00  0.00    -0.038 C 
HETATM    8  C9  UNL     1      27.850   6.704  48.206  1.00  0.00     0.049 A 
HETATM    9  C10 UNL     1      26.958   7.803  47.880  1.00  0.00     0.257 A 
HETATM   10  O3  UNL     1      26.971   8.975  47.454  1.00  0.00    -0.267 OA
HETATM   11  N2  UNL     1      25.631   7.372  48.144  1.00  0.00    -0.322 N 
HETATM   12  C11 UNL     1      25.622   6.020  48.635  1.00  0.00     0.046 A 
HETATM   13  C12 UNL     1      24.635   5.136  49.039  1.00  0.00     0.030 A 
HETATM   14  C13 UNL     1      24.940   3.876  49.477  1.00  0.00     0.002 A 
HETATM   15  C14 UNL     1      26.258   3.490  49.510  1.00  0.00     0.001 A 
HETATM   16  C15 UNL     1      27.213   4.388  49.103  1.00  0.00     0.015 A 
HETATM   17  C16 UNL     1      26.950   5.659  48.658  1.00  0.00     0.007 A 
HETATM   18  H8  UNL     1      31.219   5.798  50.263  1.00  0.00     0.159 HD
HETATM   19  H11 UNL     1      24.673   7.835  48.054  1.00  0.00     0.169 HD
ENDROOT
BRANCH   3  20
HETATM   20  C4  UNL     1      31.330   9.939  48.351  1.00  0.00     0.148 C 
BRANCH  20  21
HETATM   21  C5  UNL     1      30.186  10.849  48.282  1.00  0.00     0.274 C 
HETATM   22  O1  UNL     1      30.130  11.584  47.241  1.00  0.00    -0.264 OA
BRANCH  21  23
HETATM   23  O2  UNL     1      29.056  11.222  49.000  1.00  0.00    -0.236 OA
HETATM   24 BR1  UNL     1      28.193  12.864  48.656  1.00  0.00     0.109 Br
ENDBRANCH  21  23
ENDBRANCH  20  21
ENDBRANCH   3  20
TORSDOF 3
ENDMDL
MODEL 9
REMARK VINA RESULT:      -7.0      4.358      6.624
REMARK  3 active torsions:
REMARK  status: ('A' for Active; 'I' for Inactive)
REMARK    1  A    between atoms: C3_3  and  C4_4 
REMARK    2  A    between atoms: C4_4  and  C5_5 
REMARK    3  A    between atoms: C5_5  and  O2_7 
ROOT
HETATM    1  C1  UNL     1      23.332   3.441  48.462  1.00  0.00     0.019 C 
HETATM    2  C2  UNL     1      23.566   3.861  49.905  1.00  0.00     0.044 C 
HETATM    3  C3  UNL     1      23.941   5.313  49.956  1.00  0.00    -0.048 C 
HETATM    4  C6  UNL     1      25.172   5.775  50.060  1.00  0.00     0.087 C 
HETATM    5  N1  UNL     1      26.149   4.753  50.124  1.00  0.00    -0.395 N 
HETATM    6  C7  UNL     1      25.786   3.403  49.662  1.00  0.00     0.155 C 
HETATM    7  C8  UNL     1      24.629   2.972  50.421  1.00  0.00    -0.038 C 
HETATM    8  C9  UNL     1      24.394   2.057  51.336  1.00  0.00     0.049 A 
HETATM    9  C10 UNL     1      23.071   1.855  51.901  1.00  0.00     0.257 A 
HETATM   10  O3  UNL     1      21.902   2.286  51.826  1.00  0.00    -0.267 OA
HETATM   11  N2  UNL     1      23.168   0.812  52.859  1.00  0.00    -0.322 N 
HETATM   12  C11 UNL     1      24.517   0.320  52.942  1.00  0.00     0.046 A 
HETATM   13  C12 UNL     1      25.154  -0.658  53.690  1.00  0.00     0.030 A 
HETATM   14  C13 UNL     1      26.493  -0.904  53.550  1.00  0.00     0.002 A 
HETATM   15  C14 UNL     1      27.210  -0.160  52.645  1.00  0.00     0.001 A 
HETATM   16  C15 UNL     1      26.551   0.800  51.920  1.00  0.00     0.015 A 
HETATM   17  C16 UNL     1      25.212   1.079  52.028  1.00  0.00     0.007 A 
HETATM   18  H8  UNL     1      27.126   4.924  50.489  1.00  0.00     0.159 HD
HETATM   19  H11 UNL     1      22.464   0.337  53.507  1.00  0.00     0.169 HD
ENDROOT
BRANCH   3  20
HETATM   20  C4  UNL     1      22.819   6.300  49.880  1.00  0.00     0.148 C 
BRANCH  20  21
HETATM   21  C5  UNL     1      21.645   5.863  50.637  1.00  0.00     0.274 C 
HETATM   22  O1  UNL     1      21.841   5.642  51.878  1.00  0.00    -0.264 OA
BRANCH  21  23
HETATM   23  O2  UNL     1      20.293   5.585  50.471  1.00  0.00    -0.236 OA
HETATM   24 BR1  UNL     1      19.732   4.068  49.501  1.00  0.00     0.109 Br
ENDBRANCH  21  23
ENDBRANCH  20  21
ENDBRANCH   3  20
TORSDOF 3
ENDMDL
