MODEL 1
REMARK VINA RESULT:      -8.5      0.000      0.000
REMARK  5 active torsions:
REMARK  status: ('A' for Active; 'I' for Inactive)
REMARK    1  A    between atoms: C2_2  and  N1_3 
REMARK    2  A    between atoms: N1_3  and  C3_4 
REMARK       I    between atoms: N1_3  and  C10_12 
REMARK    3  A    between atoms: C3_4  and  C4_5 
REMARK       I    between atoms: C10_12  and  N2_14 
REMARK    4  A    between atoms: N2_14  and  C11_15 
REMARK    5  A    between atoms: C20_25  and  O2_26 
ROOT
HETATM    1  N1  UNL     1      24.569   3.314  50.690  1.00  0.00    -0.311 N 
HETATM    2  C10 UNL     1      25.415   2.777  51.669  1.00  0.00     0.324 C 
HETATM    3  O1  UNL     1      24.883   2.749  52.803  1.00  0.00    -0.247 OA
HETATM    4  N2  UNL     1      26.731   2.270  51.626  1.00  0.00    -0.309 N 
HETATM    5  H10 UNL     1      27.146   2.317  50.686  1.00  0.00     0.170 HD
ENDROOT
BRANCH   1   6
HETATM    6  C2  UNL     1      23.295   3.755  51.160  1.00  0.00     0.101 A 
HETATM    7  C1  UNL     1      22.851   2.956  52.393  1.00  0.00     0.051 C 
HETATM    8  C17 UNL     1      22.285   3.541  50.065  1.00  0.00     0.012 A 
HETATM    9  C18 UNL     1      21.684   4.720  49.815  1.00  0.00     0.020 A 
HETATM   10  C19 UNL     1      22.241   5.766  50.697  1.00  0.00     0.042 A 
HETATM   11 BR1  UNL     1      21.730   7.601  50.738  1.00  0.00    -0.048 Br
HETATM   12  C20 UNL     1      23.178   5.194  51.473  1.00  0.00     0.092 A 
BRANCH  12  13
HETATM   13  O2  UNL     1      23.960   5.796  52.444  1.00  0.00    -0.361 OA
HETATM   14  H18 UNL     1      23.913   5.588  53.430  1.00  0.00     0.217 HD
ENDBRANCH  12  13
ENDBRANCH   1   6
BRANCH   1  15
HETATM   15  C3  UNL     1      25.140   3.320  49.343  1.00  0.00     0.167 C 
BRANCH  15  16
HETATM   16  C4  UNL     1      25.914   4.535  49.031  1.00  0.00    -0.040 A 
HETATM   17  C5  UNL     1      25.451   5.822  48.883  1.00  0.00     0.012 A 
HETATM   18  C6  UNL     1      26.189   6.929  48.578  1.00  0.00     0.043 A 
HETATM   19  C7  UNL     1      27.541   6.786  48.390  1.00  0.00     0.116 A 
HETATM   20  F1  UNL     1      28.293   7.870  48.087  1.00  0.00    -0.206 F 
HETATM   21  C8  UNL     1      28.093   5.530  48.519  1.00  0.00     0.043 A 
HETATM   22  C9  UNL     1      27.295   4.451  48.830  1.00  0.00     0.012 A 
ENDBRANCH  15  16
ENDBRANCH   1  15
BRANCH   4  23
HETATM   23  C11 UNL     1      27.531   1.738  52.657  1.00  0.00     0.036 A 
HETATM   24  C12 UNL     1      28.421   2.374  53.470  1.00  0.00     0.029 A 
HETATM   25  C13 UNL     1      29.171   1.801  54.457  1.00  0.00     0.002 A 
HETATM   26  C14 UNL     1      29.028   0.453  54.669  1.00  0.00     0.000 A 
HETATM   27  C15 UNL     1      28.149  -0.272  53.895  1.00  0.00     0.002 A 
HETATM   28  C16 UNL     1      27.439   0.375  52.930  1.00  0.00     0.029 A 
ENDBRANCH   4  23
TORSDOF 5
ENDMDL
MODEL 2
REMARK VINA RESULT:      -7.9      2.848      5.943
REMARK  5 active torsions:
REMARK  status: ('A' for Active; 'I' for Inactive)
REMARK    1  A    between atoms: C2_2  and  N1_3 
REMARK    2  A    between atoms: N1_3  and  C3_4 
REMARK       I    between atoms: N1_3  and  C10_12 
REMARK    3  A    between atoms: C3_4  and  C4_5 
REMARK       I    between atoms: C10_12  and  N2_14 
REMARK    4  A    between atoms: N2_14  and  C11_15 
REMARK    5  A    between atoms: C20_25  and  O2_26 
ROOT
HETATM    1  N1  UNL     1      24.873   2.577  51.165  1.00  0.00    -0.311 N 
HETATM    2  C10 UNL     1      25.335   3.717  50.494  1.00  0.00     0.324 C 
HETATM    3  O1  UNL     1      24.685   4.746  50.789  1.00  0.00    -0.247 OA
HETATM    4  N2  UNL     1      26.375   3.927  49.564  1.00  0.00    -0.309 N 
HETATM    5  H10 UNL     1      26.883   3.063  49.331  1.00  0.00     0.170 HD
ENDROOT
BRANCH   1   6
HETATM    6  C2  UNL     1      23.748   2.785  52.017  1.00  0.00     0.101 A 
HETATM    7  C1  UNL     1      23.862   4.115  52.774  1.00  0.00     0.051 C 
HETATM    8  C17 UNL     1      23.701   1.667  53.024  1.00  0.00     0.012 A 
HETATM    9  C18 UNL     1      22.492   1.080  52.940  1.00  0.00     0.020 A 
HETATM   10  C19 UNL     1      21.680   1.745  51.901  1.00  0.00     0.042 A 
HETATM   11 BR1  UNL     1      19.900   1.292  51.395  1.00  0.00    -0.048 Br
HETATM   12  C20 UNL     1      22.421   2.733  51.369  1.00  0.00     0.092 A 
BRANCH  12  13
HETATM   13  O2  UNL     1      22.066   3.614  50.362  1.00  0.00    -0.361 OA
HETATM   14  H18 UNL     1      21.423   4.384  50.473  1.00  0.00     0.217 HD
ENDBRANCH  12  13
ENDBRANCH   1   6
BRANCH   1  15
HETATM   15  C3  UNL     1      25.640   1.363  50.880  1.00  0.00     0.167 C 
BRANCH  15  16
HETATM   16  C4  UNL     1      26.609   1.013  51.933  1.00  0.00    -0.040 A 
HETATM   17  C5  UNL     1      27.430   1.854  52.646  1.00  0.00     0.012 A 
HETATM   18  C6  UNL     1      28.333   1.500  53.608  1.00  0.00     0.043 A 
HETATM   19  C7  UNL     1      28.466   0.172  53.926  1.00  0.00     0.116 A 
HETATM   20  F1  UNL     1      29.353  -0.203  54.877  1.00  0.00    -0.206 F 
HETATM   21  C8  UNL     1      27.681  -0.745  53.261  1.00  0.00     0.043 A 
HETATM   22  C9  UNL     1      26.787  -0.325  52.300  1.00  0.00     0.012 A 
ENDBRANCH  15  16
ENDBRANCH   1  15
BRANCH   4  23
HETATM   23  C11 UNL     1      26.792   5.111  48.923  1.00  0.00     0.036 A 
HETATM   24  C12 UNL     1      26.065   6.222  48.612  1.00  0.00     0.029 A 
HETATM   25  C13 UNL     1      26.528   7.345  47.988  1.00  0.00     0.002 A 
HETATM   26  C14 UNL     1      27.852   7.379  47.630  1.00  0.00     0.000 A 
HETATM   27  C15 UNL     1      28.663   6.301  47.906  1.00  0.00     0.002 A 
HETATM   28  C16 UNL     1      28.124   5.218  48.531  1.00  0.00     0.029 A 
ENDBRANCH   4  23
TORSDOF 5
ENDMDL
MODEL 3
REMARK VINA RESULT:      -7.8      3.087      5.225
REMARK  5 active torsions:
REMARK  status: ('A' for Active; 'I' for Inactive)
REMARK    1  A    between atoms: C2_2  and  N1_3 
REMARK    2  A    between atoms: N1_3  and  C3_4 
REMARK       I    between atoms: N1_3  and  C10_12 
REMARK    3  A    between atoms: C3_4  and  C4_5 
REMARK       I    between atoms: C10_12  and  N2_14 
REMARK    4  A    between atoms: N2_14  and  C11_15 
REMARK    5  A    between atoms: C20_25  and  O2_26 
ROOT
HETATM    1  N1  UNL     1      24.993   3.019  51.546  1.00  0.00    -0.311 N 
HETATM    2  C10 UNL     1      26.033   2.111  51.781  1.00  0.00     0.324 C 
HETATM    3  O1  UNL     1      26.797   1.987  50.797  1.00  0.00    -0.247 OA
HETATM    4  N2  UNL     1      26.381   1.319  52.897  1.00  0.00    -0.309 N 
HETATM    5  H10 UNL     1      25.730   1.431  53.685  1.00  0.00     0.170 HD
ENDROOT
BRANCH   1   6
HETATM    6  C2  UNL     1      24.973   3.600  50.242  1.00  0.00     0.101 A 
HETATM    7  C1  UNL     1      23.980   2.871  49.325  1.00  0.00     0.051 C 
HETATM    8  C17 UNL     1      26.349   3.478  49.646  1.00  0.00     0.012 A 
HETATM    9  C18 UNL     1      26.762   4.710  49.293  1.00  0.00     0.020 A 
HETATM   10  C19 UNL     1      25.720   5.704  49.625  1.00  0.00     0.042 A 
HETATM   11 BR1  UNL     1      25.814   7.583  49.326  1.00  0.00    -0.048 Br
HETATM   12  C20 UNL     1      24.685   5.047  50.178  1.00  0.00     0.092 A 
BRANCH  12  13
HETATM   13  O2  UNL     1      23.494   5.577  50.643  1.00  0.00    -0.361 OA
HETATM   14  H18 UNL     1      22.581   5.187  50.459  1.00  0.00     0.217 HD
ENDBRANCH  12  13
ENDBRANCH   1   6
BRANCH   1  15
HETATM   15  C3  UNL     1      24.106   3.224  52.693  1.00  0.00     0.167 C 
BRANCH  15  16
HETATM   16  C4  UNL     1      22.917   2.354  52.686  1.00  0.00    -0.040 A 
HETATM   17  C5  UNL     1      22.832   1.028  53.039  1.00  0.00     0.012 A 
HETATM   18  C6  UNL     1      21.717   0.240  53.007  1.00  0.00     0.043 A 
HETATM   19  C7  UNL     1      20.534   0.792  52.583  1.00  0.00     0.116 A 
HETATM   20  F1  UNL     1      19.416   0.031  52.543  1.00  0.00    -0.206 F 
HETATM   21  C8  UNL     1      20.525   2.118  52.208  1.00  0.00     0.043 A 
HETATM   22  C9  UNL     1      21.684   2.862  52.263  1.00  0.00     0.012 A 
ENDBRANCH  15  16
ENDBRANCH   1  15
BRANCH   4  23
HETATM   23  C11 UNL     1      27.452   0.419  53.070  1.00  0.00     0.036 A 
HETATM   24  C12 UNL     1      27.478  -0.931  52.883  1.00  0.00     0.029 A 
HETATM   25  C13 UNL     1      28.553  -1.754  53.067  1.00  0.00     0.002 A 
HETATM   26  C14 UNL     1      29.731  -1.186  53.481  1.00  0.00     0.000 A 
HETATM   27  C15 UNL     1      29.797   0.173  53.695  1.00  0.00     0.002 A 
HETATM   28  C16 UNL     1      28.680   0.924  53.488  1.00  0.00     0.029 A 
ENDBRANCH   4  23
TORSDOF 5
ENDMDL
MODEL 4
REMARK VINA RESULT:      -7.8      4.037      6.712
REMARK  5 active torsions:
REMARK  status: ('A' for Active; 'I' for Inactive)
REMARK    1  A    between atoms: C2_2  and  N1_3 
REMARK    2  A    between atoms: N1_3  and  C3_4 
REMARK       I    between atoms: N1_3  and  C10_12 
REMARK    3  A    between atoms: C3_4  and  C4_5 
REMARK       I    between atoms: C10_12  and  N2_14 
REMARK    4  A    between atoms: N2_14  and  C11_15 
REMARK    5  A    between atoms: C20_25  and  O2_26 
ROOT
HETATM    1  N1  UNL     1      22.598   2.745  51.875  1.00  0.00    -0.311 N 
HETATM    2  C10 UNL     1      21.446   1.947  51.867  1.00  0.00     0.324 C 
HETATM    3  O1  UNL     1      20.746   2.121  50.844  1.00  0.00    -0.247 OA
HETATM    4  N2  UNL     1      20.930   1.000  52.777  1.00  0.00    -0.309 N 
HETATM    5  H10 UNL     1      21.519   0.887  53.613  1.00  0.00     0.170 HD
ENDROOT
BRANCH   1   6
HETATM    6  C2  UNL     1      22.743   3.618  50.755  1.00  0.00     0.101 A 
HETATM    7  C1  UNL     1      21.521   4.535  50.605  1.00  0.00     0.051 C 
HETATM    8  C17 UNL     1      22.866   2.780  49.511  1.00  0.00     0.012 A 
HETATM    9  C18 UNL     1      24.007   3.126  48.885  1.00  0.00     0.020 A 
HETATM   10  C19 UNL     1      24.700   4.182  49.651  1.00  0.00     0.042 A 
HETATM   11 BR1  UNL     1      26.352   5.012  49.191  1.00  0.00    -0.048 Br
HETATM   12  C20 UNL     1      23.957   4.459  50.737  1.00  0.00     0.092 A 
BRANCH  12  13
HETATM   13  O2  UNL     1      24.223   5.379  51.736  1.00  0.00    -0.361 OA
HETATM   14  H18 UNL     1      24.706   5.170  52.597  1.00  0.00     0.217 HD
ENDBRANCH  12  13
ENDBRANCH   1   6
BRANCH   1  15
HETATM   15  C3  UNL     1      23.466   2.533  53.035  1.00  0.00     0.167 C 
BRANCH  15  16
HETATM   16  C4  UNL     1      24.490   1.494  52.827  1.00  0.00    -0.040 A 
HETATM   17  C5  UNL     1      25.611   1.553  52.032  1.00  0.00     0.012 A 
HETATM   18  C6  UNL     1      26.537   0.567  51.845  1.00  0.00     0.043 A 
HETATM   19  C7  UNL     1      26.369  -0.625  52.502  1.00  0.00     0.116 A 
HETATM   20  F1  UNL     1      27.274  -1.617  52.333  1.00  0.00    -0.206 F 
HETATM   21  C8  UNL     1      25.271  -0.775  53.322  1.00  0.00     0.043 A 
HETATM   22  C9  UNL     1      24.371   0.258  53.470  1.00  0.00     0.012 A 
ENDBRANCH  15  16
ENDBRANCH   1  15
BRANCH   4  23
HETATM   23  C11 UNL     1      19.755   0.224  52.708  1.00  0.00     0.036 A 
HETATM   24  C12 UNL     1      18.659   0.394  51.916  1.00  0.00     0.029 A 
HETATM   25  C13 UNL     1      17.545  -0.396  51.893  1.00  0.00     0.002 A 
HETATM   26  C14 UNL     1      17.506  -1.473  52.743  1.00  0.00     0.000 A 
HETATM   27  C15 UNL     1      18.571  -1.723  53.580  1.00  0.00     0.002 A 
HETATM   28  C16 UNL     1      19.645  -0.886  53.541  1.00  0.00     0.029 A 
ENDBRANCH   4  23
TORSDOF 5
ENDMDL
MODEL 5
REMARK VINA RESULT:      -7.7      3.158      4.987
REMARK  5 active torsions:
REMARK  status: ('A' for Active; 'I' for Inactive)
REMARK    1  A    between atoms: C2_2  and  N1_3 
REMARK    2  A    between atoms: N1_3  and  C3_4 
REMARK       I    between atoms: N1_3  and  C10_12 
REMARK    3  A    between atoms: C3_4  and  C4_5 
REMARK       I    between atoms: C10_12  and  N2_14 
REMARK    4  A    between atoms: N2_14  and  C11_15 
REMARK    5  A    between atoms: C20_25  and  O2_26 
ROOT
HETATM    1  N1  UNL     1      24.911   3.253  51.459  1.00  0.00    -0.311 N 
HETATM    2  C10 UNL     1      26.002   2.424  51.748  1.00  0.00     0.324 C 
HETATM    3  O1  UNL     1      26.888   2.466  50.864  1.00  0.00    -0.247 OA
HETATM    4  N2  UNL     1      26.291   1.561  52.828  1.00  0.00    -0.309 N 
HETATM    5  H10 UNL     1      25.541   1.538  53.531  1.00  0.00     0.170 HD
ENDROOT
BRANCH   1   6
HETATM    6  C2  UNL     1      24.990   3.954  50.218  1.00  0.00     0.101 A 
HETATM    7  C1  UNL     1      26.297   3.630  49.480  1.00  0.00     0.051 C 
HETATM    8  C17 UNL     1      24.957   5.431  50.502  1.00  0.00     0.012 A 
HETATM    9  C18 UNL     1      23.942   5.970  49.801  1.00  0.00     0.020 A 
HETATM   10  C19 UNL     1      23.250   4.917  49.029  1.00  0.00     0.042 A 
HETATM   11 BR1  UNL     1      21.750   5.160  47.879  1.00  0.00    -0.048 Br
HETATM   12  C20 UNL     1      23.867   3.749  49.281  1.00  0.00     0.092 A 
BRANCH  12  13
HETATM   13  O2  UNL     1      23.554   2.498  48.777  1.00  0.00    -0.361 OA
HETATM   14  H18 UNL     1      24.077   1.656  48.967  1.00  0.00     0.217 HD
ENDBRANCH  12  13
ENDBRANCH   1   6
BRANCH   1  15
HETATM   15  C3  UNL     1      23.876   3.266  52.494  1.00  0.00     0.167 C 
BRANCH  15  16
HETATM   16  C4  UNL     1      22.736   2.379  52.203  1.00  0.00    -0.040 A 
HETATM   17  C5  UNL     1      22.742   1.013  52.039  1.00  0.00     0.012 A 
HETATM   18  C6  UNL     1      21.670   0.217  51.754  1.00  0.00     0.043 A 
HETATM   19  C7  UNL     1      20.438   0.801  51.605  1.00  0.00     0.116 A 
HETATM   20  F1  UNL     1      19.361   0.032  51.323  1.00  0.00    -0.206 F 
HETATM   21  C8  UNL     1      20.337   2.168  51.752  1.00  0.00     0.043 A 
HETATM   22  C9  UNL     1      21.456   2.919  52.042  1.00  0.00     0.012 A 
ENDBRANCH  15  16
ENDBRANCH   1  15
BRANCH   4  23
HETATM   23  C11 UNL     1      27.418   0.749  53.061  1.00  0.00     0.036 A 
HETATM   24  C12 UNL     1      28.663   1.107  53.486  1.00  0.00     0.029 A 
HETATM   25  C13 UNL     1      29.721   0.268  53.696  1.00  0.00     0.002 A 
HETATM   26  C14 UNL     1      29.533  -1.071  53.461  1.00  0.00     0.000 A 
HETATM   27  C15 UNL     1      28.306  -1.524  53.029  1.00  0.00     0.002 A 
HETATM   28  C16 UNL     1      27.302  -0.623  52.844  1.00  0.00     0.029 A 
ENDBRANCH   4  23
TORSDOF 5
ENDMDL
MODEL 6
REMARK VINA RESULT:      -7.7      3.249      6.012
REMARK  5 active torsions:
REMARK  status: ('A' for Active; 'I' for Inactive)
REMARK    1  A    between atoms: C2_2  and  N1_3 
REMARK    2  A    between atoms: N1_3  and  C3_4 
REMARK       I    between atoms: N1_3  and  C10_12 
REMARK    3  A    between atoms: C3_4  and  C4_5 
REMARK       I    between atoms: C10_12  and  N2_14 
REMARK    4  A    between atoms: N2_14  and  C11_15 
REMARK    5  A    between atoms: C20_25  and  O2_26 
ROOT
HETATM    1  N1  UNL     1      23.386   2.420  51.794  1.00  0.00    -0.311 N 
HETATM    2  C10 UNL     1      24.053   3.282  50.914  1.00  0.00     0.324 C 
HETATM    3  O1  UNL     1      23.451   3.419  49.825  1.00  0.00    -0.247 OA
HETATM    4  N2  UNL     1      25.255   4.015  51.016  1.00  0.00    -0.309 N 
HETATM    5  H10 UNL     1      25.733   3.874  51.916  1.00  0.00     0.170 HD
ENDROOT
BRANCH   1   6
HETATM    6  C2  UNL     1      22.185   1.839  51.286  1.00  0.00     0.101 A 
HETATM    7  C1  UNL     1      22.310   1.527  49.788  1.00  0.00     0.051 C 
HETATM    8  C17 UNL     1      21.063   2.824  51.474  1.00  0.00     0.012 A 
HETATM    9  C18 UNL     1      20.087   2.217  52.176  1.00  0.00     0.020 A 
HETATM   10  C19 UNL     1      20.485   0.831  52.495  1.00  0.00     0.042 A 
HETATM   11 BR1  UNL     1      19.458  -0.444  53.470  1.00  0.00    -0.048 Br
HETATM   12  C20 UNL     1      21.708   0.623  51.975  1.00  0.00     0.092 A 
BRANCH  12  13
HETATM   13  O2  UNL     1      22.471  -0.531  52.033  1.00  0.00    -0.361 OA
HETATM   14  H18 UNL     1      23.436  -0.566  52.324  1.00  0.00     0.217 HD
ENDBRANCH  12  13
ENDBRANCH   1   6
BRANCH   1  15
HETATM   15  C3  UNL     1      24.036   2.273  53.097  1.00  0.00     0.167 C 
BRANCH  15  16
HETATM   16  C4  UNL     1      25.229   1.408  53.070  1.00  0.00    -0.040 A 
HETATM   17  C5  UNL     1      25.621   0.533  52.085  1.00  0.00     0.012 A 
HETATM   18  C6  UNL     1      26.725  -0.271  52.093  1.00  0.00     0.043 A 
HETATM   19  C7  UNL     1      27.557  -0.233  53.183  1.00  0.00     0.116 A 
HETATM   20  F1  UNL     1      28.658  -1.020  53.213  1.00  0.00    -0.206 F 
HETATM   21  C8  UNL     1      27.243   0.617  54.221  1.00  0.00     0.043 A 
HETATM   22  C9  UNL     1      26.114   1.405  54.153  1.00  0.00     0.012 A 
ENDBRANCH  15  16
ENDBRANCH   1  15
BRANCH   4  23
HETATM   23  C11 UNL     1      25.874   4.873  50.086  1.00  0.00     0.036 A 
HETATM   24  C12 UNL     1      25.546   6.151  49.744  1.00  0.00     0.029 A 
HETATM   25  C13 UNL     1      26.189   6.936  48.830  1.00  0.00     0.002 A 
HETATM   26  C14 UNL     1      27.276   6.406  48.182  1.00  0.00     0.000 A 
HETATM   27  C15 UNL     1      27.681   5.120  48.465  1.00  0.00     0.002 A 
HETATM   28  C16 UNL     1      26.986   4.402  49.390  1.00  0.00     0.029 A 
ENDBRANCH   4  23
TORSDOF 5
ENDMDL
MODEL 7
REMARK VINA RESULT:      -7.6      3.567      5.448
REMARK  5 active torsions:
REMARK  status: ('A' for Active; 'I' for Inactive)
REMARK    1  A    between atoms: C2_2  and  N1_3 
REMARK    2  A    between atoms: N1_3  and  C3_4 
REMARK       I    between atoms: N1_3  and  C10_12 
REMARK    3  A    between atoms: C3_4  and  C4_5 
REMARK       I    between atoms: C10_12  and  N2_14 
REMARK    4  A    between atoms: N2_14  and  C11_15 
REMARK    5  A    between atoms: C20_25  and  O2_26 
ROOT
HETATM    1  N1  UNL     1      23.700   2.397  51.463  1.00  0.00    -0.311 N 
HETATM    2  C10 UNL     1      24.846   1.961  52.141  1.00  0.00     0.324 C 
HETATM    3  O1  UNL     1      25.442   2.892  52.728  1.00  0.00    -0.247 OA
HETATM    4  N2  UNL     1      25.450   0.694  52.287  1.00  0.00    -0.309 N 
HETATM    5  H10 UNL     1      24.946  -0.049  51.784  1.00  0.00     0.170 HD
ENDROOT
BRANCH   1   6
HETATM    6  C2  UNL     1      23.446   3.800  51.534  1.00  0.00     0.101 A 
HETATM    7  C1  UNL     1      23.597   4.319  52.971  1.00  0.00     0.051 C 
HETATM    8  C17 UNL     1      22.032   4.050  51.083  1.00  0.00     0.012 A 
HETATM    9  C18 UNL     1      22.067   4.940  50.073  1.00  0.00     0.020 A 
HETATM   10  C19 UNL     1      23.466   5.326  49.791  1.00  0.00     0.042 A 
HETATM   11 BR1  UNL     1      24.052   6.555  48.458  1.00  0.00    -0.048 Br
HETATM   12  C20 UNL     1      24.258   4.655  50.645  1.00  0.00     0.092 A 
BRANCH  12  13
HETATM   13  O2  UNL     1      25.639   4.704  50.739  1.00  0.00    -0.361 OA
HETATM   14  H18 UNL     1      26.274   4.222  50.121  1.00  0.00     0.217 HD
ENDBRANCH  12  13
ENDBRANCH   1   6
BRANCH   1  15
HETATM   15  C3  UNL     1      22.952   1.326  50.803  1.00  0.00     0.167 C 
BRANCH  15  16
HETATM   16  C4  UNL     1      21.817   0.820  51.596  1.00  0.00    -0.040 A 
HETATM   17  C5  UNL     1      21.785   0.523  52.938  1.00  0.00     0.012 A 
HETATM   18  C6  UNL     1      20.722   0.038  53.646  1.00  0.00     0.043 A 
HETATM   19  C7  UNL     1      19.542  -0.191  52.984  1.00  0.00     0.116 A 
HETATM   20  F1  UNL     1      18.475  -0.670  53.665  1.00  0.00    -0.206 F 
HETATM   21  C8  UNL     1      19.482   0.079  51.634  1.00  0.00     0.043 A 
HETATM   22  C9  UNL     1      20.590   0.568  50.975  1.00  0.00     0.012 A 
ENDBRANCH  15  16
ENDBRANCH   1  15
BRANCH   4  23
HETATM   23  C11 UNL     1      26.612   0.320  52.991  1.00  0.00     0.036 A 
HETATM   24  C12 UNL     1      27.189   0.914  54.074  1.00  0.00     0.029 A 
HETATM   25  C13 UNL     1      28.322   0.502  54.717  1.00  0.00     0.002 A 
HETATM   26  C14 UNL     1      28.956  -0.618  54.242  1.00  0.00     0.000 A 
HETATM   27  C15 UNL     1      28.443  -1.284  53.151  1.00  0.00     0.002 A 
HETATM   28  C16 UNL     1      27.310  -0.809  52.566  1.00  0.00     0.029 A 
ENDBRANCH   4  23
TORSDOF 5
ENDMDL
MODEL 8
REMARK VINA RESULT:      -7.6      3.347      5.898
REMARK  5 active torsions:
REMARK  status: ('A' for Active; 'I' for Inactive)
REMARK    1  A    between atoms: C2_2  and  N1_3 
REMARK    2  A    between atoms: N1_3  and  C3_4 
REMARK       I    between atoms: N1_3  and  C10_12 
REMARK    3  A    between atoms: C3_4  and  C4_5 
REMARK       I    between atoms: C10_12  and  N2_14 
REMARK    4  A    between atoms: N2_14  and  C11_15 
REMARK    5  A    between atoms: C20_25  and  O2_26 
ROOT
HETATM    1  N1  UNL     1      24.639   2.694  51.747  1.00  0.00    -0.311 N 
HETATM    2  C10 UNL     1      23.520   1.884  51.984  1.00  0.00     0.324 C 
HETATM    3  O1  UNL     1      22.800   1.749  50.969  1.00  0.00    -0.247 OA
HETATM    4  N2  UNL     1      23.056   1.202  53.129  1.00  0.00    -0.309 N 
HETATM    5  H10 UNL     1      23.660   1.341  53.949  1.00  0.00     0.170 HD
ENDROOT
BRANCH   1   6
HETATM    6  C2  UNL     1      24.732   3.235  50.429  1.00  0.00     0.101 A 
HETATM    7  C1  UNL     1      23.669   2.627  49.503  1.00  0.00     0.051 C 
HETATM    8  C17 UNL     1      26.092   2.905  49.875  1.00  0.00     0.012 A 
HETATM    9  C18 UNL     1      26.682   4.056  49.503  1.00  0.00     0.020 A 
HETATM   10  C19 UNL     1      25.784   5.195  49.781  1.00  0.00     0.042 A 
HETATM   11 BR1  UNL     1      26.150   7.034  49.439  1.00  0.00    -0.048 Br
HETATM   12  C20 UNL     1      24.654   4.706  50.322  1.00  0.00     0.092 A 
BRANCH  12  13
HETATM   13  O2  UNL     1      23.539   5.411  50.741  1.00  0.00    -0.361 OA
HETATM   14  H18 UNL     1      23.565   6.231  51.328  1.00  0.00     0.217 HD
ENDBRANCH  12  13
ENDBRANCH   1   6
BRANCH   1  15
HETATM   15  C3  UNL     1      25.530   2.836  52.899  1.00  0.00     0.167 C 
BRANCH  15  16
HETATM   16  C4  UNL     1      26.567   1.792  52.980  1.00  0.00    -0.040 A 
HETATM   17  C5  UNL     1      26.451   0.455  52.679  1.00  0.00     0.012 A 
HETATM   18  C6  UNL     1      27.426  -0.496  52.779  1.00  0.00     0.043 A 
HETATM   19  C7  UNL     1      28.668  -0.119  53.223  1.00  0.00     0.116 A 
HETATM   20  F1  UNL     1      29.651  -1.043  53.328  1.00  0.00    -0.206 F 
HETATM   21  C8  UNL     1      28.877   1.204  53.548  1.00  0.00     0.043 A 
HETATM   22  C9  UNL     1      27.852   2.118  53.425  1.00  0.00     0.012 A 
ENDBRANCH  15  16
ENDBRANCH   1  15
BRANCH   4  23
HETATM   23  C11 UNL     1      21.913   0.396  53.301  1.00  0.00     0.036 A 
HETATM   24  C12 UNL     1      20.648   0.585  52.829  1.00  0.00     0.029 A 
HETATM   25  C13 UNL     1      19.576  -0.237  53.029  1.00  0.00     0.002 A 
HETATM   26  C14 UNL     1      19.770  -1.372  53.776  1.00  0.00     0.000 A 
HETATM   27  C15 UNL     1      21.018  -1.646  54.293  1.00  0.00     0.002 A 
HETATM   28  C16 UNL     1      22.034  -0.774  54.047  1.00  0.00     0.029 A 
ENDBRANCH   4  23
TORSDOF 5
ENDMDL
MODEL 9
REMARK VINA RESULT:      -7.5      3.282      5.885
REMARK  5 active torsions:
REMARK  status: ('A' for Active; 'I' for Inactive)
REMARK    1  A    between atoms: C2_2  and  N1_3 
REMARK    2  A    between atoms: N1_3  and  C3_4 
REMARK       I    between atoms: N1_3  and  C10_12 
REMARK    3  A    between atoms: C3_4  and  C4_5 
REMARK       I    between atoms: C10_12  and  N2_14 
REMARK    4  A    between atoms: N2_14  and  C11_15 
REMARK    5  A    between atoms: C20_25  and  O2_26 
ROOT
HETATM    1  N1  UNL     1      23.153   4.526  51.377  1.00  0.00    -0.311 N 
HETATM    2  C10 UNL     1      24.096   5.037  50.475  1.00  0.00     0.324 C 
HETATM    3  O1  UNL     1      23.582   5.387  49.388  1.00  0.00    -0.247 OA
HETATM    4  N2  UNL     1      25.491   5.230  50.554  1.00  0.00    -0.309 N 
HETATM    5  H10 UNL     1      25.887   4.923  51.453  1.00  0.00     0.170 HD
ENDROOT
BRANCH   1   6
HETATM    6  C2  UNL     1      21.813   4.465  50.890  1.00  0.00     0.101 A 
HETATM    7  C1  UNL     1      21.461   5.719  50.076  1.00  0.00     0.051 C 
HETATM    8  C17 UNL     1      20.881   4.386  52.069  1.00  0.00     0.012 A 
HETATM    9  C18 UNL     1      20.113   3.290  51.921  1.00  0.00     0.020 A 
HETATM   10  C19 UNL     1      20.475   2.586  50.673  1.00  0.00     0.042 A 
HETATM   11 BR1  UNL     1      19.686   0.984  50.009  1.00  0.00    -0.048 Br
HETATM   12  C20 UNL     1      21.466   3.278  50.083  1.00  0.00     0.092 A 
BRANCH  12  13
HETATM   13  O2  UNL     1      22.117   2.985  48.897  1.00  0.00    -0.361 OA
HETATM   14  H18 UNL     1      23.119   2.955  48.784  1.00  0.00     0.217 HD
ENDBRANCH  12  13
ENDBRANCH   1   6
BRANCH   1  15
HETATM   15  C3  UNL     1      23.710   4.151  52.678  1.00  0.00     0.167 C 
BRANCH  15  16
HETATM   16  C4  UNL     1      24.104   2.734  52.767  1.00  0.00    -0.040 A 
HETATM   17  C5  UNL     1      23.294   1.636  52.942  1.00  0.00     0.012 A 
HETATM   18  C6  UNL     1      23.689   0.332  53.038  1.00  0.00     0.043 A 
HETATM   19  C7  UNL     1      25.028   0.043  52.957  1.00  0.00     0.116 A 
HETATM   20  F1  UNL     1      25.442  -1.242  53.048  1.00  0.00    -0.206 F 
HETATM   21  C8  UNL     1      25.915   1.082  52.781  1.00  0.00     0.043 A 
HETATM   22  C9  UNL     1      25.455   2.379  52.690  1.00  0.00     0.012 A 
ENDBRANCH  15  16
ENDBRANCH   1  15
BRANCH   4  23
HETATM   23  C11 UNL     1      26.388   5.756  49.602  1.00  0.00     0.036 A 
HETATM   24  C12 UNL     1      26.423   7.002  49.051  1.00  0.00     0.029 A 
HETATM   25  C13 UNL     1      27.323   7.455  48.128  1.00  0.00     0.002 A 
HETATM   26  C14 UNL     1      28.295   6.586  47.702  1.00  0.00     0.000 A 
HETATM   27  C15 UNL     1      28.337   5.305  48.206  1.00  0.00     0.002 A 
HETATM   28  C16 UNL     1      27.403   4.931  49.123  1.00  0.00     0.029 A 
ENDBRANCH   4  23
TORSDOF 5
ENDMDL
