MODEL 1
REMARK VINA RESULT:      -8.8      0.000      0.000
REMARK  2 active torsions:
REMARK  status: ('A' for Active; 'I' for Inactive)
REMARK    1  A    between atoms: S1_2  and  C2_3 
REMARK    2  A    between atoms: C20_27  and  C21_28 
ROOT
HETATM    1  C2  UNL     1      25.711   1.161  52.839  1.00  0.00     0.072 A 
HETATM    2  C3  UNL     1      25.917  -0.044  53.509  1.00  0.00     0.132 A 
HETATM    3  N1  UNL     1      24.738  -0.736  54.027  1.00  0.00    -0.292 N 
HETATM    4  N2  UNL     1      23.455  -0.186  53.833  1.00  0.00    -0.209 N 
HETATM    5  C4  UNL     1      22.358  -1.012  54.346  1.00  0.00     0.173 C 
HETATM    6  C5  UNL     1      21.049  -0.277  53.784  1.00  0.00    -0.001 C 
HETATM    7  C6  UNL     1      20.629   0.767  53.279  1.00  0.00     0.030 C 
HETATM    8  C7  UNL     1      20.848   2.189  52.790  1.00  0.00     0.020 A 
HETATM    9  C8  UNL     1      20.774   3.438  52.244  1.00  0.00    -0.094 A 
HETATM   10  C9  UNL     1      22.007   4.377  52.456  1.00  0.00     0.048 C 
HETATM   11  C10 UNL     1      22.665   4.493  51.111  1.00  0.00     0.026 A 
HETATM   12  C11 UNL     1      21.910   5.460  50.570  1.00  0.00     0.018 A 
HETATM   13  C12 UNL     1      22.193   4.683  49.512  1.00  0.00     0.051 A 
HETATM   14  C13 UNL     1      22.780   3.570  48.848  1.00  0.00     0.001 A 
HETATM   15  C14 UNL     1      23.513   2.767  49.678  1.00  0.00     0.053 A 
HETATM   16  C15 UNL     1      23.429   3.313  50.949  1.00  0.00     0.067 A 
HETATM   17  O1  UNL     1      24.035   2.805  52.035  1.00  0.00    -0.293 OA
HETATM   18  C16 UNL     1      24.378   1.717  52.635  1.00  0.00     0.208 A 
HETATM   19  N3  UNL     1      23.616   0.936  53.165  1.00  0.00    -0.129 NA
HETATM   20  N4  UNL     1      22.251   3.519  47.435  1.00  0.00    -0.230 NA
HETATM   21  C17 UNL     1      20.866   3.029  47.817  1.00  0.00     0.157 A 
HETATM   22  O2  UNL     1      21.203   2.917  49.043  1.00  0.00    -0.286 OA
HETATM   23  C18 UNL     1      19.425   2.515  48.242  1.00  0.00     0.053 C 
HETATM   24  C19 UNL     1      18.900   2.083  49.432  1.00  0.00    -0.010 C 
HETATM   25  C20 UNL     1      19.573   1.950  50.674  1.00  0.00     0.081 C 
HETATM   26  C23 UNL     1      19.495   2.674  51.925  1.00  0.00     0.050 A 
HETATM   27  H5  UNL     1      24.918  -1.683  54.542  1.00  0.00     0.187 HD
HETATM   28  H16 UNL     1      21.463   3.203  46.846  1.00  0.00     0.229 HD
ENDROOT
BRANCH  25  29
HETATM   29  C21 UNL     1      18.798   0.574  51.190  1.00  0.00     0.131 C 
HETATM   30  C22 UNL     1      17.415   1.150  51.424  1.00  0.00     0.091 C 
HETATM   31  O3  UNL     1      18.365  -0.517  51.549  1.00  0.00    -0.298 OA
ENDBRANCH  25  29
BRANCH   1  32
HETATM   32  S1  UNL     1      27.168   2.090  52.333  1.00  0.00    -0.129 SA
HETATM   33  C1  UNL     1      28.375   2.107  53.665  1.00  0.00     0.096 C 
ENDBRANCH   1  32
TORSDOF 2
ENDMDL
MODEL 2
REMARK VINA RESULT:      -8.7      2.942      5.587
REMARK  2 active torsions:
REMARK  status: ('A' for Active; 'I' for Inactive)
REMARK    1  A    between atoms: S1_2  and  C2_3 
REMARK    2  A    between atoms: C20_27  and  C21_28 
ROOT
HETATM    1  C2  UNL     1      17.895  -0.511  52.242  1.00  0.00     0.072 A 
HETATM    2  C3  UNL     1      17.976  -1.225  53.436  1.00  0.00     0.132 A 
HETATM    3  N1  UNL     1      19.293  -1.350  54.058  1.00  0.00    -0.292 N 
HETATM    4  N2  UNL     1      20.417  -0.751  53.455  1.00  0.00    -0.209 N 
HETATM    5  C4  UNL     1      21.661  -0.898  54.215  1.00  0.00     0.173 C 
HETATM    6  C5  UNL     1      22.684   0.060  53.436  1.00  0.00    -0.001 C 
HETATM    7  C6  UNL     1      22.866   0.685  52.389  1.00  0.00     0.030 C 
HETATM    8  C7  UNL     1      22.429   1.096  50.992  1.00  0.00     0.020 A 
HETATM    9  C8  UNL     1      22.260   1.651  49.756  1.00  0.00    -0.094 A 
HETATM   10  C9  UNL     1      21.110   1.069  48.870  1.00  0.00     0.048 C 
HETATM   11  C10 UNL     1      20.055   2.135  48.823  1.00  0.00     0.026 A 
HETATM   12  C11 UNL     1      20.546   2.900  47.837  1.00  0.00     0.018 A 
HETATM   13  C12 UNL     1      19.984   3.804  48.655  1.00  0.00     0.051 A 
HETATM   14  C13 UNL     1      19.276   4.233  49.813  1.00  0.00     0.001 A 
HETATM   15  C14 UNL     1      18.887   3.204  50.625  1.00  0.00     0.053 A 
HETATM   16  C15 UNL     1      19.342   2.032  50.041  1.00  0.00     0.067 A 
HETATM   17  O1  UNL     1      19.140   0.804  50.546  1.00  0.00    -0.293 OA
HETATM   18  C16 UNL     1      19.062   0.113  51.631  1.00  0.00     0.208 A 
HETATM   19  N3  UNL     1      19.993  -0.156  52.361  1.00  0.00    -0.129 NA
HETATM   20  N4  UNL     1      19.331   5.740  49.879  1.00  0.00    -0.230 NA
HETATM   21  C17 UNL     1      20.789   5.814  50.293  1.00  0.00     0.157 A 
HETATM   22  O2  UNL     1      20.866   4.542  50.387  1.00  0.00    -0.286 OA
HETATM   23  C18 UNL     1      22.316   5.863  50.728  1.00  0.00     0.053 C 
HETATM   24  C19 UNL     1      23.214   4.898  51.102  1.00  0.00    -0.010 C 
HETATM   25  C20 UNL     1      22.978   3.505  51.231  1.00  0.00     0.081 C 
HETATM   26  C23 UNL     1      23.410   2.352  50.469  1.00  0.00     0.050 A 
HETATM   27  H5  UNL     1      19.335  -1.906  54.998  1.00  0.00     0.187 HD
HETATM   28  H16 UNL     1      19.907   6.546  50.174  1.00  0.00     0.229 HD
ENDROOT
BRANCH  25  29
HETATM   29  C21 UNL     1      23.948   3.246  52.555  1.00  0.00     0.131 C 
HETATM   30  C22 UNL     1      25.280   3.091  51.849  1.00  0.00     0.091 C 
HETATM   31  O3  UNL     1      24.532   3.071  53.620  1.00  0.00    -0.298 OA
ENDBRANCH  25  29
BRANCH   1  32
HETATM   32  S1  UNL     1      16.306  -0.484  51.395  1.00  0.00    -0.129 SA
HETATM   33  C1  UNL     1      15.664   1.196  51.355  1.00  0.00     0.096 C 
ENDBRANCH   1  32
TORSDOF 2
ENDMDL
MODEL 3
REMARK VINA RESULT:      -8.6      2.389      4.912
REMARK  2 active torsions:
REMARK  status: ('A' for Active; 'I' for Inactive)
REMARK    1  A    between atoms: S1_2  and  C2_3 
REMARK    2  A    between atoms: C20_27  and  C21_28 
ROOT
HETATM    1  C2  UNL     1      24.004   0.275  53.296  1.00  0.00     0.072 A 
HETATM    2  C3  UNL     1      25.315   0.514  53.704  1.00  0.00     0.132 A 
HETATM    3  N1  UNL     1      26.136   1.380  52.858  1.00  0.00    -0.292 N 
HETATM    4  N2  UNL     1      25.590   1.944  51.687  1.00  0.00    -0.209 N 
HETATM    5  C4  UNL     1      26.499   2.840  50.967  1.00  0.00     0.173 C 
HETATM    6  C5  UNL     1      25.558   3.502  49.852  1.00  0.00    -0.001 C 
HETATM    7  C6  UNL     1      24.471   3.404  49.276  1.00  0.00     0.030 C 
HETATM    8  C7  UNL     1      23.158   2.680  49.030  1.00  0.00     0.020 A 
HETATM    9  C8  UNL     1      21.911   2.269  48.654  1.00  0.00    -0.094 A 
HETATM   10  C9  UNL     1      21.465   0.844  49.121  1.00  0.00     0.048 C 
HETATM   11  C10 UNL     1      20.410   1.070  50.164  1.00  0.00     0.026 A 
HETATM   12  C11 UNL     1      19.341   1.242  49.374  1.00  0.00     0.018 A 
HETATM   13  C12 UNL     1      19.088   2.079  50.392  1.00  0.00     0.051 A 
HETATM   14  C13 UNL     1      19.362   2.724  51.632  1.00  0.00     0.001 A 
HETATM   15  C14 UNL     1      20.534   2.317  52.209  1.00  0.00     0.053 A 
HETATM   16  C15 UNL     1      21.103   1.384  51.357  1.00  0.00     0.067 A 
HETATM   17  O1  UNL     1      22.262   0.749  51.593  1.00  0.00    -0.293 OA
HETATM   18  C16 UNL     1      23.447   0.870  52.087  1.00  0.00     0.208 A 
HETATM   19  N3  UNL     1      24.346   1.527  51.605  1.00  0.00    -0.129 NA
HETATM   20  N4  UNL     1      18.339   3.814  51.842  1.00  0.00    -0.230 NA
HETATM   21  C17 UNL     1      18.917   4.757  50.804  1.00  0.00     0.157 A 
HETATM   22  O2  UNL     1      19.908   3.979  50.593  1.00  0.00    -0.286 OA
HETATM   23  C18 UNL     1      19.543   5.727  49.712  1.00  0.00     0.053 C 
HETATM   24  C19 UNL     1      20.700   5.687  48.979  1.00  0.00    -0.010 C 
HETATM   25  C20 UNL     1      21.724   4.707  49.037  1.00  0.00     0.081 C 
HETATM   26  C23 UNL     1      22.159   3.675  48.119  1.00  0.00     0.050 A 
HETATM   27  H5  UNL     1      27.158   1.563  53.198  1.00  0.00     0.187 HD
HETATM   28  H16 UNL     1      18.097   4.792  51.613  1.00  0.00     0.229 HD
ENDROOT
BRANCH  25  29
HETATM   29  C21 UNL     1      23.013   5.730  48.812  1.00  0.00     0.131 C 
HETATM   30  C22 UNL     1      22.782   6.092  47.358  1.00  0.00     0.091 C 
HETATM   31  O3  UNL     1      24.001   6.459  48.800  1.00  0.00    -0.298 OA
ENDBRANCH  25  29
BRANCH   1  32
HETATM   32  S1  UNL     1      23.040  -0.909  54.251  1.00  0.00    -0.129 SA
HETATM   33  C1  UNL     1      21.501  -0.148  54.790  1.00  0.00     0.096 C 
ENDBRANCH   1  32
TORSDOF 2
ENDMDL
MODEL 4
REMARK VINA RESULT:      -8.3      3.380      6.055
REMARK  2 active torsions:
REMARK  status: ('A' for Active; 'I' for Inactive)
REMARK    1  A    between atoms: S1_2  and  C2_3 
REMARK    2  A    between atoms: C20_27  and  C21_28 
ROOT
HETATM    1  C2  UNL     1      17.281   4.115  48.961  1.00  0.00     0.072 A 
HETATM    2  C3  UNL     1      16.022   3.892  49.516  1.00  0.00     0.132 A 
HETATM    3  N1  UNL     1      15.879   2.757  50.426  1.00  0.00    -0.292 N 
HETATM    4  N2  UNL     1      16.992   1.944  50.720  1.00  0.00    -0.209 N 
HETATM    5  C4  UNL     1      16.726   0.883  51.695  1.00  0.00     0.173 C 
HETATM    6  C5  UNL     1      18.183   0.295  52.007  1.00  0.00    -0.001 C 
HETATM    7  C6  UNL     1      19.353   0.265  51.617  1.00  0.00     0.030 C 
HETATM    8  C7  UNL     1      20.429   0.641  50.612  1.00  0.00     0.020 A 
HETATM    9  C8  UNL     1      21.577   0.866  49.907  1.00  0.00    -0.094 A 
HETATM   10  C9  UNL     1      21.422   1.502  48.487  1.00  0.00     0.048 C 
HETATM   11  C10 UNL     1      21.947   2.904  48.611  1.00  0.00     0.026 A 
HETATM   12  C11 UNL     1      23.259   2.671  48.460  1.00  0.00     0.018 A 
HETATM   13  C12 UNL     1      23.241   3.683  49.342  1.00  0.00     0.051 A 
HETATM   14  C13 UNL     1      22.624   4.661  50.172  1.00  0.00     0.001 A 
HETATM   15  C14 UNL     1      21.259   4.661  50.091  1.00  0.00     0.053 A 
HETATM   16  C15 UNL     1      20.906   3.657  49.203  1.00  0.00     0.067 A 
HETATM   17  O1  UNL     1      19.643   3.362  48.855  1.00  0.00    -0.293 OA
HETATM   18  C16 UNL     1      18.429   3.274  49.279  1.00  0.00     0.208 A 
HETATM   19  N3  UNL     1      18.011   2.432  50.046  1.00  0.00    -0.129 NA
HETATM   20  N4  UNL     1      23.686   5.290  51.043  1.00  0.00    -0.230 NA
HETATM   21  C17 UNL     1      23.855   4.090  51.955  1.00  0.00     0.157 A 
HETATM   22  O2  UNL     1      22.897   3.471  51.381  1.00  0.00    -0.286 OA
HETATM   23  C18 UNL     1      24.012   2.821  52.896  1.00  0.00     0.053 C 
HETATM   24  C19 UNL     1      23.311   1.649  53.012  1.00  0.00    -0.010 C 
HETATM   25  C20 UNL     1      22.160   1.258  52.281  1.00  0.00     0.081 C 
HETATM   26  C23 UNL     1      21.928   0.257  51.260  1.00  0.00     0.050 A 
HETATM   27  H5  UNL     1      14.886   2.603  50.858  1.00  0.00     0.187 HD
HETATM   28  H16 UNL     1      24.229   5.180  51.914  1.00  0.00     0.229 HD
ENDROOT
BRANCH  25  29
HETATM   29  C21 UNL     1      21.379   0.468  53.516  1.00  0.00     0.131 C 
HETATM   30  C22 UNL     1      22.273  -0.752  53.623  1.00  0.00     0.091 C 
HETATM   31  O3  UNL     1      20.702   0.008  54.431  1.00  0.00    -0.298 OA
ENDBRANCH  25  29
BRANCH   1  32
HETATM   32  S1  UNL     1      17.426   5.417  47.725  1.00  0.00    -0.129 SA
HETATM   33  C1  UNL     1      18.664   6.615  48.243  1.00  0.00     0.096 C 
ENDBRANCH   1  32
TORSDOF 2
ENDMDL
MODEL 5
REMARK VINA RESULT:      -8.0      7.447     10.544
REMARK  2 active torsions:
REMARK  status: ('A' for Active; 'I' for Inactive)
REMARK    1  A    between atoms: S1_2  and  C2_3 
REMARK    2  A    between atoms: C20_27  and  C21_28 
ROOT
HETATM    1  C2  UNL     1      23.794   7.351  49.059  1.00  0.00     0.072 A 
HETATM    2  C3  UNL     1      23.545   6.154  49.730  1.00  0.00     0.132 A 
HETATM    3  N1  UNL     1      24.609   5.151  49.736  1.00  0.00    -0.292 N 
HETATM    4  N2  UNL     1      25.832   5.418  49.088  1.00  0.00    -0.209 N 
HETATM    5  C4  UNL     1      26.833   4.356  49.225  1.00  0.00     0.173 C 
HETATM    6  C5  UNL     1      28.159   5.019  48.618  1.00  0.00    -0.001 C 
HETATM    7  C6  UNL     1      28.587   5.957  47.941  1.00  0.00     0.030 C 
HETATM    8  C7  UNL     1      28.359   7.201  47.098  1.00  0.00     0.020 A 
HETATM    9  C8  UNL     1      28.444   8.345  46.358  1.00  0.00    -0.094 A 
HETATM   10  C9  UNL     1      27.107   8.912  45.775  1.00  0.00     0.048 C 
HETATM   11  C10 UNL     1      26.823  10.163  46.554  1.00  0.00     0.026 A 
HETATM   12  C11 UNL     1      27.588  11.032  45.878  1.00  0.00     0.018 A 
HETATM   13  C12 UNL     1      27.681  11.481  47.140  1.00  0.00     0.051 A 
HETATM   14  C13 UNL     1      27.412  11.468  48.538  1.00  0.00     0.001 A 
HETATM   15  C14 UNL     1      26.572  10.458  48.921  1.00  0.00     0.053 A 
HETATM   16  C15 UNL     1      26.258   9.738  47.780  1.00  0.00     0.067 A 
HETATM   17  O1  UNL     1      25.441   8.671  47.757  1.00  0.00    -0.293 OA
HETATM   18  C16 UNL     1      25.067   7.620  48.401  1.00  0.00     0.208 A 
HETATM   19  N3  UNL     1      25.738   6.624  48.572  1.00  0.00    -0.129 NA
HETATM   20  N4  UNL     1      28.301  12.489  49.208  1.00  0.00    -0.230 NA
HETATM   21  C17 UNL     1      29.577  11.679  49.074  1.00  0.00     0.157 A 
HETATM   22  O2  UNL     1      28.940  10.684  48.590  1.00  0.00    -0.286 OA
HETATM   23  C18 UNL     1      30.899  10.812  48.922  1.00  0.00     0.053 C 
HETATM   24  C19 UNL     1      31.131   9.524  48.514  1.00  0.00    -0.010 C 
HETATM   25  C20 UNL     1      30.169   8.558  48.119  1.00  0.00     0.081 C 
HETATM   26  C23 UNL     1      29.835   7.957  46.845  1.00  0.00     0.050 A 
HETATM   27  H5  UNL     1      24.398   4.223  50.273  1.00  0.00     0.187 HD
HETATM   28  H16 UNL     1      29.245  12.654  49.592  1.00  0.00     0.229 HD
ENDROOT
BRANCH  25  29
HETATM   29  C21 UNL     1      30.918   7.229  48.777  1.00  0.00     0.131 C 
HETATM   30  C22 UNL     1      32.099   7.127  47.832  1.00  0.00     0.091 C 
HETATM   31  O3  UNL     1      31.354   6.248  49.372  1.00  0.00    -0.298 OA
ENDBRANCH  25  29
BRANCH   1  32
HETATM   32  S1  UNL     1      22.435   8.524  48.921  1.00  0.00    -0.129 SA
HETATM   33  C1  UNL     1      20.982   7.878  49.760  1.00  0.00     0.096 C 
ENDBRANCH   1  32
TORSDOF 2
ENDMDL
MODEL 6
REMARK VINA RESULT:      -8.0      2.759      5.975
REMARK  2 active torsions:
REMARK  status: ('A' for Active; 'I' for Inactive)
REMARK    1  A    between atoms: S1_2  and  C2_3 
REMARK    2  A    between atoms: C20_27  and  C21_28 
ROOT
HETATM    1  C2  UNL     1      20.769   7.378  49.281  1.00  0.00     0.072 A 
HETATM    2  C3  UNL     1      19.440   7.786  49.176  1.00  0.00     0.132 A 
HETATM    3  N1  UNL     1      18.429   6.746  48.994  1.00  0.00    -0.292 N 
HETATM    4  N2  UNL     1      18.813   5.391  48.942  1.00  0.00    -0.209 N 
HETATM    5  C4  UNL     1      17.696   4.450  48.822  1.00  0.00     0.173 C 
HETATM    6  C5  UNL     1      18.393   3.021  49.026  1.00  0.00    -0.001 C 
HETATM    7  C6  UNL     1      19.478   2.433  49.050  1.00  0.00     0.030 C 
HETATM    8  C7  UNL     1      20.990   2.427  48.900  1.00  0.00     0.020 A 
HETATM    9  C8  UNL     1      22.327   2.151  48.875  1.00  0.00    -0.094 A 
HETATM   10  C9  UNL     1      23.266   3.257  48.289  1.00  0.00     0.048 C 
HETATM   11  C10 UNL     1      24.023   3.809  49.462  1.00  0.00     0.026 A 
HETATM   12  C11 UNL     1      25.004   2.899  49.550  1.00  0.00     0.018 A 
HETATM   13  C12 UNL     1      24.785   3.218  50.836  1.00  0.00     0.051 A 
HETATM   14  C13 UNL     1      24.146   3.909  51.904  1.00  0.00     0.001 A 
HETATM   15  C14 UNL     1      23.191   4.794  51.485  1.00  0.00     0.053 A 
HETATM   16  C15 UNL     1      23.144   4.714  50.102  1.00  0.00     0.067 A 
HETATM   17  O1  UNL     1      22.329   5.449  49.327  1.00  0.00    -0.293 OA
HETATM   18  C16 UNL     1      21.155   5.973  49.235  1.00  0.00     0.208 A 
HETATM   19  N3  UNL     1      20.121   5.357  49.081  1.00  0.00    -0.129 NA
HETATM   20  N4  UNL     1      24.605   3.306  53.210  1.00  0.00    -0.230 NA
HETATM   21  C17 UNL     1      23.801   2.026  53.068  1.00  0.00     0.157 A 
HETATM   22  O2  UNL     1      23.244   2.450  52.000  1.00  0.00    -0.286 OA
HETATM   23  C18 UNL     1      22.949   0.697  52.898  1.00  0.00     0.053 C 
HETATM   24  C19 UNL     1      21.992   0.309  51.997  1.00  0.00    -0.010 C 
HETATM   25  C20 UNL     1      21.459   1.068  50.924  1.00  0.00     0.081 C 
HETATM   26  C23 UNL     1      21.582   0.970  49.485  1.00  0.00     0.050 A 
HETATM   27  H5  UNL     1      17.392   7.084  48.922  1.00  0.00     0.187 HD
HETATM   28  H16 UNL     1      24.448   2.534  53.877  1.00  0.00     0.229 HD
ENDROOT
BRANCH  25  29
HETATM   29  C21 UNL     1      19.895   0.520  51.030  1.00  0.00     0.131 C 
HETATM   30  C22 UNL     1      19.499   1.175  52.339  1.00  0.00     0.091 C 
HETATM   31  O3  UNL     1      18.765   0.043  50.968  1.00  0.00    -0.298 OA
ENDBRANCH  25  29
BRANCH   1  32
HETATM   32  S1  UNL     1      22.030   8.662  49.352  1.00  0.00    -0.129 SA
HETATM   33  C1  UNL     1      22.976   8.674  47.823  1.00  0.00     0.096 C 
ENDBRANCH   1  32
TORSDOF 2
ENDMDL
MODEL 7
REMARK VINA RESULT:      -7.4     10.131     13.748
REMARK  2 active torsions:
REMARK  status: ('A' for Active; 'I' for Inactive)
REMARK    1  A    between atoms: S1_2  and  C2_3 
REMARK    2  A    between atoms: C20_27  and  C21_28 
ROOT
HETATM    1  C2  UNL     1      28.964   9.776  47.831  1.00  0.00     0.072 A 
HETATM    2  C3  UNL     1      27.980  10.305  46.997  1.00  0.00     0.132 A 
HETATM    3  N1  UNL     1      28.275  10.375  45.567  1.00  0.00    -0.292 N 
HETATM    4  N2  UNL     1      29.512   9.907  45.079  1.00  0.00    -0.209 N 
HETATM    5  C4  UNL     1      29.652   9.976  43.622  1.00  0.00     0.173 C 
HETATM    6  C5  UNL     1      31.014   9.178  43.344  1.00  0.00    -0.001 C 
HETATM    7  C6  UNL     1      32.031   8.723  43.874  1.00  0.00     0.030 C 
HETATM    8  C7  UNL     1      32.915   8.514  45.091  1.00  0.00     0.020 A 
HETATM    9  C8  UNL     1      33.857   8.145  46.010  1.00  0.00    -0.094 A 
HETATM   10  C9  UNL     1      33.772   8.819  47.419  1.00  0.00     0.048 C 
HETATM   11  C10 UNL     1      33.316   7.740  48.358  1.00  0.00     0.026 A 
HETATM   12  C11 UNL     1      34.492   7.148  48.614  1.00  0.00     0.018 A 
HETATM   13  C12 UNL     1      33.635   6.114  48.627  1.00  0.00     0.051 A 
HETATM   14  C13 UNL     1      32.357   5.495  48.519  1.00  0.00     0.001 A 
HETATM   15  C14 UNL     1      31.344   6.378  48.268  1.00  0.00     0.053 A 
HETATM   16  C15 UNL     1      31.916   7.638  48.181  1.00  0.00     0.067 A 
HETATM   17  O1  UNL     1      31.229   8.769  47.955  1.00  0.00    -0.293 OA
HETATM   18  C16 UNL     1      30.237   9.286  47.314  1.00  0.00     0.208 A 
HETATM   19  N3  UNL     1      30.193   9.471  46.116  1.00  0.00    -0.129 NA
HETATM   20  N4  UNL     1      32.547   3.997  48.537  1.00  0.00    -0.230 NA
HETATM   21  C17 UNL     1      33.117   3.907  47.134  1.00  0.00     0.157 A 
HETATM   22  O2  UNL     1      32.916   5.151  46.931  1.00  0.00    -0.286 OA
HETATM   23  C18 UNL     1      33.710   3.839  45.662  1.00  0.00     0.053 C 
HETATM   24  C19 UNL     1      33.829   4.764  44.658  1.00  0.00    -0.010 C 
HETATM   25  C20 UNL     1      33.393   6.114  44.674  1.00  0.00     0.081 C 
HETATM   26  C23 UNL     1      34.093   7.381  44.712  1.00  0.00     0.050 A 
HETATM   27  H5  UNL     1      27.489  10.784  44.929  1.00  0.00     0.187 HD
HETATM   28  H16 UNL     1      32.776   3.174  47.956  1.00  0.00     0.229 HD
ENDROOT
BRANCH  25  29
HETATM   29  C21 UNL     1      32.909   6.201  43.087  1.00  0.00     0.131 C 
HETATM   30  C22 UNL     1      34.254   6.002  42.415  1.00  0.00     0.091 C 
HETATM   31  O3  UNL     1      32.404   6.285  41.971  1.00  0.00    -0.298 OA
ENDBRANCH  25  29
BRANCH   1  32
HETATM   32  S1  UNL     1      28.667   9.828  49.606  1.00  0.00    -0.129 SA
HETATM   33  C1  UNL     1      27.146   8.949  49.996  1.00  0.00     0.096 C 
ENDBRANCH   1  32
TORSDOF 2
ENDMDL
MODEL 8
REMARK VINA RESULT:      -7.2      3.367      4.805
REMARK  2 active torsions:
REMARK  status: ('A' for Active; 'I' for Inactive)
REMARK    1  A    between atoms: S1_2  and  C2_3 
REMARK    2  A    between atoms: C20_27  and  C21_28 
ROOT
HETATM    1  C2  UNL     1      26.189   6.504  48.484  1.00  0.00     0.072 A 
HETATM    2  C3  UNL     1      27.353   5.743  48.583  1.00  0.00     0.132 A 
HETATM    3  N1  UNL     1      27.290   4.517  49.376  1.00  0.00    -0.292 N 
HETATM    4  N2  UNL     1      26.082   4.139  49.996  1.00  0.00    -0.209 N 
HETATM    5  C4  UNL     1      26.140   2.858  50.705  1.00  0.00     0.173 C 
HETATM    6  C5  UNL     1      24.610   2.579  51.089  1.00  0.00    -0.001 C 
HETATM    7  C6  UNL     1      23.493   3.095  51.182  1.00  0.00     0.030 C 
HETATM    8  C7  UNL     1      22.575   4.302  51.091  1.00  0.00     0.020 A 
HETATM    9  C8  UNL     1      21.538   5.190  51.043  1.00  0.00    -0.094 A 
HETATM   10  C9  UNL     1      21.908   6.703  50.899  1.00  0.00     0.048 C 
HETATM   11  C10 UNL     1      21.502   7.089  49.507  1.00  0.00     0.026 A 
HETATM   12  C11 UNL     1      20.199   7.336  49.709  1.00  0.00     0.018 A 
HETATM   13  C12 UNL     1      20.210   6.815  48.471  1.00  0.00     0.051 A 
HETATM   14  C13 UNL     1      20.815   6.252  47.312  1.00  0.00     0.001 A 
HETATM   15  C14 UNL     1      22.175   6.145  47.407  1.00  0.00     0.053 A 
HETATM   16  C15 UNL     1      22.534   6.624  48.658  1.00  0.00     0.067 A 
HETATM   17  O1  UNL     1      23.796   6.690  49.112  1.00  0.00    -0.293 OA
HETATM   18  C16 UNL     1      24.942   6.100  49.122  1.00  0.00     0.208 A 
HETATM   19  N3  UNL     1      25.193   5.061  49.697  1.00  0.00    -0.129 NA
HETATM   20  N4  UNL     1      19.725   5.770  46.386  1.00  0.00    -0.230 NA
HETATM   21  C17 UNL     1      19.346   4.563  47.225  1.00  0.00     0.157 A 
HETATM   22  O2  UNL     1      20.303   4.784  48.042  1.00  0.00    -0.286 OA
HETATM   23  C18 UNL     1      18.970   3.306  48.120  1.00  0.00     0.053 C 
HETATM   24  C19 UNL     1      19.546   2.741  49.228  1.00  0.00    -0.010 C 
HETATM   25  C20 UNL     1      20.731   3.154  49.889  1.00  0.00     0.081 C 
HETATM   26  C23 UNL     1      20.984   3.776  51.172  1.00  0.00     0.050 A 
HETATM   27  H5  UNL     1      28.210   3.929  49.435  1.00  0.00     0.187 HD
HETATM   28  H16 UNL     1      19.079   4.989  46.187  1.00  0.00     0.229 HD
ENDROOT
BRANCH  25  29
HETATM   29  C21 UNL     1      21.294   1.642  50.285  1.00  0.00     0.131 C 
HETATM   30  C22 UNL     1      21.543   1.106  48.888  1.00  0.00     0.091 C 
HETATM   31  O3  UNL     1      21.690   0.568  50.729  1.00  0.00    -0.298 OA
ENDBRANCH  25  29
BRANCH   1  32
HETATM   32  S1  UNL     1      26.302   8.089  47.637  1.00  0.00    -0.129 SA
HETATM   33  C1  UNL     1      25.184   8.109  46.228  1.00  0.00     0.096 C 
ENDBRANCH   1  32
TORSDOF 2
ENDMDL
MODEL 9
REMARK VINA RESULT:      -7.2      2.266      2.879
REMARK  2 active torsions:
REMARK  status: ('A' for Active; 'I' for Inactive)
REMARK    1  A    between atoms: S1_2  and  C2_3 
REMARK    2  A    between atoms: C20_27  and  C21_28 
ROOT
HETATM    1  C2  UNL     1      22.272  -0.567  53.675  1.00  0.00     0.072 A 
HETATM    2  C3  UNL     1      21.674  -1.724  54.170  1.00  0.00     0.132 A 
HETATM    3  N1  UNL     1      20.224  -1.847  54.026  1.00  0.00    -0.292 N 
HETATM    4  N2  UNL     1      19.489  -0.822  53.397  1.00  0.00    -0.209 N 
HETATM    5  C4  UNL     1      18.057  -1.101  53.261  1.00  0.00     0.173 C 
HETATM    6  C5  UNL     1      17.536   0.090  52.323  1.00  0.00    -0.001 C 
HETATM    7  C6  UNL     1      17.827   1.195  51.858  1.00  0.00     0.030 C 
HETATM    8  C7  UNL     1      18.770   2.381  51.739  1.00  0.00     0.020 A 
HETATM    9  C8  UNL     1      19.437   3.528  51.417  1.00  0.00    -0.094 A 
HETATM   10  C9  UNL     1      20.697   3.878  52.275  1.00  0.00     0.048 C 
HETATM   11  C10 UNL     1      21.876   3.663  51.371  1.00  0.00     0.026 A 
HETATM   12  C11 UNL     1      21.883   4.836  50.722  1.00  0.00     0.018 A 
HETATM   13  C12 UNL     1      22.287   3.975  49.774  1.00  0.00     0.051 A 
HETATM   14  C13 UNL     1      22.631   2.695  49.254  1.00  0.00     0.001 A 
HETATM   15  C14 UNL     1      22.540   1.691  50.178  1.00  0.00     0.053 A 
HETATM   16  C15 UNL     1      22.111   2.268  51.363  1.00  0.00     0.067 A 
HETATM   17  O1  UNL     1      21.915   1.594  52.508  1.00  0.00    -0.293 OA
HETATM   18  C16 UNL     1      21.504   0.483  53.018  1.00  0.00     0.208 A 
HETATM   19  N3  UNL     1      20.350   0.108  53.045  1.00  0.00    -0.129 NA
HETATM   20  N4  UNL     1      22.820   2.818  47.761  1.00  0.00    -0.230 NA
HETATM   21  C17 UNL     1      21.344   2.960  47.440  1.00  0.00     0.157 A 
HETATM   22  O2  UNL     1      21.020   2.762  48.659  1.00  0.00    -0.286 OA
HETATM   23  C18 UNL     1      19.793   3.105  47.130  1.00  0.00     0.053 C 
HETATM   24  C19 UNL     1      18.668   2.972  47.901  1.00  0.00    -0.010 C 
HETATM   25  C20 UNL     1      18.601   2.616  49.273  1.00  0.00     0.081 C 
HETATM   26  C23 UNL     1      18.255   3.351  50.471  1.00  0.00     0.050 A 
HETATM   27  H5  UNL     1      19.773  -2.765  54.412  1.00  0.00     0.187 HD
HETATM   28  H16 UNL     1      22.329   2.836  46.853  1.00  0.00     0.229 HD
ENDROOT
BRANCH  25  29
HETATM   29  C21 UNL     1      17.215   1.704  49.190  1.00  0.00     0.131 C 
HETATM   30  C22 UNL     1      16.210   2.815  48.958  1.00  0.00     0.091 C 
HETATM   31  O3  UNL     1      16.285   0.903  49.150  1.00  0.00    -0.298 OA
ENDBRANCH  25  29
BRANCH   1  32
HETATM   32  S1  UNL     1      24.032  -0.343  53.985  1.00  0.00    -0.129 SA
HETATM   33  C1  UNL     1      24.500  -1.203  55.494  1.00  0.00     0.096 C 
ENDBRANCH   1  32
TORSDOF 2
ENDMDL
