MODEL 1
REMARK VINA RESULT:      -8.9      0.000      0.000
REMARK  5 active torsions:
REMARK  status: ('A' for Active; 'I' for Inactive)
REMARK    1  A    between atoms: C10_11  and  C11_12 
REMARK    2  A    between atoms: C11_12  and  O1_13 
REMARK    3  A    between atoms: C11_12  and  S1_20 
REMARK    4  A    between atoms: O1_13  and  C12_14 
REMARK    5  A    between atoms: C12_14  and  C13_15 
ROOT
HETATM    1  C1  UNL     1      28.990   6.962  48.177  1.00  0.00     0.043 C 
HETATM    2  C2  UNL     1      27.605   6.876  48.735  1.00  0.00    -0.084 C 
HETATM    3  C3  UNL     1      27.360   7.978  49.455  1.00  0.00    -0.023 C 
HETATM    4  C4  UNL     1      26.036   8.132  50.142  1.00  0.00     0.001 C 
HETATM    5  C5  UNL     1      24.818   7.610  50.428  1.00  0.00     0.055 C 
HETATM    6  C6  UNL     1      23.731   6.626  50.420  1.00  0.00     0.276 C 
HETATM    7  N1  UNL     1      24.043   5.414  49.713  1.00  0.00     0.093 N 
HETATM    8  C7  UNL     1      24.979   4.647  50.437  1.00  0.00     0.258 C 
HETATM    9  C8  UNL     1      24.602   3.136  50.511  1.00  0.00     0.079 C 
HETATM   10  C9  UNL     1      26.061   2.987  50.742  1.00  0.00    -0.044 C 
HETATM   11  C10 UNL     1      26.809   2.144  51.457  1.00  0.00     0.053 C 
HETATM   12  C19 UNL     1      26.187   4.162  49.827  1.00  0.00    -0.022 C 
HETATM   13  C20 UNL     1      27.129   4.450  48.903  1.00  0.00    -0.013 C 
HETATM   14  C21 UNL     1      26.780   5.751  48.299  1.00  0.00     0.061 C 
HETATM   15  H9  UNL     1      23.155   4.870  49.616  1.00  0.00     0.316 HD
ENDROOT
BRANCH  11  16
HETATM   16  C11 UNL     1      26.375   1.033  52.282  1.00  0.00     0.122 C 
BRANCH  16  17
HETATM   17  O1  UNL     1      25.060   0.540  52.091  1.00  0.00    -0.340 OA
BRANCH  17  18
HETATM   18  C12 UNL     1      24.231   0.630  53.234  1.00  0.00     0.210 C 
BRANCH  18  19
HETATM   19  C13 UNL     1      23.479  -0.614  53.556  1.00  0.00     0.170 C 
HETATM   20  C14 UNL     1      21.986  -0.480  53.534  1.00  0.00     0.052 C 
HETATM   21  C15 UNL     1      21.645  -1.624  54.500  1.00  0.00     0.120 C 
HETATM   22  N2  UNL     1      22.710  -1.407  55.477  1.00  0.00    -0.205 NA
HETATM   23  O2  UNL     1      23.811  -1.052  54.830  1.00  0.00    -0.298 OA
HETATM   24  H21 UNL     1      22.372  -0.647  56.109  1.00  0.00     0.153 HD
ENDBRANCH  18  19
ENDBRANCH  17  18
ENDBRANCH  16  17
BRANCH  16  25
HETATM   25  S1  UNL     1      27.214   0.225  53.465  1.00  0.00    -0.007 SA
HETATM   26  C16 UNL     1      28.514   1.105  54.475  1.00  0.00     0.266 C 
HETATM   27  O3  UNL     1      29.667   1.015  53.753  1.00  0.00    -0.378 OA
HETATM   28  C17 UNL     1      29.975  -0.244  53.287  1.00  0.00     0.196 C 
HETATM   29  C18 UNL     1      29.080  -1.328  53.826  1.00  0.00     0.211 C 
HETATM   30  O4  UNL     1      27.863  -1.394  53.145  1.00  0.00    -0.321 OA
ENDBRANCH  16  25
ENDBRANCH  11  16
TORSDOF 5
ENDMDL
MODEL 2
REMARK VINA RESULT:      -8.8      2.226      3.092
REMARK  5 active torsions:
REMARK  status: ('A' for Active; 'I' for Inactive)
REMARK    1  A    between atoms: C10_11  and  C11_12 
REMARK    2  A    between atoms: C11_12  and  O1_13 
REMARK    3  A    between atoms: C11_12  and  S1_20 
REMARK    4  A    between atoms: O1_13  and  C12_14 
REMARK    5  A    between atoms: C12_14  and  C13_15 
ROOT
HETATM    1  C1  UNL     1      21.660   4.682  46.688  1.00  0.00     0.043 C 
HETATM    2  C2  UNL     1      22.256   5.406  47.853  1.00  0.00    -0.084 C 
HETATM    3  C3  UNL     1      23.060   6.374  47.397  1.00  0.00    -0.023 C 
HETATM    4  C4  UNL     1      23.798   7.242  48.371  1.00  0.00     0.001 C 
HETATM    5  C5  UNL     1      24.086   7.540  49.662  1.00  0.00     0.055 C 
HETATM    6  C6  UNL     1      24.043   7.413  51.122  1.00  0.00     0.276 C 
HETATM    7  N1  UNL     1      23.242   6.316  51.592  1.00  0.00     0.093 N 
HETATM    8  C7  UNL     1      23.879   5.088  51.321  1.00  0.00     0.258 C 
HETATM    9  C8  UNL     1      23.857   4.109  52.534  1.00  0.00     0.079 C 
HETATM   10  C9  UNL     1      24.030   3.094  51.465  1.00  0.00    -0.044 C 
HETATM   11  C10 UNL     1      24.658   1.920  51.389  1.00  0.00     0.053 C 
HETATM   12  C19 UNL     1      23.197   4.022  50.640  1.00  0.00    -0.022 C 
HETATM   13  C20 UNL     1      22.265   3.753  49.699  1.00  0.00    -0.013 C 
HETATM   14  C21 UNL     1      21.767   5.043  49.182  1.00  0.00     0.061 C 
HETATM   15  H9  UNL     1      23.135   6.428  52.627  1.00  0.00     0.316 HD
ENDROOT
BRANCH  11  16
HETATM   16  C11 UNL     1      25.416   1.236  52.420  1.00  0.00     0.122 C 
BRANCH  16  17
HETATM   17  O1  UNL     1      24.704   0.714  53.529  1.00  0.00    -0.340 OA
BRANCH  17  18
HETATM   18  C12 UNL     1      24.183  -0.586  53.328  1.00  0.00     0.210 C 
BRANCH  18  19
HETATM   19  C13 UNL     1      22.698  -0.674  53.367  1.00  0.00     0.170 C 
HETATM   20  C14 UNL     1      21.987   0.635  53.541  1.00  0.00     0.052 C 
HETATM   21  C15 UNL     1      20.694   0.103  54.179  1.00  0.00     0.120 C 
HETATM   22  N2  UNL     1      21.285  -0.902  55.059  1.00  0.00    -0.205 NA
HETATM   23  O2  UNL     1      22.297  -1.477  54.425  1.00  0.00    -0.298 OA
HETATM   24  H21 UNL     1      21.606  -0.389  55.911  1.00  0.00     0.153 HD
ENDBRANCH  18  19
ENDBRANCH  17  18
ENDBRANCH  16  17
BRANCH  16  25
HETATM   25  S1  UNL     1      27.052   0.966  52.503  1.00  0.00    -0.007 SA
HETATM   26  C16 UNL     1      27.714  -0.714  52.976  1.00  0.00     0.266 C 
HETATM   27  O3  UNL     1      27.757  -0.725  54.338  1.00  0.00    -0.378 OA
HETATM   28  C17 UNL     1      28.351   0.374  54.919  1.00  0.00     0.196 C 
HETATM   29  C18 UNL     1      29.019   1.296  53.934  1.00  0.00     0.211 C 
HETATM   30  O4  UNL     1      28.107   2.145  53.304  1.00  0.00    -0.321 OA
ENDBRANCH  16  25
ENDBRANCH  11  16
TORSDOF 5
ENDMDL
MODEL 3
REMARK VINA RESULT:      -8.7      2.307      4.327
REMARK  5 active torsions:
REMARK  status: ('A' for Active; 'I' for Inactive)
REMARK    1  A    between atoms: C10_11  and  C11_12 
REMARK    2  A    between atoms: C11_12  and  O1_13 
REMARK    3  A    between atoms: C11_12  and  S1_20 
REMARK    4  A    between atoms: O1_13  and  C12_14 
REMARK    5  A    between atoms: C12_14  and  C13_15 
ROOT
HETATM    1  C1  UNL     1      30.359   7.398  48.485  1.00  0.00     0.043 C 
HETATM    2  C2  UNL     1      28.869   7.475  48.594  1.00  0.00    -0.084 C 
HETATM    3  C3  UNL     1      28.539   8.612  49.217  1.00  0.00    -0.023 C 
HETATM    4  C4  UNL     1      27.094   8.924  49.470  1.00  0.00     0.001 C 
HETATM    5  C5  UNL     1      25.797   8.542  49.366  1.00  0.00     0.055 C 
HETATM    6  C6  UNL     1      24.664   7.681  49.016  1.00  0.00     0.276 C 
HETATM    7  N1  UNL     1      25.041   6.426  48.425  1.00  0.00     0.093 N 
HETATM    8  C7  UNL     1      25.623   5.580  49.390  1.00  0.00     0.258 C 
HETATM    9  C8  UNL     1      25.079   4.121  49.329  1.00  0.00     0.079 C 
HETATM   10  C9  UNL     1      26.373   3.821  49.992  1.00  0.00    -0.044 C 
HETATM   11  C10 UNL     1      26.771   2.919  50.891  1.00  0.00     0.053 C 
HETATM   12  C19 UNL     1      26.898   4.954  49.171  1.00  0.00    -0.022 C 
HETATM   13  C20 UNL     1      28.103   5.118  48.582  1.00  0.00    -0.013 C 
HETATM   14  C21 UNL     1      28.098   6.436  47.915  1.00  0.00     0.061 C 
HETATM   15  H9  UNL     1      24.170   5.980  48.055  1.00  0.00     0.316 HD
ENDROOT
BRANCH  11  16
HETATM   16  C11 UNL     1      25.988   1.880  51.532  1.00  0.00     0.122 C 
BRANCH  16  17
HETATM   17  O1  UNL     1      26.534   0.572  51.579  1.00  0.00    -0.340 OA
BRANCH  17  18
HETATM   18  C12 UNL     1      26.210  -0.154  52.749  1.00  0.00     0.210 C 
BRANCH  18  19
HETATM   19  C13 UNL     1      27.376  -0.507  53.604  1.00  0.00     0.170 C 
HETATM   20  C14 UNL     1      28.638   0.245  53.302  1.00  0.00     0.052 C 
HETATM   21  C15 UNL     1      29.644  -0.788  53.833  1.00  0.00     0.120 C 
HETATM   22  N2  UNL     1      28.993  -1.998  53.338  1.00  0.00    -0.205 NA
HETATM   23  O2  UNL     1      27.681  -1.853  53.459  1.00  0.00    -0.298 OA
HETATM   24  H21 UNL     1      29.279  -2.094  52.338  1.00  0.00     0.153 HD
ENDBRANCH  18  19
ENDBRANCH  17  18
ENDBRANCH  16  17
BRANCH  16  25
HETATM   25  S1  UNL     1      24.492   1.993  52.242  1.00  0.00    -0.007 SA
HETATM   26  C16 UNL     1      23.061   0.976  51.607  1.00  0.00     0.266 C 
HETATM   27  O3  UNL     1      22.511   1.703  50.593  1.00  0.00    -0.378 OA
HETATM   28  C17 UNL     1      22.264   3.027  50.884  1.00  0.00     0.196 C 
HETATM   29  C18 UNL     1      22.469   3.381  52.333  1.00  0.00     0.211 C 
HETATM   30  O4  UNL     1      23.815   3.583  52.641  1.00  0.00    -0.321 OA
ENDBRANCH  16  25
ENDBRANCH  11  16
TORSDOF 5
ENDMDL
MODEL 4
REMARK VINA RESULT:      -8.7      2.462      3.070
REMARK  5 active torsions:
REMARK  status: ('A' for Active; 'I' for Inactive)
REMARK    1  A    between atoms: C10_11  and  C11_12 
REMARK    2  A    between atoms: C11_12  and  O1_13 
REMARK    3  A    between atoms: C11_12  and  S1_20 
REMARK    4  A    between atoms: O1_13  and  C12_14 
REMARK    5  A    between atoms: C12_14  and  C13_15 
ROOT
HETATM    1  C1  UNL     1      30.595   7.302  48.372  1.00  0.00     0.043 C 
HETATM    2  C2  UNL     1      29.129   7.546  48.543  1.00  0.00    -0.084 C 
HETATM    3  C3  UNL     1      28.957   8.674  49.243  1.00  0.00    -0.023 C 
HETATM    4  C4  UNL     1      27.568   9.136  49.569  1.00  0.00     0.001 C 
HETATM    5  C5  UNL     1      26.232   8.916  49.495  1.00  0.00     0.055 C 
HETATM    6  C6  UNL     1      24.993   8.217  49.140  1.00  0.00     0.276 C 
HETATM    7  N1  UNL     1      25.200   6.966  48.463  1.00  0.00     0.093 N 
HETATM    8  C7  UNL     1      25.707   5.998  49.355  1.00  0.00     0.258 C 
HETATM    9  C8  UNL     1      24.991   4.620  49.231  1.00  0.00     0.079 C 
HETATM   10  C9  UNL     1      26.261   4.130  49.825  1.00  0.00    -0.044 C 
HETATM   11  C10 UNL     1      26.577   3.134  50.654  1.00  0.00     0.053 C 
HETATM   12  C19 UNL     1      26.891   5.243  49.051  1.00  0.00    -0.022 C 
HETATM   13  C20 UNL     1      28.087   5.301  48.425  1.00  0.00    -0.013 C 
HETATM   14  C21 UNL     1      28.218   6.648  47.835  1.00  0.00     0.061 C 
HETATM   15  H9  UNL     1      24.270   6.648  48.103  1.00  0.00     0.316 HD
ENDROOT
BRANCH  11  16
HETATM   16  C11 UNL     1      25.696   2.156  51.265  1.00  0.00     0.122 C 
BRANCH  16  17
HETATM   17  O1  UNL     1      24.356   2.095  50.808  1.00  0.00    -0.340 OA
BRANCH  17  18
HETATM   18  C12 UNL     1      23.394   1.966  51.837  1.00  0.00     0.210 C 
BRANCH  18  19
HETATM   19  C13 UNL     1      22.817   3.253  52.313  1.00  0.00     0.170 C 
HETATM   20  C14 UNL     1      22.252   4.134  51.239  1.00  0.00     0.052 C 
HETATM   21  C15 UNL     1      22.403   5.484  51.956  1.00  0.00     0.120 C 
HETATM   22  N2  UNL     1      23.716   5.264  52.558  1.00  0.00    -0.205 NA
HETATM   23  O2  UNL     1      23.792   4.002  52.957  1.00  0.00    -0.298 OA
HETATM   24  H21 UNL     1      24.416   5.475  51.812  1.00  0.00     0.153 HD
ENDBRANCH  18  19
ENDBRANCH  17  18
ENDBRANCH  16  17
BRANCH  16  25
HETATM   25  S1  UNL     1      26.031   1.062  52.467  1.00  0.00    -0.007 SA
HETATM   26  C16 UNL     1      26.424   1.642  54.197  1.00  0.00     0.266 C 
HETATM   27  O3  UNL     1      27.764   1.894  54.208  1.00  0.00    -0.378 OA
HETATM   28  C17 UNL     1      28.556   0.896  53.681  1.00  0.00     0.196 C 
HETATM   29  C18 UNL     1      27.809  -0.372  53.367  1.00  0.00     0.211 C 
HETATM   30  O4  UNL     1      27.128  -0.296  52.151  1.00  0.00    -0.321 OA
ENDBRANCH  16  25
ENDBRANCH  11  16
TORSDOF 5
ENDMDL
MODEL 5
REMARK VINA RESULT:      -8.4      2.978      5.156
REMARK  5 active torsions:
REMARK  status: ('A' for Active; 'I' for Inactive)
REMARK    1  A    between atoms: C10_11  and  C11_12 
REMARK    2  A    between atoms: C11_12  and  O1_13 
REMARK    3  A    between atoms: C11_12  and  S1_20 
REMARK    4  A    between atoms: O1_13  and  C12_14 
REMARK    5  A    between atoms: C12_14  and  C13_15 
ROOT
HETATM    1  C1  UNL     1      31.820   6.420  48.254  1.00  0.00     0.043 C 
HETATM    2  C2  UNL     1      30.508   7.130  48.364  1.00  0.00    -0.084 C 
HETATM    3  C3  UNL     1      30.669   8.224  49.118  1.00  0.00    -0.023 C 
HETATM    4  C4  UNL     1      29.492   9.108  49.399  1.00  0.00     0.001 C 
HETATM    5  C5  UNL     1      28.166   9.347  49.244  1.00  0.00     0.055 C 
HETATM    6  C6  UNL     1      26.792   9.111  48.787  1.00  0.00     0.276 C 
HETATM    7  N1  UNL     1      26.621   7.889  48.051  1.00  0.00     0.093 N 
HETATM    8  C7  UNL     1      26.721   6.776  48.911  1.00  0.00     0.258 C 
HETATM    9  C8  UNL     1      25.602   5.718  48.671  1.00  0.00     0.079 C 
HETATM   10  C9  UNL     1      26.597   4.813  49.300  1.00  0.00    -0.044 C 
HETATM   11  C10 UNL     1      26.512   3.739  50.086  1.00  0.00     0.053 C 
HETATM   12  C19 UNL     1      27.608   5.682  48.624  1.00  0.00    -0.022 C 
HETATM   13  C20 UNL     1      28.796   5.363  48.064  1.00  0.00    -0.013 C 
HETATM   14  C21 UNL     1      29.401   6.612  47.560  1.00  0.00     0.061 C 
HETATM   15  H9  UNL     1      25.665   7.911  47.626  1.00  0.00     0.316 HD
ENDROOT
BRANCH  11  16
HETATM   16  C11 UNL     1      25.320   3.086  50.594  1.00  0.00     0.122 C 
BRANCH  16  17
HETATM   17  O1  UNL     1      25.484   1.880  51.321  1.00  0.00    -0.340 OA
BRANCH  17  18
HETATM   18  C12 UNL     1      26.049   2.048  52.607  1.00  0.00     0.210 C 
BRANCH  18  19
HETATM   19  C13 UNL     1      27.431   1.514  52.753  1.00  0.00     0.170 C 
HETATM   20  C14 UNL     1      27.705   0.801  54.043  1.00  0.00     0.052 C 
HETATM   21  C15 UNL     1      29.225   1.020  54.100  1.00  0.00     0.120 C 
HETATM   22  N2  UNL     1      29.262   2.403  53.630  1.00  0.00    -0.205 NA
HETATM   23  O2  UNL     1      28.350   2.551  52.680  1.00  0.00    -0.298 OA
HETATM   24  H21 UNL     1      29.050   2.998  54.463  1.00  0.00     0.153 HD
ENDBRANCH  18  19
ENDBRANCH  17  18
ENDBRANCH  16  17
BRANCH  16  25
HETATM   25  S1  UNL     1      23.734   3.551  50.442  1.00  0.00    -0.007 SA
HETATM   26  C16 UNL     1      22.668   3.796  51.955  1.00  0.00     0.266 C 
HETATM   27  O3  UNL     1      22.162   2.567  52.254  1.00  0.00    -0.378 OA
HETATM   28  C17 UNL     1      21.605   1.884  51.194  1.00  0.00     0.196 C 
HETATM   29  C18 UNL     1      21.486   2.704  49.938  1.00  0.00     0.211 C 
HETATM   30  O4  UNL     1      22.691   2.774  49.237  1.00  0.00    -0.321 OA
ENDBRANCH  16  25
ENDBRANCH  11  16
TORSDOF 5
ENDMDL
MODEL 6
REMARK VINA RESULT:      -8.4      1.874      2.308
REMARK  5 active torsions:
REMARK  status: ('A' for Active; 'I' for Inactive)
REMARK    1  A    between atoms: C10_11  and  C11_12 
REMARK    2  A    between atoms: C11_12  and  O1_13 
REMARK    3  A    between atoms: C11_12  and  S1_20 
REMARK    4  A    between atoms: O1_13  and  C12_14 
REMARK    5  A    between atoms: C12_14  and  C13_15 
ROOT
HETATM    1  C1  UNL     1      29.575   7.878  48.266  1.00  0.00     0.043 C 
HETATM    2  C2  UNL     1      28.128   7.827  48.639  1.00  0.00    -0.084 C 
HETATM    3  C3  UNL     1      27.839   8.890  49.399  1.00  0.00    -0.023 C 
HETATM    4  C4  UNL     1      26.446   9.067  49.924  1.00  0.00     0.001 C 
HETATM    5  C5  UNL     1      25.180   8.591  50.017  1.00  0.00     0.055 C 
HETATM    6  C6  UNL     1      24.062   7.667  49.801  1.00  0.00     0.276 C 
HETATM    7  N1  UNL     1      24.410   6.490  49.054  1.00  0.00     0.093 N 
HETATM    8  C7  UNL     1      25.211   5.629  49.832  1.00  0.00     0.258 C 
HETATM    9  C8  UNL     1      24.764   4.138  49.748  1.00  0.00     0.079 C 
HETATM   10  C9  UNL     1      26.172   3.899  50.150  1.00  0.00    -0.044 C 
HETATM   11  C10 UNL     1      26.785   2.973  50.890  1.00  0.00     0.053 C 
HETATM   12  C19 UNL     1      26.465   5.124  49.345  1.00  0.00    -0.022 C 
HETATM   13  C20 UNL     1      27.531   5.423  48.569  1.00  0.00    -0.013 C 
HETATM   14  C21 UNL     1      27.318   6.778  48.022  1.00  0.00     0.061 C 
HETATM   15  H9  UNL     1      23.519   6.001  48.806  1.00  0.00     0.316 HD
ENDROOT
BRANCH  11  16
HETATM   16  C11 UNL     1      26.201   1.834  51.572  1.00  0.00     0.122 C 
BRANCH  16  17
HETATM   17  O1  UNL     1      24.877   1.463  51.227  1.00  0.00    -0.340 OA
BRANCH  17  18
HETATM   18  C12 UNL     1      23.915   1.736  52.228  1.00  0.00     0.210 C 
BRANCH  18  19
HETATM   19  C13 UNL     1      22.775   0.779  52.272  1.00  0.00     0.170 C 
HETATM   20  C14 UNL     1      21.774   0.931  51.166  1.00  0.00     0.052 C 
HETATM   21  C15 UNL     1      20.555   0.335  51.887  1.00  0.00     0.120 C 
HETATM   22  N2  UNL     1      20.770   0.928  53.204  1.00  0.00    -0.205 NA
HETATM   23  O2  UNL     1      22.071   0.934  53.458  1.00  0.00    -0.298 OA
HETATM   24  H21 UNL     1      20.383   1.897  53.152  1.00  0.00     0.153 HD
ENDBRANCH  18  19
ENDBRANCH  17  18
ENDBRANCH  16  17
BRANCH  16  25
HETATM   25  S1  UNL     1      26.870   0.867  52.743  1.00  0.00    -0.007 SA
HETATM   26  C16 UNL     1      26.593  -0.979  52.723  1.00  0.00     0.266 C 
HETATM   27  O3  UNL     1      25.418  -1.184  53.383  1.00  0.00    -0.378 OA
HETATM   28  C17 UNL     1      25.304  -0.542  54.598  1.00  0.00     0.196 C 
HETATM   29  C18 UNL     1      26.578   0.113  55.061  1.00  0.00     0.211 C 
HETATM   30  O4  UNL     1      26.789   1.349  54.448  1.00  0.00    -0.321 OA
ENDBRANCH  16  25
ENDBRANCH  11  16
TORSDOF 5
ENDMDL
MODEL 7
REMARK VINA RESULT:      -8.2      2.253      2.696
REMARK  5 active torsions:
REMARK  status: ('A' for Active; 'I' for Inactive)
REMARK    1  A    between atoms: C10_11  and  C11_12 
REMARK    2  A    between atoms: C11_12  and  O1_13 
REMARK    3  A    between atoms: C11_12  and  S1_20 
REMARK    4  A    between atoms: O1_13  and  C12_14 
REMARK    5  A    between atoms: C12_14  and  C13_15 
ROOT
HETATM    1  C1  UNL     1      30.801   7.343  48.256  1.00  0.00     0.043 C 
HETATM    2  C2  UNL     1      29.364   7.701  48.465  1.00  0.00    -0.084 C 
HETATM    3  C3  UNL     1      29.298   8.804  49.220  1.00  0.00    -0.023 C 
HETATM    4  C4  UNL     1      27.959   9.366  49.592  1.00  0.00     0.001 C 
HETATM    5  C5  UNL     1      26.608   9.265  49.530  1.00  0.00     0.055 C 
HETATM    6  C6  UNL     1      25.309   8.691  49.164  1.00  0.00     0.276 C 
HETATM    7  N1  UNL     1      25.399   7.462  48.425  1.00  0.00     0.093 N 
HETATM    8  C7  UNL     1      25.833   6.412  49.261  1.00  0.00     0.258 C 
HETATM    9  C8  UNL     1      25.000   5.108  49.083  1.00  0.00     0.079 C 
HETATM   10  C9  UNL     1      26.230   4.483  49.631  1.00  0.00    -0.044 C 
HETATM   11  C10 UNL     1      26.471   3.424  50.406  1.00  0.00     0.053 C 
HETATM   12  C19 UNL     1      26.943   5.575  48.900  1.00  0.00    -0.022 C 
HETATM   13  C20 UNL     1      28.132   5.561  48.257  1.00  0.00    -0.013 C 
HETATM   14  C21 UNL     1      28.370   6.920  47.731  1.00  0.00     0.061 C 
HETATM   15  H9  UNL     1      24.441   7.242  48.065  1.00  0.00     0.316 HD
ENDROOT
BRANCH  11  16
HETATM   16  C11 UNL     1      25.518   2.496  50.985  1.00  0.00     0.122 C 
BRANCH  16  17
HETATM   17  O1  UNL     1      24.189   2.518  50.491  1.00  0.00    -0.340 OA
BRANCH  17  18
HETATM   18  C12 UNL     1      23.217   2.893  51.449  1.00  0.00     0.210 C 
BRANCH  18  19
HETATM   19  C13 UNL     1      21.898   2.221  51.292  1.00  0.00     0.170 C 
HETATM   20  C14 UNL     1      21.140   2.003  52.567  1.00  0.00     0.052 C 
HETATM   21  C15 UNL     1      20.296   0.799  52.121  1.00  0.00     0.120 C 
HETATM   22  N2  UNL     1      21.323   0.083  51.368  1.00  0.00    -0.205 NA
HETATM   23  O2  UNL     1      22.069   0.967  50.722  1.00  0.00    -0.298 OA
HETATM   24  H21 UNL     1      21.881  -0.450  52.073  1.00  0.00     0.153 HD
ENDBRANCH  18  19
ENDBRANCH  17  18
ENDBRANCH  16  17
BRANCH  16  25
HETATM   25  S1  UNL     1      25.754   1.375  52.186  1.00  0.00    -0.007 SA
HETATM   26  C16 UNL     1      26.075   1.919  53.943  1.00  0.00     0.266 C 
HETATM   27  O3  UNL     1      27.419   2.127  54.026  1.00  0.00    -0.378 OA
HETATM   28  C17 UNL     1      28.206   1.112  53.527  1.00  0.00     0.196 C 
HETATM   29  C18 UNL     1      27.436  -0.127  53.155  1.00  0.00     0.211 C 
HETATM   30  O4  UNL     1      26.822  -0.013  51.907  1.00  0.00    -0.321 OA
ENDBRANCH  16  25
ENDBRANCH  11  16
TORSDOF 5
ENDMDL
MODEL 8
REMARK VINA RESULT:      -8.0      3.774      8.376
REMARK  5 active torsions:
REMARK  status: ('A' for Active; 'I' for Inactive)
REMARK    1  A    between atoms: C10_11  and  C11_12 
REMARK    2  A    between atoms: C11_12  and  O1_13 
REMARK    3  A    between atoms: C11_12  and  S1_20 
REMARK    4  A    between atoms: O1_13  and  C12_14 
REMARK    5  A    between atoms: C12_14  and  C13_15 
ROOT
HETATM    1  C1  UNL     1      29.924   0.455  53.288  1.00  0.00     0.043 C 
HETATM    2  C2  UNL     1      28.454   0.183  53.353  1.00  0.00    -0.084 C 
HETATM    3  C3  UNL     1      28.242  -1.113  53.094  1.00  0.00    -0.023 C 
HETATM    4  C4  UNL     1      26.840  -1.644  53.079  1.00  0.00     0.001 C 
HETATM    5  C5  UNL     1      25.513  -1.398  53.206  1.00  0.00     0.055 C 
HETATM    6  C6  UNL     1      24.297  -0.607  53.425  1.00  0.00     0.276 C 
HETATM    7  N1  UNL     1      24.538   0.797  53.617  1.00  0.00     0.093 N 
HETATM    8  C7  UNL     1      24.936   1.402  52.407  1.00  0.00     0.258 C 
HETATM    9  C8  UNL     1      24.203   2.748  52.130  1.00  0.00     0.079 C 
HETATM   10  C9  UNL     1      25.398   2.996  51.285  1.00  0.00    -0.044 C 
HETATM   11  C10 UNL     1      25.610   3.651  50.142  1.00  0.00     0.053 C 
HETATM   12  C19 UNL     1      26.125   2.203  52.322  1.00  0.00    -0.022 C 
HETATM   13  C20 UNL     1      27.377   2.347  52.811  1.00  0.00    -0.013 C 
HETATM   14  C21 UNL     1      27.594   1.276  53.803  1.00  0.00     0.061 C 
HETATM   15  H9  UNL     1      23.641   1.227  53.939  1.00  0.00     0.316 HD
ENDROOT
BRANCH  11  16
HETATM   16  C11 UNL     1      24.652   4.375  49.327  1.00  0.00     0.122 C 
BRANCH  16  17
HETATM   17  O1  UNL     1      25.116   5.505  48.608  1.00  0.00    -0.340 OA
BRANCH  17  18
HETATM   18  C12 UNL     1      26.170   6.206  49.239  1.00  0.00     0.210 C 
BRANCH  18  19
HETATM   19  C13 UNL     1      27.394   6.369  48.407  1.00  0.00     0.170 C 
HETATM   20  C14 UNL     1      28.330   5.197  48.415  1.00  0.00     0.052 C 
HETATM   21  C15 UNL     1      29.628   5.946  48.077  1.00  0.00     0.120 C 
HETATM   22  N2  UNL     1      29.414   7.132  48.903  1.00  0.00    -0.205 NA
HETATM   23  O2  UNL     1      28.131   7.457  48.854  1.00  0.00    -0.298 OA
HETATM   24  H21 UNL     1      29.708   6.868  49.871  1.00  0.00     0.153 HD
ENDBRANCH  18  19
ENDBRANCH  17  18
ENDBRANCH  16  17
BRANCH  16  25
HETATM   25  S1  UNL     1      23.035   4.073  49.106  1.00  0.00    -0.007 SA
HETATM   26  C16 UNL     1      22.457   2.408  48.489  1.00  0.00     0.266 C 
HETATM   27  O3  UNL     1      22.515   2.477  47.129  1.00  0.00    -0.378 OA
HETATM   28  C17 UNL     1      21.935   3.594  46.569  1.00  0.00     0.196 C 
HETATM   29  C18 UNL     1      21.171   4.440  47.552  1.00  0.00     0.211 C 
HETATM   30  O4  UNL     1      22.010   5.272  48.295  1.00  0.00    -0.321 OA
ENDBRANCH  16  25
ENDBRANCH  11  16
TORSDOF 5
ENDMDL
MODEL 9
REMARK VINA RESULT:      -8.0      4.730      8.568
REMARK  5 active torsions:
REMARK  status: ('A' for Active; 'I' for Inactive)
REMARK    1  A    between atoms: C10_11  and  C11_12 
REMARK    2  A    between atoms: C11_12  and  O1_13 
REMARK    3  A    between atoms: C11_12  and  S1_20 
REMARK    4  A    between atoms: O1_13  and  C12_14 
REMARK    5  A    between atoms: C12_14  and  C13_15 
ROOT
HETATM    1  C1  UNL     1      21.408   5.770  50.629  1.00  0.00     0.043 C 
HETATM    2  C2  UNL     1      22.539   4.847  50.956  1.00  0.00    -0.084 C 
HETATM    3  C3  UNL     1      22.619   4.714  52.285  1.00  0.00    -0.023 C 
HETATM    4  C4  UNL     1      23.690   3.849  52.878  1.00  0.00     0.001 C 
HETATM    5  C5  UNL     1      24.764   3.045  52.680  1.00  0.00     0.055 C 
HETATM    6  C6  UNL     1      25.796   2.325  51.927  1.00  0.00     0.276 C 
HETATM    7  N1  UNL     1      25.747   2.547  50.508  1.00  0.00     0.093 N 
HETATM    8  C7  UNL     1      26.173   3.855  50.197  1.00  0.00     0.258 C 
HETATM    9  C8  UNL     1      27.170   3.903  49.000  1.00  0.00     0.079 C 
HETATM   10  C9  UNL     1      26.677   5.300  48.902  1.00  0.00    -0.044 C 
HETATM   11  C10 UNL     1      27.228   6.458  48.536  1.00  0.00     0.053 C 
HETATM   12  C19 UNL     1      25.379   4.729  49.377  1.00  0.00    -0.022 C 
HETATM   13  C20 UNL     1      24.110   5.059  49.051  1.00  0.00    -0.013 C 
HETATM   14  C21 UNL     1      23.208   4.191  49.833  1.00  0.00     0.061 C 
HETATM   15  H9  UNL     1      26.396   1.858  50.061  1.00  0.00     0.316 HD
ENDROOT
BRANCH  11  16
HETATM   16  C11 UNL     1      28.584   6.707  48.086  1.00  0.00     0.122 C 
BRANCH  16  17
HETATM   17  O1  UNL     1      28.787   7.738  47.134  1.00  0.00    -0.340 OA
BRANCH  17  18
HETATM   18  C12 UNL     1      28.027   8.908  47.370  1.00  0.00     0.210 C 
BRANCH  18  19
HETATM   19  C13 UNL     1      28.744   9.973  48.123  1.00  0.00     0.170 C 
HETATM   20  C14 UNL     1      30.197  10.123  47.787  1.00  0.00     0.052 C 
HETATM   21  C15 UNL     1      30.670  10.737  49.114  1.00  0.00     0.120 C 
HETATM   22  N2  UNL     1      29.877   9.917  50.026  1.00  0.00    -0.205 NA
HETATM   23  O2  UNL     1      28.684   9.714  49.485  1.00  0.00    -0.298 OA
HETATM   24  H21 UNL     1      30.403   9.022  50.144  1.00  0.00     0.153 HD
ENDBRANCH  18  19
ENDBRANCH  17  18
ENDBRANCH  16  17
BRANCH  16  25
HETATM   25  S1  UNL     1      29.986   5.937  48.529  1.00  0.00    -0.007 SA
HETATM   26  C16 UNL     1      31.513   6.920  48.964  1.00  0.00     0.266 C 
HETATM   27  O3  UNL     1      32.149   7.157  47.782  1.00  0.00    -0.378 OA
HETATM   28  C17 UNL     1      32.317   6.056  46.970  1.00  0.00     0.196 C 
HETATM   29  C18 UNL     1      31.938   4.755  47.625  1.00  0.00     0.211 C 
HETATM   30  O4  UNL     1      30.560   4.536  47.605  1.00  0.00    -0.321 OA
ENDBRANCH  16  25
ENDBRANCH  11  16
TORSDOF 5
ENDMDL
