MODEL 1
REMARK VINA RESULT:      -8.0      0.000      0.000
REMARK  7 active torsions:
REMARK  status: ('A' for Active; 'I' for Inactive)
REMARK    1  A    between atoms: O1_2  and  C2_3 
REMARK    2  A    between atoms: C3_4  and  C4_5 
REMARK    3  A    between atoms: C5_6  and  N1_7 
REMARK    4  A    between atoms: N1_7  and  C6_8 
REMARK    5  A    between atoms: C14_20  and  O2_21 
REMARK    6  A    between atoms: O2_21  and  C15_22 
REMARK    7  A    between atoms: C15_22  and  C16_23 
ROOT
HETATM    1  C4  UNL     1      21.731   0.256  52.737  1.00  0.00     0.040 A 
HETATM    2  C5  UNL     1      22.948   0.194  53.244  1.00  0.00     0.142 A 
HETATM    3  N2  UNL     1      23.096  -0.588  54.418  1.00  0.00    -0.225 NA
HETATM    4  C12 UNL     1      22.132  -1.218  54.992  1.00  0.00     0.209 A 
HETATM    5  N3  UNL     1      20.769  -1.214  54.517  1.00  0.00    -0.348 N 
HETATM    6  C13 UNL     1      20.607  -0.434  53.341  1.00  0.00     0.069 A 
HETATM    7  C14 UNL     1      19.391  -0.387  52.850  1.00  0.00     0.165 C 
HETATM    8  H11 UNL     1      20.060  -1.750  55.046  1.00  0.00     0.167 HD
ENDROOT
BRANCH   2   9
HETATM    9  N1  UNL     1      23.979   0.893  52.596  1.00  0.00    -0.338 N 
HETATM   10  H6  UNL     1      23.801   1.657  51.908  1.00  0.00     0.167 HD
BRANCH   9  11
HETATM   11  C6  UNL     1      25.316   0.539  52.896  1.00  0.00     0.072 A 
HETATM   12  C7  UNL     1      25.821  -0.661  52.406  1.00  0.00     0.034 A 
HETATM   13  C8  UNL     1      27.126  -1.106  52.644  1.00  0.00     0.021 A 
HETATM   14  C9  UNL     1      27.939  -0.293  53.408  1.00  0.00     0.014 A 
HETATM   15 BR1  UNL     1      29.725  -0.861  53.755  1.00  0.00    -0.051 Br
HETATM   16  C10 UNL     1      27.436   0.897  53.892  1.00  0.00     0.063 A 
HETATM   17  C11 UNL     1      26.150   1.337  53.660  1.00  0.00     0.144 A 
HETATM   18  F1  UNL     1      25.676   2.508  54.145  1.00  0.00    -0.204 F 
ENDBRANCH   9  11
ENDBRANCH   2   9
BRANCH   1  19
HETATM   19  C3  UNL     1      21.570   1.056  51.534  1.00  0.00     0.041 C 
HETATM   20  C2  UNL     1      21.523   0.777  50.260  1.00  0.00     0.135 C 
BRANCH  20  21
HETATM   21  O1  UNL     1      21.376   1.452  49.083  1.00  0.00    -0.368 OA
HETATM   22  C1  UNL     1      20.202   2.179  48.759  1.00  0.00     0.208 C 
ENDBRANCH  20  21
ENDBRANCH   1  19
BRANCH   7  23
HETATM   23  O2  UNL     1      18.274  -1.020  53.377  1.00  0.00    -0.360 OA
BRANCH  23  24
HETATM   24  C15 UNL     1      17.086  -1.226  52.668  1.00  0.00     0.179 C 
BRANCH  24  25
HETATM   25  C16 UNL     1      16.362  -2.481  53.095  1.00  0.00     0.013 C 
HETATM   26  C17 UNL     1      15.383  -2.987  52.079  1.00  0.00     0.026 C 
HETATM   27  C18 UNL     1      15.152  -4.458  52.123  1.00  0.00     0.117 C 
HETATM   28  N4  UNL     1      15.591  -5.159  53.255  1.00  0.00    -0.417 N 
HETATM   29  C19 UNL     1      14.547  -5.769  54.042  1.00  0.00     0.143 C 
HETATM   30  C20 UNL     1      16.685  -4.679  54.003  1.00  0.00     0.117 C 
HETATM   31  C21 UNL     1      17.401  -3.551  53.345  1.00  0.00     0.026 C 
ENDBRANCH  24  25
ENDBRANCH  23  24
ENDBRANCH   7  23
TORSDOF 7
ENDMDL
MODEL 2
REMARK VINA RESULT:      -8.0      1.996      2.926
REMARK  7 active torsions:
REMARK  status: ('A' for Active; 'I' for Inactive)
REMARK    1  A    between atoms: O1_2  and  C2_3 
REMARK    2  A    between atoms: C3_4  and  C4_5 
REMARK    3  A    between atoms: C5_6  and  N1_7 
REMARK    4  A    between atoms: N1_7  and  C6_8 
REMARK    5  A    between atoms: C14_20  and  O2_21 
REMARK    6  A    between atoms: O2_21  and  C15_22 
REMARK    7  A    between atoms: C15_22  and  C16_23 
ROOT
HETATM    1  C4  UNL     1      21.782   0.156  52.920  1.00  0.00     0.040 A 
HETATM    2  C5  UNL     1      23.018   0.082  53.376  1.00  0.00     0.142 A 
HETATM    3  N2  UNL     1      23.223  -0.773  54.488  1.00  0.00    -0.225 NA
HETATM    4  C12 UNL     1      22.293  -1.457  55.054  1.00  0.00     0.209 A 
HETATM    5  N3  UNL     1      20.913  -1.447  54.633  1.00  0.00    -0.348 N 
HETATM    6  C13 UNL     1      20.693  -0.593  53.518  1.00  0.00     0.069 A 
HETATM    7  C14 UNL     1      19.458  -0.537  53.078  1.00  0.00     0.165 C 
HETATM    8  H11 UNL     1      20.233  -2.030  55.150  1.00  0.00     0.167 HD
ENDROOT
BRANCH   2   9
HETATM    9  N1  UNL     1      24.012   0.843  52.738  1.00  0.00    -0.338 N 
HETATM   10  H6  UNL     1      23.795   1.634  52.094  1.00  0.00     0.167 HD
BRANCH   9  11
HETATM   11  C6  UNL     1      25.366   0.512  52.985  1.00  0.00     0.072 A 
HETATM   12  C7  UNL     1      25.860  -0.701  52.515  1.00  0.00     0.034 A 
HETATM   13  C8  UNL     1      27.180  -1.124  52.705  1.00  0.00     0.021 A 
HETATM   14  C9  UNL     1      28.019  -0.276  53.399  1.00  0.00     0.014 A 
HETATM   15 BR1  UNL     1      29.826  -0.814  53.680  1.00  0.00    -0.051 Br
HETATM   16  C10 UNL     1      27.527   0.926  53.864  1.00  0.00     0.063 A 
HETATM   17  C11 UNL     1      26.226   1.345  53.678  1.00  0.00     0.144 A 
HETATM   18  F1  UNL     1      25.763   2.529  54.143  1.00  0.00    -0.204 F 
ENDBRANCH   9  11
ENDBRANCH   2   9
BRANCH   1  19
HETATM   19  C3  UNL     1      21.561   1.031  51.780  1.00  0.00     0.041 C 
HETATM   20  C2  UNL     1      21.310   0.826  50.517  1.00  0.00     0.135 C 
BRANCH  20  21
HETATM   21  O1  UNL     1      21.091   1.575  49.396  1.00  0.00    -0.368 OA
HETATM   22  C1  UNL     1      21.887   1.457  48.229  1.00  0.00     0.208 C 
ENDBRANCH  20  21
ENDBRANCH   1  19
BRANCH   7  23
HETATM   23  O2  UNL     1      18.372  -1.224  53.603  1.00  0.00    -0.360 OA
BRANCH  23  24
HETATM   24  C15 UNL     1      17.190  -1.471  52.898  1.00  0.00     0.179 C 
BRANCH  24  25
HETATM   25  C16 UNL     1      16.654  -0.238  52.210  1.00  0.00     0.013 C 
HETATM   26  C17 UNL     1      16.564  -0.370  50.719  1.00  0.00     0.026 C 
HETATM   27  C18 UNL     1      15.504   0.463  50.088  1.00  0.00     0.117 C 
HETATM   28  N4  UNL     1      14.930   1.489  50.853  1.00  0.00    -0.417 N 
HETATM   29  C19 UNL     1      15.167   2.826  50.363  1.00  0.00     0.143 C 
HETATM   30  C20 UNL     1      14.880   1.380  52.258  1.00  0.00     0.117 C 
HETATM   31  C21 UNL     1      15.270   0.032  52.759  1.00  0.00     0.026 C 
ENDBRANCH  24  25
ENDBRANCH  23  24
ENDBRANCH   7  23
TORSDOF 7
ENDMDL
MODEL 3
REMARK VINA RESULT:      -7.5      5.723     10.900
REMARK  7 active torsions:
REMARK  status: ('A' for Active; 'I' for Inactive)
REMARK    1  A    between atoms: O1_2  and  C2_3 
REMARK    2  A    between atoms: C3_4  and  C4_5 
REMARK    3  A    between atoms: C5_6  and  N1_7 
REMARK    4  A    between atoms: N1_7  and  C6_8 
REMARK    5  A    between atoms: C14_20  and  O2_21 
REMARK    6  A    between atoms: O2_21  and  C15_22 
REMARK    7  A    between atoms: C15_22  and  C16_23 
ROOT
HETATM    1  C4  UNL     1      24.818   2.248  51.881  1.00  0.00     0.040 A 
HETATM    2  C5  UNL     1      23.764   2.178  52.673  1.00  0.00     0.142 A 
HETATM    3  N2  UNL     1      22.957   3.342  52.742  1.00  0.00    -0.225 NA
HETATM    4  C12 UNL     1      23.196   4.426  52.094  1.00  0.00     0.209 A 
HETATM    5  N3  UNL     1      24.320   4.604  51.205  1.00  0.00    -0.348 N 
HETATM    6  C13 UNL     1      25.137   3.445  51.125  1.00  0.00     0.069 A 
HETATM    7  C14 UNL     1      26.178   3.534  50.332  1.00  0.00     0.165 C 
HETATM    8  H11 UNL     1      24.432   5.514  50.726  1.00  0.00     0.167 HD
ENDROOT
BRANCH   2   9
HETATM    9  N1  UNL     1      23.530   0.981  53.369  1.00  0.00    -0.338 N 
HETATM   10  H6  UNL     1      24.273   0.482  53.905  1.00  0.00     0.167 HD
BRANCH   9  11
HETATM   11  C6  UNL     1      22.225   0.435  53.336  1.00  0.00     0.072 A 
HETATM   12  C7  UNL     1      21.405   0.715  52.248  1.00  0.00     0.034 A 
HETATM   13  C8  UNL     1      20.100   0.226  52.117  1.00  0.00     0.021 A 
HETATM   14  C9  UNL     1      19.623  -0.575  53.135  1.00  0.00     0.014 A 
HETATM   15 BR1  UNL     1      17.850  -1.261  52.996  1.00  0.00    -0.051 Br
HETATM   16  C10 UNL     1      20.438  -0.851  54.212  1.00  0.00     0.063 A 
HETATM   17  C11 UNL     1      21.724  -0.371  54.344  1.00  0.00     0.144 A 
HETATM   18  F1  UNL     1      22.508  -0.654  55.410  1.00  0.00    -0.204 F 
ENDBRANCH   9  11
ENDBRANCH   2   9
BRANCH   1  19
HETATM   19  C3  UNL     1      25.653   1.061  51.804  1.00  0.00     0.041 C 
HETATM   20  C2  UNL     1      26.786   0.714  52.350  1.00  0.00     0.135 C 
BRANCH  20  21
HETATM   21  O1  UNL     1      27.627  -0.362  52.335  1.00  0.00    -0.368 OA
HETATM   22  C1  UNL     1      28.339  -0.792  53.483  1.00  0.00     0.208 C 
ENDBRANCH  20  21
ENDBRANCH   1  19
BRANCH   7  23
HETATM   23  O2  UNL     1      26.540   4.646  49.583  1.00  0.00    -0.360 OA
BRANCH  23  24
HETATM   24  C15 UNL     1      27.635   4.678  48.713  1.00  0.00     0.179 C 
BRANCH  24  25
HETATM   25  C16 UNL     1      27.884   6.052  48.139  1.00  0.00     0.013 C 
HETATM   26  C17 UNL     1      27.216   7.155  48.904  1.00  0.00     0.026 C 
HETATM   27  C18 UNL     1      27.907   8.472  48.819  1.00  0.00     0.117 C 
HETATM   28  N4  UNL     1      28.880   8.641  47.824  1.00  0.00    -0.417 N 
HETATM   29  C19 UNL     1      28.567   9.630  46.820  1.00  0.00     0.143 C 
HETATM   30  C20 UNL     1      29.602   7.528  47.345  1.00  0.00     0.117 C 
HETATM   31  C21 UNL     1      29.377   6.291  48.143  1.00  0.00     0.026 C 
ENDBRANCH  24  25
ENDBRANCH  23  24
ENDBRANCH   7  23
TORSDOF 7
ENDMDL
MODEL 4
REMARK VINA RESULT:      -7.3      4.011      7.555
REMARK  7 active torsions:
REMARK  status: ('A' for Active; 'I' for Inactive)
REMARK    1  A    between atoms: O1_2  and  C2_3 
REMARK    2  A    between atoms: C3_4  and  C4_5 
REMARK    3  A    between atoms: C5_6  and  N1_7 
REMARK    4  A    between atoms: N1_7  and  C6_8 
REMARK    5  A    between atoms: C14_20  and  O2_21 
REMARK    6  A    between atoms: O2_21  and  C15_22 
REMARK    7  A    between atoms: C15_22  and  C16_23 
ROOT
HETATM    1  C4  UNL     1      23.214   1.899  51.145  1.00  0.00     0.040 A 
HETATM    2  C5  UNL     1      24.358   2.361  51.614  1.00  0.00     0.142 A 
HETATM    3  N2  UNL     1      25.113   3.173  50.730  1.00  0.00    -0.225 NA
HETATM    4  C12 UNL     1      24.748   3.470  49.533  1.00  0.00     0.209 A 
HETATM    5  N3  UNL     1      23.518   3.016  48.928  1.00  0.00    -0.348 N 
HETATM    6  C13 UNL     1      22.752   2.201  49.804  1.00  0.00     0.069 A 
HETATM    7  C14 UNL     1      21.617   1.754  49.320  1.00  0.00     0.165 C 
HETATM    8  H11 UNL     1      23.308   3.306  47.958  1.00  0.00     0.167 HD
ENDROOT
BRANCH   2   9
HETATM    9  N1  UNL     1      24.731   2.018  52.924  1.00  0.00    -0.338 N 
HETATM   10  H6  UNL     1      24.169   2.284  53.762  1.00  0.00     0.167 HD
BRANCH   9  11
HETATM   11  C6  UNL     1      25.924   1.280  53.106  1.00  0.00     0.072 A 
HETATM   12  C7  UNL     1      27.117   1.965  53.310  1.00  0.00     0.034 A 
HETATM   13  C8  UNL     1      28.350   1.333  53.500  1.00  0.00     0.021 A 
HETATM   14  C9  UNL     1      28.360  -0.048  53.479  1.00  0.00     0.014 A 
HETATM   15 BR1  UNL     1      30.019  -0.949  53.734  1.00  0.00    -0.051 Br
HETATM   16  C10 UNL     1      27.175  -0.725  53.277  1.00  0.00     0.063 A 
HETATM   17  C11 UNL     1      25.958  -0.104  53.089  1.00  0.00     0.144 A 
HETATM   18  F1  UNL     1      24.808  -0.788  52.892  1.00  0.00    -0.204 F 
ENDBRANCH   9  11
ENDBRANCH   2   9
BRANCH   1  19
HETATM   19  C3  UNL     1      22.434   1.064  52.044  1.00  0.00     0.041 C 
HETATM   20  C2  UNL     1      21.429   1.290  52.845  1.00  0.00     0.135 C 
BRANCH  20  21
HETATM   21  O1  UNL     1      20.648   0.579  53.710  1.00  0.00    -0.368 OA
HETATM   22  C1  UNL     1      20.882  -0.788  54.006  1.00  0.00     0.208 C 
ENDBRANCH  20  21
ENDBRANCH   1  19
BRANCH   7  23
HETATM   23  O2  UNL     1      21.117   2.004  48.049  1.00  0.00    -0.360 OA
BRANCH  23  24
HETATM   24  C15 UNL     1      20.075   2.899  47.783  1.00  0.00     0.179 C 
BRANCH  24  25
HETATM   25  C16 UNL     1      20.526   4.094  46.978  1.00  0.00     0.013 C 
HETATM   26  C17 UNL     1      21.017   5.235  47.817  1.00  0.00     0.026 C 
HETATM   27  C18 UNL     1      22.027   6.103  47.149  1.00  0.00     0.117 C 
HETATM   28  N4  UNL     1      22.180   5.985  45.761  1.00  0.00    -0.417 N 
HETATM   29  C19 UNL     1      21.827   7.162  45.001  1.00  0.00     0.143 C 
HETATM   30  C20 UNL     1      21.889   4.765  45.118  1.00  0.00     0.117 C 
HETATM   31  C21 UNL     1      21.646   3.642  46.067  1.00  0.00     0.026 C 
ENDBRANCH  24  25
ENDBRANCH  23  24
ENDBRANCH   7  23
TORSDOF 7
ENDMDL
MODEL 5
REMARK VINA RESULT:      -7.2      7.303      9.668
REMARK  7 active torsions:
REMARK  status: ('A' for Active; 'I' for Inactive)
REMARK    1  A    between atoms: O1_2  and  C2_3 
REMARK    2  A    between atoms: C3_4  and  C4_5 
REMARK    3  A    between atoms: C5_6  and  N1_7 
REMARK    4  A    between atoms: N1_7  and  C6_8 
REMARK    5  A    between atoms: C14_20  and  O2_21 
REMARK    6  A    between atoms: O2_21  and  C15_22 
REMARK    7  A    between atoms: C15_22  and  C16_23 
ROOT
HETATM    1  C4  UNL     1      26.880   6.818  49.003  1.00  0.00     0.040 A 
HETATM    2  C5  UNL     1      27.860   6.143  48.429  1.00  0.00     0.142 A 
HETATM    3  N2  UNL     1      27.887   4.748  48.680  1.00  0.00    -0.225 NA
HETATM    4  C12 UNL     1      27.032   4.130  49.415  1.00  0.00     0.209 A 
HETATM    5  N3  UNL     1      25.928   4.774  50.086  1.00  0.00    -0.348 N 
HETATM    6  C13 UNL     1      25.888   6.173  49.842  1.00  0.00     0.069 A 
HETATM    7  C14 UNL     1      24.906   6.825  50.420  1.00  0.00     0.165 C 
HETATM    8  H11 UNL     1      25.291   4.194  50.658  1.00  0.00     0.167 HD
ENDROOT
BRANCH   2   9
HETATM    9  N1  UNL     1      28.778   6.847  47.633  1.00  0.00    -0.338 N 
HETATM   10  H6  UNL     1      28.488   7.470  46.848  1.00  0.00     0.167 HD
BRANCH   9  11
HETATM   11  C6  UNL     1      30.157   6.698  47.917  1.00  0.00     0.072 A 
HETATM   12  C7  UNL     1      30.874   5.699  47.267  1.00  0.00     0.034 A 
HETATM   13  C8  UNL     1      32.238   5.467  47.475  1.00  0.00     0.021 A 
HETATM   14  C9  UNL     1      32.886   6.286  48.378  1.00  0.00     0.014 A 
HETATM   15 BR1  UNL     1      34.745   6.004  48.690  1.00  0.00    -0.051 Br
HETATM   16  C10 UNL     1      32.172   7.276  49.020  1.00  0.00     0.063 A 
HETATM   17  C11 UNL     1      30.828   7.506  48.818  1.00  0.00     0.144 A 
HETATM   18  F1  UNL     1      30.146   8.483  49.459  1.00  0.00    -0.204 F 
ENDBRANCH   9  11
ENDBRANCH   2   9
BRANCH   1  19
HETATM   19  C3  UNL     1      26.845   8.250  48.754  1.00  0.00     0.041 C 
HETATM   20  C2  UNL     1      27.128   9.301  49.473  1.00  0.00     0.135 C 
BRANCH  20  21
HETATM   21  O1  UNL     1      27.125  10.658  49.323  1.00  0.00    -0.368 OA
HETATM   22  C1  UNL     1      28.238  11.375  48.816  1.00  0.00     0.208 C 
ENDBRANCH  20  21
ENDBRANCH   1  19
BRANCH   7  23
HETATM   23  O2  UNL     1      23.927   6.272  51.233  1.00  0.00    -0.360 OA
BRANCH  23  24
HETATM   24  C15 UNL     1      22.612   6.035  50.820  1.00  0.00     0.179 C 
BRANCH  24  25
HETATM   25  C16 UNL     1      22.257   4.567  50.815  1.00  0.00     0.013 C 
HETATM   26  C17 UNL     1      22.580   3.874  49.526  1.00  0.00     0.026 C 
HETATM   27  C18 UNL     1      22.872   2.420  49.663  1.00  0.00     0.117 C 
HETATM   28  N4  UNL     1      22.519   1.788  50.864  1.00  0.00    -0.417 N 
HETATM   29  C19 UNL     1      21.505   0.767  50.746  1.00  0.00     0.143 C 
HETATM   30  C20 UNL     1      22.470   2.528  52.063  1.00  0.00     0.117 C 
HETATM   31  C21 UNL     1      23.030   3.902  51.932  1.00  0.00     0.026 C 
ENDBRANCH  24  25
ENDBRANCH  23  24
ENDBRANCH   7  23
TORSDOF 7
ENDMDL
MODEL 6
REMARK VINA RESULT:      -7.2      4.760      7.245
REMARK  7 active torsions:
REMARK  status: ('A' for Active; 'I' for Inactive)
REMARK    1  A    between atoms: O1_2  and  C2_3 
REMARK    2  A    between atoms: C3_4  and  C4_5 
REMARK    3  A    between atoms: C5_6  and  N1_7 
REMARK    4  A    between atoms: N1_7  and  C6_8 
REMARK    5  A    between atoms: C14_20  and  O2_21 
REMARK    6  A    between atoms: O2_21  and  C15_22 
REMARK    7  A    between atoms: C15_22  and  C16_23 
ROOT
HETATM    1  C4  UNL     1      24.041   2.686  51.573  1.00  0.00     0.040 A 
HETATM    2  C5  UNL     1      25.331   2.819  51.825  1.00  0.00     0.142 A 
HETATM    3  N2  UNL     1      26.128   3.303  50.757  1.00  0.00    -0.225 NA
HETATM    4  C12 UNL     1      25.671   3.609  49.595  1.00  0.00     0.209 A 
HETATM    5  N3  UNL     1      24.281   3.500  49.220  1.00  0.00    -0.348 N 
HETATM    6  C13 UNL     1      23.470   3.016  50.281  1.00  0.00     0.069 A 
HETATM    7  C14 UNL     1      22.191   2.894  50.012  1.00  0.00     0.165 C 
HETATM    8  H11 UNL     1      24.005   3.769  48.260  1.00  0.00     0.167 HD
ENDROOT
BRANCH   2   9
HETATM    9  N1  UNL     1      25.801   2.475  53.103  1.00  0.00    -0.338 N 
HETATM   10  H6  UNL     1      25.470   2.944  53.974  1.00  0.00     0.167 HD
BRANCH   9  11
HETATM   11  C6  UNL     1      26.766   1.445  53.203  1.00  0.00     0.072 A 
HETATM   12  C7  UNL     1      26.385   0.136  52.929  1.00  0.00     0.034 A 
HETATM   13  C8  UNL     1      27.259  -0.955  52.998  1.00  0.00     0.021 A 
HETATM   14  C9  UNL     1      28.565  -0.693  53.360  1.00  0.00     0.014 A 
HETATM   15 BR1  UNL     1      29.789  -2.150  53.467  1.00  0.00    -0.051 Br
HETATM   16  C10 UNL     1      28.940   0.607  53.631  1.00  0.00     0.063 A 
HETATM   17  C11 UNL     1      28.081   1.683  53.563  1.00  0.00     0.144 A 
HETATM   18  F1  UNL     1      28.470   2.951  53.833  1.00  0.00    -0.204 F 
ENDBRANCH   9  11
ENDBRANCH   2   9
BRANCH   1  19
HETATM   19  C3  UNL     1      23.215   2.188  52.660  1.00  0.00     0.041 C 
HETATM   20  C2  UNL     1      22.682   1.029  52.934  1.00  0.00     0.135 C 
BRANCH  20  21
HETATM   21  O1  UNL     1      21.906   0.481  53.915  1.00  0.00    -0.368 OA
HETATM   22  C1  UNL     1      22.245  -0.728  54.573  1.00  0.00     0.208 C 
ENDBRANCH  20  21
ENDBRANCH   1  19
BRANCH   7  23
HETATM   23  O2  UNL     1      21.581   3.189  48.800  1.00  0.00    -0.360 OA
BRANCH  23  24
HETATM   24  C15 UNL     1      21.144   4.468  48.438  1.00  0.00     0.179 C 
BRANCH  24  25
HETATM   25  C16 UNL     1      20.556   4.511  47.048  1.00  0.00     0.013 C 
HETATM   26  C17 UNL     1      21.584   4.541  45.958  1.00  0.00     0.026 C 
HETATM   27  C18 UNL     1      21.136   3.944  44.669  1.00  0.00     0.117 C 
HETATM   28  N4  UNL     1      19.763   3.718  44.491  1.00  0.00    -0.417 N 
HETATM   29  C19 UNL     1      19.144   4.490  43.440  1.00  0.00     0.143 C 
HETATM   30  C20 UNL     1      18.936   3.478  45.608  1.00  0.00     0.117 C 
HETATM   31  C21 UNL     1      19.696   3.279  46.873  1.00  0.00     0.026 C 
ENDBRANCH  24  25
ENDBRANCH  23  24
ENDBRANCH   7  23
TORSDOF 7
ENDMDL
MODEL 7
REMARK VINA RESULT:      -7.0      6.352     11.740
REMARK  7 active torsions:
REMARK  status: ('A' for Active; 'I' for Inactive)
REMARK    1  A    between atoms: O1_2  and  C2_3 
REMARK    2  A    between atoms: C3_4  and  C4_5 
REMARK    3  A    between atoms: C5_6  and  N1_7 
REMARK    4  A    between atoms: N1_7  and  C6_8 
REMARK    5  A    between atoms: C14_20  and  O2_21 
REMARK    6  A    between atoms: O2_21  and  C15_22 
REMARK    7  A    between atoms: C15_22  and  C16_23 
ROOT
HETATM    1  C4  UNL     1      25.269   3.652  50.716  1.00  0.00     0.040 A 
HETATM    2  C5  UNL     1      23.989   3.724  51.033  1.00  0.00     0.142 A 
HETATM    3  N2  UNL     1      23.199   4.598  50.245  1.00  0.00    -0.225 NA
HETATM    4  C12 UNL     1      23.655   5.303  49.270  1.00  0.00     0.209 A 
HETATM    5  N3  UNL     1      25.035   5.296  48.846  1.00  0.00    -0.348 N 
HETATM    6  C13 UNL     1      25.838   4.423  49.627  1.00  0.00     0.069 A 
HETATM    7  C14 UNL     1      27.106   4.364  49.295  1.00  0.00     0.165 C 
HETATM    8  H11 UNL     1      25.311   5.897  48.050  1.00  0.00     0.167 HD
ENDROOT
BRANCH   2   9
HETATM    9  N1  UNL     1      23.521   2.944  52.103  1.00  0.00    -0.338 N 
HETATM   10  H6  UNL     1      24.049   2.831  52.996  1.00  0.00     0.167 HD
BRANCH   9  11
HETATM   11  C6  UNL     1      22.276   2.288  51.955  1.00  0.00     0.072 A 
HETATM   12  C7  UNL     1      22.255   0.989  51.457  1.00  0.00     0.034 A 
HETATM   13  C8  UNL     1      21.080   0.251  51.271  1.00  0.00     0.021 A 
HETATM   14  C9  UNL     1      19.891   0.866  51.608  1.00  0.00     0.014 A 
HETATM   15 BR1  UNL     1      18.268  -0.104  51.371  1.00  0.00    -0.051 Br
HETATM   16  C10 UNL     1      19.915   2.153  52.103  1.00  0.00     0.063 A 
HETATM   17  C11 UNL     1      21.071   2.882  52.287  1.00  0.00     0.144 A 
HETATM   18  F1  UNL     1      21.073   4.145  52.773  1.00  0.00    -0.204 F 
ENDBRANCH   9  11
ENDBRANCH   2   9
BRANCH   1  19
HETATM   19  C3  UNL     1      26.088   2.759  51.520  1.00  0.00     0.041 C 
HETATM   20  C2  UNL     1      26.321   1.476  51.493  1.00  0.00     0.135 C 
BRANCH  20  21
HETATM   21  O1  UNL     1      27.062   0.569  52.194  1.00  0.00    -0.368 OA
HETATM   22  C1  UNL     1      26.678  -0.788  52.337  1.00  0.00     0.208 C 
ENDBRANCH  20  21
ENDBRANCH   1  19
BRANCH   7  23
HETATM   23  O2  UNL     1      27.714   5.073  48.268  1.00  0.00    -0.360 OA
BRANCH  23  24
HETATM   24  C15 UNL     1      29.087   5.334  48.206  1.00  0.00     0.179 C 
BRANCH  24  25
HETATM   25  C16 UNL     1      29.394   6.804  48.052  1.00  0.00     0.013 C 
HETATM   26  C17 UNL     1      28.290   7.703  48.521  1.00  0.00     0.026 C 
HETATM   27  C18 UNL     1      28.743   9.040  48.999  1.00  0.00     0.117 C 
HETATM   28  N4  UNL     1      30.046   9.445  48.680  1.00  0.00    -0.417 N 
HETATM   29  C19 UNL     1      30.138  10.599  47.818  1.00  0.00     0.143 C 
HETATM   30  C20 UNL     1      31.057   8.482  48.480  1.00  0.00     0.117 C 
HETATM   31  C21 UNL     1      30.640   7.102  48.856  1.00  0.00     0.026 C 
ENDBRANCH  24  25
ENDBRANCH  23  24
ENDBRANCH   7  23
TORSDOF 7
ENDMDL
MODEL 8
REMARK VINA RESULT:      -7.0      8.574     12.986
REMARK  7 active torsions:
REMARK  status: ('A' for Active; 'I' for Inactive)
REMARK    1  A    between atoms: O1_2  and  C2_3 
REMARK    2  A    between atoms: C3_4  and  C4_5 
REMARK    3  A    between atoms: C5_6  and  N1_7 
REMARK    4  A    between atoms: N1_7  and  C6_8 
REMARK    5  A    between atoms: C14_20  and  O2_21 
REMARK    6  A    between atoms: O2_21  and  C15_22 
REMARK    7  A    between atoms: C15_22  and  C16_23 
ROOT
HETATM    1  C4  UNL     1      26.318   6.376  49.264  1.00  0.00     0.040 A 
HETATM    2  C5  UNL     1      25.278   5.644  49.615  1.00  0.00     0.142 A 
HETATM    3  N2  UNL     1      24.307   6.286  50.424  1.00  0.00    -0.225 NA
HETATM    4  C12 UNL     1      24.389   7.508  50.818  1.00  0.00     0.209 A 
HETATM    5  N3  UNL     1      25.483   8.390  50.490  1.00  0.00    -0.348 N 
HETATM    6  C13 UNL     1      26.464   7.759  49.679  1.00  0.00     0.069 A 
HETATM    7  C14 UNL     1      27.489   8.504  49.338  1.00  0.00     0.165 C 
HETATM    8  H11 UNL     1      25.464   9.358  50.853  1.00  0.00     0.167 HD
ENDROOT
BRANCH   2   9
HETATM    9  N1  UNL     1      25.217   4.313  49.170  1.00  0.00    -0.338 N 
HETATM   10  H6  UNL     1      25.401   4.036  48.181  1.00  0.00     0.167 HD
BRANCH   9  11
HETATM   11  C6  UNL     1      24.891   3.310  50.113  1.00  0.00     0.072 A 
HETATM   12  C7  UNL     1      23.590   2.820  50.154  1.00  0.00     0.034 A 
HETATM   13  C8  UNL     1      23.163   1.830  51.046  1.00  0.00     0.021 A 
HETATM   14  C9  UNL     1      24.102   1.327  51.924  1.00  0.00     0.014 A 
HETATM   15 BR1  UNL     1      23.563  -0.023  53.156  1.00  0.00    -0.051 Br
HETATM   16  C10 UNL     1      25.392   1.813  51.881  1.00  0.00     0.063 A 
HETATM   17  C11 UNL     1      25.815   2.789  51.003  1.00  0.00     0.144 A 
HETATM   18  F1  UNL     1      27.086   3.253  50.978  1.00  0.00    -0.204 F 
ENDBRANCH   9  11
ENDBRANCH   2   9
BRANCH   1  19
HETATM   19  C3  UNL     1      27.321   5.726  48.436  1.00  0.00     0.041 C 
HETATM   20  C2  UNL     1      28.590   5.464  48.589  1.00  0.00     0.135 C 
BRANCH  20  21
HETATM   21  O1  UNL     1      29.591   4.868  47.878  1.00  0.00    -0.368 OA
HETATM   22  C1  UNL     1      30.921   5.360  47.866  1.00  0.00     0.208 C 
ENDBRANCH  20  21
ENDBRANCH   1  19
BRANCH   7  23
HETATM   23  O2  UNL     1      27.690   9.829  49.701  1.00  0.00    -0.360 OA
BRANCH  23  24
HETATM   24  C15 UNL     1      28.244  10.794  48.853  1.00  0.00     0.179 C 
BRANCH  24  25
HETATM   25  C16 UNL     1      27.384  12.030  48.737  1.00  0.00     0.013 C 
HETATM   26  C17 UNL     1      28.142  13.255  48.324  1.00  0.00     0.026 C 
HETATM   27  C18 UNL     1      27.331  14.265  47.587  1.00  0.00     0.117 C 
HETATM   28  N4  UNL     1      25.935  14.143  47.627  1.00  0.00    -0.417 N 
HETATM   29  C19 UNL     1      25.242  15.226  48.283  1.00  0.00     0.143 C 
HETATM   30  C20 UNL     1      25.341  12.876  47.802  1.00  0.00     0.117 C 
HETATM   31  C21 UNL     1      26.312  11.751  47.707  1.00  0.00     0.026 C 
ENDBRANCH  24  25
ENDBRANCH  23  24
ENDBRANCH   7  23
TORSDOF 7
ENDMDL
MODEL 9
REMARK VINA RESULT:      -6.9      6.449     11.776
REMARK  7 active torsions:
REMARK  status: ('A' for Active; 'I' for Inactive)
REMARK    1  A    between atoms: O1_2  and  C2_3 
REMARK    2  A    between atoms: C3_4  and  C4_5 
REMARK    3  A    between atoms: C5_6  and  N1_7 
REMARK    4  A    between atoms: N1_7  and  C6_8 
REMARK    5  A    between atoms: C14_20  and  O2_21 
REMARK    6  A    between atoms: O2_21  and  C15_22 
REMARK    7  A    between atoms: C15_22  and  C16_23 
ROOT
HETATM    1  C4  UNL     1      24.574   5.015  49.030  1.00  0.00     0.040 A 
HETATM    2  C5  UNL     1      24.162   3.830  49.441  1.00  0.00     0.142 A 
HETATM    3  N2  UNL     1      25.166   2.956  49.931  1.00  0.00    -0.225 NA
HETATM    4  C12 UNL     1      26.416   3.253  49.991  1.00  0.00     0.209 A 
HETATM    5  N3  UNL     1      26.966   4.519  49.567  1.00  0.00    -0.348 N 
HETATM    6  C13 UNL     1      25.970   5.405  49.075  1.00  0.00     0.069 A 
HETATM    7  C14 UNL     1      26.399   6.579  48.674  1.00  0.00     0.165 C 
HETATM    8  H11 UNL     1      27.985   4.668  49.653  1.00  0.00     0.167 HD
ENDROOT
BRANCH   2   9
HETATM    9  N1  UNL     1      22.791   3.534  49.362  1.00  0.00    -0.338 N 
HETATM   10  H6  UNL     1      22.171   3.914  48.614  1.00  0.00     0.167 HD
BRANCH   9  11
HETATM   11  C6  UNL     1      22.236   2.682  50.345  1.00  0.00     0.072 A 
HETATM   12  C7  UNL     1      21.980   1.354  50.019  1.00  0.00     0.034 A 
HETATM   13  C8  UNL     1      21.434   0.429  50.915  1.00  0.00     0.021 A 
HETATM   14  C9  UNL     1      21.140   0.881  52.186  1.00  0.00     0.014 A 
HETATM   15 BR1  UNL     1      20.393  -0.347  53.438  1.00  0.00    -0.051 Br
HETATM   16  C10 UNL     1      21.395   2.198  52.507  1.00  0.00     0.063 A 
HETATM   17  C11 UNL     1      21.933   3.112  51.625  1.00  0.00     0.144 A 
HETATM   18  F1  UNL     1      22.175   4.400  51.961  1.00  0.00    -0.204 F 
ENDBRANCH   9  11
ENDBRANCH   2   9
BRANCH   1  19
HETATM   19  C3  UNL     1      23.553   5.918  48.525  1.00  0.00     0.041 C 
HETATM   20  C2  UNL     1      23.261   6.383  47.341  1.00  0.00     0.135 C 
BRANCH  20  21
HETATM   21  O1  UNL     1      22.337   7.219  46.784  1.00  0.00    -0.368 OA
HETATM   22  C1  UNL     1      22.671   8.183  45.799  1.00  0.00     0.208 C 
ENDBRANCH  20  21
ENDBRANCH   1  19
BRANCH   7  23
HETATM   23  O2  UNL     1      27.717   7.014  48.688  1.00  0.00    -0.360 OA
BRANCH  23  24
HETATM   24  C15 UNL     1      28.471   7.257  47.535  1.00  0.00     0.179 C 
BRANCH  24  25
HETATM   25  C16 UNL     1      29.938   6.951  47.723  1.00  0.00     0.013 C 
HETATM   26  C17 UNL     1      30.575   7.717  48.842  1.00  0.00     0.026 C 
HETATM   27  C18 UNL     1      31.735   7.032  49.478  1.00  0.00     0.117 C 
HETATM   28  N4  UNL     1      32.307   5.945  48.803  1.00  0.00    -0.417 N 
HETATM   29  C19 UNL     1      33.671   6.139  48.369  1.00  0.00     0.143 C 
HETATM   30  C20 UNL     1      31.522   5.159  47.935  1.00  0.00     0.117 C 
HETATM   31  C21 UNL     1      30.068   5.471  48.010  1.00  0.00     0.026 C 
ENDBRANCH  24  25
ENDBRANCH  23  24
ENDBRANCH   7  23
TORSDOF 7
ENDMDL
