MODEL 1
REMARK VINA RESULT:      -7.7      0.000      0.000
REMARK  7 active torsions:
REMARK  status: ('A' for Active; 'I' for Inactive)
REMARK    1  A    between atoms: O1_2  and  C2_3 
REMARK    2  A    between atoms: C6_9  and  N3_10 
REMARK    3  A    between atoms: C14_20  and  O2_21 
REMARK    4  A    between atoms: O2_21  and  C15_22 
REMARK    5  A    between atoms: C15_22  and  C16_23 
REMARK    6  A    between atoms: C16_23  and  C17_24 
REMARK    7  A    between atoms: C17_24  and  N4_25 
ROOT
HETATM    1  C2  UNL     1      21.959   0.119  52.712  1.00  0.00     0.140 C 
HETATM    2  C3  UNL     1      20.595   0.110  52.455  1.00  0.00     0.092 C 
HETATM    3  C4  UNL     1      19.145  -0.230  52.325  1.00  0.00     0.165 C 
HETATM    4  N1  UNL     1      18.970   0.928  51.956  1.00  0.00    -0.415 NA
HETATM    5  C5  UNL     1      18.727   2.137  51.561  1.00  0.00     0.294 C 
HETATM    6  N2  UNL     1      19.564   3.070  51.023  1.00  0.00    -0.245 NA
HETATM    7  C6  UNL     1      20.984   2.814  50.799  1.00  0.00     0.218 C 
HETATM    8  C13 UNL     1      21.394   1.630  51.663  1.00  0.00     0.082 C 
HETATM    9  C14 UNL     1      22.541   1.506  52.103  1.00  0.00     0.138 C 
ENDROOT
BRANCH   9  10
HETATM   10  O2  UNL     1      23.534   1.049  52.683  1.00  0.00    -0.373 OA
BRANCH  10  11
HETATM   11  C15 UNL     1      24.821   1.023  53.166  1.00  0.00     0.170 C 
BRANCH  11  12
HETATM   12  C16 UNL     1      25.601  -0.180  52.642  1.00  0.00     0.056 C 
BRANCH  12  13
HETATM   13  C17 UNL     1      27.082  -0.016  52.679  1.00  0.00     0.274 C 
BRANCH  13  14
HETATM   14  N4  UNL     1      27.697  -0.750  53.759  1.00  0.00     0.092 N 
HETATM   15  C18 UNL     1      28.933  -1.394  53.299  1.00  0.00     0.298 C 
HETATM   16  C19 UNL     1      30.144  -0.576  53.557  1.00  0.00     0.198 C 
HETATM   17  O3  UNL     1      29.761   0.773  53.340  1.00  0.00    -0.388 OA
HETATM   18  C20 UNL     1      29.108   1.109  54.561  1.00  0.00     0.198 C 
HETATM   19  C21 UNL     1      27.970   0.153  54.847  1.00  0.00     0.298 C 
ENDBRANCH  13  14
ENDBRANCH  12  13
ENDBRANCH  11  12
ENDBRANCH  10  11
ENDBRANCH   9  10
BRANCH   1  20
HETATM   20  O1  UNL     1      22.155  -1.155  53.362  1.00  0.00    -0.378 OA
HETATM   21  C1  UNL     1      21.838  -0.930  54.822  1.00  0.00     0.202 C 
ENDBRANCH   1  20
BRANCH   7  22
HETATM   22  N3  UNL     1      21.819   3.912  50.868  1.00  0.00    -0.356 N 
HETATM   23  C7  UNL     1      21.832   5.063  51.860  1.00  0.00     0.155 A 
HETATM   24  C8  UNL     1      23.209   5.722  51.519  1.00  0.00     0.037 A 
HETATM   25  C9  UNL     1      24.243   5.814  50.853  1.00  0.00     0.137 A 
HETATM   26  F1  UNL     1      24.901   6.814  51.375  1.00  0.00    -0.204 F 
HETATM   27  C10 UNL     1      23.822   4.732  50.085  1.00  0.00     0.094 A 
HETATM   28 CL1  UNL     1      25.317   4.624  49.032  1.00  0.00    -0.079 Cl
HETATM   29  C11 UNL     1      22.929   3.746  49.780  1.00  0.00     0.030 A 
HETATM   30  C12 UNL     1      23.045   2.921  48.617  1.00  0.00     0.070 C 
ENDBRANCH   7  22
TORSDOF 7
ENDMDL
MODEL 2
REMARK VINA RESULT:      -7.3      2.542      6.516
REMARK  7 active torsions:
REMARK  status: ('A' for Active; 'I' for Inactive)
REMARK    1  A    between atoms: O1_2  and  C2_3 
REMARK    2  A    between atoms: C6_9  and  N3_10 
REMARK    3  A    between atoms: C14_20  and  O2_21 
REMARK    4  A    between atoms: O2_21  and  C15_22 
REMARK    5  A    between atoms: C15_22  and  C16_23 
REMARK    6  A    between atoms: C16_23  and  C17_24 
REMARK    7  A    between atoms: C17_24  and  N4_25 
ROOT
HETATM    1  C2  UNL     1      22.992  -0.378  53.074  1.00  0.00     0.140 C 
HETATM    2  C3  UNL     1      24.105  -0.456  53.900  1.00  0.00     0.092 C 
HETATM    3  C4  UNL     1      25.135  -0.838  54.914  1.00  0.00     0.165 C 
HETATM    4  N1  UNL     1      25.833   0.060  54.450  1.00  0.00    -0.415 NA
HETATM    5  C5  UNL     1      26.613   0.991  54.000  1.00  0.00     0.294 C 
HETATM    6  N2  UNL     1      26.317   2.112  53.280  1.00  0.00    -0.245 NA
HETATM    7  C6  UNL     1      24.956   2.447  52.874  1.00  0.00     0.218 C 
HETATM    8  C13 UNL     1      24.111   1.184  52.958  1.00  0.00     0.082 C 
HETATM    9  C14 UNL     1      23.137   0.997  52.222  1.00  0.00     0.138 C 
ENDROOT
BRANCH   9  10
HETATM   10  O2  UNL     1      22.140   0.481  51.702  1.00  0.00    -0.373 OA
BRANCH  10  11
HETATM   11  C15 UNL     1      21.172   0.270  50.747  1.00  0.00     0.170 C 
BRANCH  11  12
HETATM   12  C16 UNL     1      21.289   1.260  49.593  1.00  0.00     0.056 C 
BRANCH  12  13
HETATM   13  C17 UNL     1      20.113   2.164  49.436  1.00  0.00     0.274 C 
BRANCH  13  14
HETATM   14  N4  UNL     1      20.385   3.512  49.875  1.00  0.00     0.092 N 
HETATM   15  C18 UNL     1      19.657   4.476  49.041  1.00  0.00     0.298 C 
HETATM   16  C19 UNL     1      18.345   4.866  49.617  1.00  0.00     0.198 C 
HETATM   17  O3  UNL     1      17.814   3.695  50.217  1.00  0.00    -0.388 OA
HETATM   18  C20 UNL     1      18.502   3.649  51.464  1.00  0.00     0.198 C 
HETATM   19  C21 UNL     1      20.001   3.645  51.256  1.00  0.00     0.298 C 
ENDBRANCH  13  14
ENDBRANCH  12  13
ENDBRANCH  11  12
ENDBRANCH  10  11
ENDBRANCH   9  10
BRANCH   1  20
HETATM   20  O1  UNL     1      22.253  -1.562  53.444  1.00  0.00    -0.378 OA
HETATM   21  C1  UNL     1      21.389  -1.163  54.617  1.00  0.00     0.202 C 
ENDBRANCH   1  20
BRANCH   7  22
HETATM   22  N3  UNL     1      24.829   3.165  51.701  1.00  0.00    -0.356 N 
HETATM   23  C7  UNL     1      25.365   2.861  50.312  1.00  0.00     0.155 A 
HETATM   24  C8  UNL     1      24.573   3.908  49.462  1.00  0.00     0.037 A 
HETATM   25  C9  UNL     1      23.792   4.855  49.342  1.00  0.00     0.137 A 
HETATM   26  F1  UNL     1      23.733   5.094  48.060  1.00  0.00    -0.204 F 
HETATM   27  C10 UNL     1      23.622   4.865  50.725  1.00  0.00     0.094 A 
HETATM   28 CL1  UNL     1      22.370   6.200  50.776  1.00  0.00    -0.079 Cl
HETATM   29  C11 UNL     1      23.873   4.372  51.972  1.00  0.00     0.030 A 
HETATM   30  C12 UNL     1      23.413   5.007  53.169  1.00  0.00     0.070 C 
ENDBRANCH   7  22
TORSDOF 7
ENDMDL
MODEL 3
REMARK VINA RESULT:      -7.3      2.537      6.847
REMARK  7 active torsions:
REMARK  status: ('A' for Active; 'I' for Inactive)
REMARK    1  A    between atoms: O1_2  and  C2_3 
REMARK    2  A    between atoms: C6_9  and  N3_10 
REMARK    3  A    between atoms: C14_20  and  O2_21 
REMARK    4  A    between atoms: O2_21  and  C15_22 
REMARK    5  A    between atoms: C15_22  and  C16_23 
REMARK    6  A    between atoms: C16_23  and  C17_24 
REMARK    7  A    between atoms: C17_24  and  N4_25 
ROOT
HETATM    1  C2  UNL     1      23.016  -0.373  53.002  1.00  0.00     0.140 C 
HETATM    2  C3  UNL     1      24.103  -0.458  53.861  1.00  0.00     0.092 C 
HETATM    3  C4  UNL     1      25.102  -0.850  54.902  1.00  0.00     0.165 C 
HETATM    4  N1  UNL     1      25.810   0.058  54.473  1.00  0.00    -0.415 NA
HETATM    5  C5  UNL     1      26.599   0.999  54.061  1.00  0.00     0.294 C 
HETATM    6  N2  UNL     1      26.321   2.128  53.348  1.00  0.00    -0.245 NA
HETATM    7  C6  UNL     1      24.971   2.463  52.904  1.00  0.00     0.218 C 
HETATM    8  C13 UNL     1      24.130   1.194  52.942  1.00  0.00     0.082 C 
HETATM    9  C14 UNL     1      23.182   1.014  52.174  1.00  0.00     0.138 C 
ENDROOT
BRANCH   9  10
HETATM   10  O2  UNL     1      22.203   0.501  51.615  1.00  0.00    -0.373 OA
BRANCH  10  11
HETATM   11  C15 UNL     1      21.036   0.456  50.890  1.00  0.00     0.170 C 
BRANCH  11  12
HETATM   12  C16 UNL     1      20.088   1.590  51.269  1.00  0.00     0.056 C 
BRANCH  12  13
HETATM   13  C17 UNL     1      18.793   1.139  51.856  1.00  0.00     0.274 C 
BRANCH  13  14
HETATM   14  N4  UNL     1      18.408  -0.178  51.409  1.00  0.00     0.092 N 
HETATM   15  C18 UNL     1      17.887  -0.966  52.533  1.00  0.00     0.298 C 
HETATM   16  C19 UNL     1      16.409  -0.895  52.653  1.00  0.00     0.198 C 
HETATM   17  O3  UNL     1      16.049   0.434  52.312  1.00  0.00    -0.388 OA
HETATM   18  C20 UNL     1      16.068   0.403  50.887  1.00  0.00     0.198 C 
HETATM   19  C21 UNL     1      17.416  -0.053  50.373  1.00  0.00     0.298 C 
ENDBRANCH  13  14
ENDBRANCH  12  13
ENDBRANCH  11  12
ENDBRANCH  10  11
ENDBRANCH   9  10
BRANCH   1  20
HETATM   20  O1  UNL     1      22.272  -1.566  53.331  1.00  0.00    -0.378 OA
HETATM   21  C1  UNL     1      21.386  -1.194  54.496  1.00  0.00     0.202 C 
ENDBRANCH   1  20
BRANCH   7  22
HETATM   22  N3  UNL     1      24.878   3.197  51.737  1.00  0.00    -0.356 N 
HETATM   23  C7  UNL     1      25.542   2.969  50.390  1.00  0.00     0.155 A 
HETATM   24  C8  UNL     1      24.737   3.972  49.499  1.00  0.00     0.037 A 
HETATM   25  C9  UNL     1      23.894   4.857  49.335  1.00  0.00     0.137 A 
HETATM   26  F1  UNL     1      23.915   5.121  48.057  1.00  0.00    -0.204 F 
HETATM   27  C10 UNL     1      23.618   4.820  50.700  1.00  0.00     0.094 A 
HETATM   28 CL1  UNL     1      22.263   6.052  50.677  1.00  0.00    -0.079 Cl
HETATM   29  C11 UNL     1      23.811   4.319  51.954  1.00  0.00     0.030 A 
HETATM   30  C12 UNL     1      23.211   4.886  53.122  1.00  0.00     0.070 C 
ENDBRANCH   7  22
TORSDOF 7
ENDMDL
MODEL 4
REMARK VINA RESULT:      -7.0      7.088     10.030
REMARK  7 active torsions:
REMARK  status: ('A' for Active; 'I' for Inactive)
REMARK    1  A    between atoms: O1_2  and  C2_3 
REMARK    2  A    between atoms: C6_9  and  N3_10 
REMARK    3  A    between atoms: C14_20  and  O2_21 
REMARK    4  A    between atoms: O2_21  and  C15_22 
REMARK    5  A    between atoms: C15_22  and  C16_23 
REMARK    6  A    between atoms: C16_23  and  C17_24 
REMARK    7  A    between atoms: C17_24  and  N4_25 
ROOT
HETATM    1  C2  UNL     1      29.774  10.471  49.107  1.00  0.00     0.140 C 
HETATM    2  C3  UNL     1      28.755  11.392  48.906  1.00  0.00     0.092 C 
HETATM    3  C4  UNL     1      27.931  12.623  48.706  1.00  0.00     0.165 C 
HETATM    4  N1  UNL     1      26.981  11.876  48.489  1.00  0.00    -0.415 NA
HETATM    5  C5  UNL     1      25.944  11.138  48.250  1.00  0.00     0.294 C 
HETATM    6  N2  UNL     1      25.696   9.839  48.586  1.00  0.00    -0.245 NA
HETATM    7  C6  UNL     1      26.654   9.022  49.325  1.00  0.00     0.218 C 
HETATM    8  C13 UNL     1      28.025   9.673  49.204  1.00  0.00     0.082 C 
HETATM    9  C14 UNL     1      29.068   9.014  49.236  1.00  0.00     0.138 C 
ENDROOT
BRANCH   9  10
HETATM   10  O2  UNL     1      30.269   8.715  49.238  1.00  0.00    -0.373 OA
BRANCH  10  11
HETATM   11  C15 UNL     1      31.375   7.906  49.121  1.00  0.00     0.170 C 
BRANCH  11  12
HETATM   12  C16 UNL     1      30.992   6.458  48.833  1.00  0.00     0.056 C 
BRANCH  12  13
HETATM   13  C17 UNL     1      32.128   5.495  48.902  1.00  0.00     0.274 C 
BRANCH  13  14
HETATM   14  N4  UNL     1      33.145   5.762  47.912  1.00  0.00     0.092 N 
HETATM   15  C18 UNL     1      34.437   5.220  48.349  1.00  0.00     0.298 C 
HETATM   16  C19 UNL     1      34.700   3.857  47.826  1.00  0.00     0.198 C 
HETATM   17  O3  UNL     1      33.453   3.182  47.837  1.00  0.00    -0.388 OA
HETATM   18  C20 UNL     1      32.829   3.664  46.651  1.00  0.00     0.198 C 
HETATM   19  C21 UNL     1      32.747   5.176  46.658  1.00  0.00     0.298 C 
ENDBRANCH  13  14
ENDBRANCH  12  13
ENDBRANCH  11  12
ENDBRANCH  10  11
ENDBRANCH   9  10
BRANCH   1  20
HETATM   20  O1  UNL     1      30.945  11.313  49.139  1.00  0.00    -0.378 OA
HETATM   21  C1  UNL     1      31.312  11.570  47.696  1.00  0.00     0.202 C 
ENDBRANCH   1  20
BRANCH   7  22
HETATM   22  N3  UNL     1      26.622   7.665  49.072  1.00  0.00    -0.356 N 
HETATM   23  C7  UNL     1      27.518   6.820  48.182  1.00  0.00     0.155 A 
HETATM   24  C8  UNL     1      27.103   5.382  48.637  1.00  0.00     0.037 A 
HETATM   25  C9  UNL     1      26.415   4.599  49.296  1.00  0.00     0.137 A 
HETATM   26  F1  UNL     1      26.844   3.408  48.975  1.00  0.00    -0.204 F 
HETATM   27  C10 UNL     1      25.743   5.685  49.850  1.00  0.00     0.094 A 
HETATM   28 CL1  UNL     1      24.678   4.720  50.985  1.00  0.00    -0.079 Cl
HETATM   29  C11 UNL     1      25.532   7.026  49.993  1.00  0.00     0.030 A 
HETATM   30  C12 UNL     1      24.437   7.569  50.736  1.00  0.00     0.070 C 
ENDBRANCH   7  22
TORSDOF 7
ENDMDL
MODEL 5
REMARK VINA RESULT:      -6.9      2.732      5.395
REMARK  7 active torsions:
REMARK  status: ('A' for Active; 'I' for Inactive)
REMARK    1  A    between atoms: O1_2  and  C2_3 
REMARK    2  A    between atoms: C6_9  and  N3_10 
REMARK    3  A    between atoms: C14_20  and  O2_21 
REMARK    4  A    between atoms: O2_21  and  C15_22 
REMARK    5  A    between atoms: C15_22  and  C16_23 
REMARK    6  A    between atoms: C16_23  and  C17_24 
REMARK    7  A    between atoms: C17_24  and  N4_25 
ROOT
HETATM    1  C2  UNL     1      24.462   0.355  52.893  1.00  0.00     0.140 C 
HETATM    2  C3  UNL     1      23.676  -0.328  53.810  1.00  0.00     0.092 C 
HETATM    3  C4  UNL     1      23.140  -1.235  54.871  1.00  0.00     0.165 C 
HETATM    4  N1  UNL     1      22.089  -0.604  54.792  1.00  0.00    -0.415 NA
HETATM    5  C5  UNL     1      20.959   0.027  54.753  1.00  0.00     0.294 C 
HETATM    6  N2  UNL     1      20.422   0.806  53.770  1.00  0.00    -0.245 NA
HETATM    7  C6  UNL     1      21.113   1.067  52.511  1.00  0.00     0.218 C 
HETATM    8  C13 UNL     1      22.590   0.759  52.707  1.00  0.00     0.082 C 
HETATM    9  C14 UNL     1      23.472   1.345  52.072  1.00  0.00     0.138 C 
ENDROOT
BRANCH   9  10
HETATM   10  O2  UNL     1      24.582   1.684  51.641  1.00  0.00    -0.373 OA
BRANCH  10  11
HETATM   11  C15 UNL     1      25.559   2.537  51.184  1.00  0.00     0.170 C 
BRANCH  11  12
HETATM   12  C16 UNL     1      25.013   3.529  50.162  1.00  0.00     0.056 C 
BRANCH  12  13
HETATM   13  C17 UNL     1      24.538   4.816  50.747  1.00  0.00     0.274 C 
BRANCH  13  14
HETATM   14  N4  UNL     1      25.347   5.942  50.346  1.00  0.00     0.092 N 
HETATM   15  C18 UNL     1      25.605   5.896  48.902  1.00  0.00     0.298 C 
HETATM   16  C19 UNL     1      24.630   6.692  48.115  1.00  0.00     0.198 C 
HETATM   17  O3  UNL     1      23.375   6.525  48.756  1.00  0.00    -0.388 OA
HETATM   18  C20 UNL     1      23.458   7.447  49.840  1.00  0.00     0.198 C 
HETATM   19  C21 UNL     1      24.669   7.161  50.703  1.00  0.00     0.298 C 
ENDBRANCH  13  14
ENDBRANCH  12  13
ENDBRANCH  11  12
ENDBRANCH  10  11
ENDBRANCH   9  10
BRANCH   1  20
HETATM   20  O1  UNL     1      25.768  -0.215  53.127  1.00  0.00    -0.378 OA
HETATM   21  C1  UNL     1      26.307   0.471  54.359  1.00  0.00     0.202 C 
ENDBRANCH   1  20
BRANCH   7  22
HETATM   22  N3  UNL     1      20.838   2.278  51.904  1.00  0.00    -0.356 N 
HETATM   23  C7  UNL     1      21.289   3.679  52.283  1.00  0.00     0.155 A 
HETATM   24  C8  UNL     1      20.877   4.470  50.997  1.00  0.00     0.037 A 
HETATM   25  C9  UNL     1      20.353   4.553  49.884  1.00  0.00     0.137 A 
HETATM   26  F1  UNL     1      20.510   5.797  49.521  1.00  0.00    -0.204 F 
HETATM   27  C10 UNL     1      20.032   3.200  49.956  1.00  0.00     0.094 A 
HETATM   28 CL1  UNL     1      19.288   3.069  48.287  1.00  0.00    -0.079 Cl
HETATM   29  C11 UNL     1      20.040   1.992  50.590  1.00  0.00     0.030 A 
HETATM   30  C12 UNL     1      19.320   0.853  50.110  1.00  0.00     0.070 C 
ENDBRANCH   7  22
TORSDOF 7
ENDMDL
MODEL 6
REMARK VINA RESULT:      -6.9      3.193      6.026
REMARK  7 active torsions:
REMARK  status: ('A' for Active; 'I' for Inactive)
REMARK    1  A    between atoms: O1_2  and  C2_3 
REMARK    2  A    between atoms: C6_9  and  N3_10 
REMARK    3  A    between atoms: C14_20  and  O2_21 
REMARK    4  A    between atoms: O2_21  and  C15_22 
REMARK    5  A    between atoms: C15_22  and  C16_23 
REMARK    6  A    between atoms: C16_23  and  C17_24 
REMARK    7  A    between atoms: C17_24  and  N4_25 
ROOT
HETATM    1  C2  UNL     1      25.830   1.530  52.007  1.00  0.00     0.140 C 
HETATM    2  C3  UNL     1      25.376   0.473  52.785  1.00  0.00     0.092 C 
HETATM    3  C4  UNL     1      25.243  -0.729  53.662  1.00  0.00     0.165 C 
HETATM    4  N1  UNL     1      24.039  -0.492  53.699  1.00  0.00    -0.415 NA
HETATM    5  C5  UNL     1      22.762  -0.290  53.773  1.00  0.00     0.294 C 
HETATM    6  N2  UNL     1      21.934   0.415  52.948  1.00  0.00    -0.245 NA
HETATM    7  C6  UNL     1      22.419   1.108  51.758  1.00  0.00     0.218 C 
HETATM    8  C13 UNL     1      23.923   1.295  51.896  1.00  0.00     0.082 C 
HETATM    9  C14 UNL     1      24.515   2.247  51.379  1.00  0.00     0.138 C 
ENDROOT
BRANCH   9  10
HETATM   10  O2  UNL     1      25.418   3.013  51.018  1.00  0.00    -0.373 OA
BRANCH  10  11
HETATM   11  C15 UNL     1      26.204   3.724  50.142  1.00  0.00     0.170 C 
BRANCH  11  12
HETATM   12  C16 UNL     1      25.377   4.666  49.272  1.00  0.00     0.056 C 
BRANCH  12  13
HETATM   13  C17 UNL     1      25.482   6.104  49.651  1.00  0.00     0.274 C 
BRANCH  13  14
HETATM   14  N4  UNL     1      26.004   6.924  48.584  1.00  0.00     0.092 N 
HETATM   15  C18 UNL     1      24.984   7.875  48.126  1.00  0.00     0.298 C 
HETATM   16  C19 UNL     1      25.084   9.197  48.794  1.00  0.00     0.198 C 
HETATM   17  O3  UNL     1      25.452   8.932  50.139  1.00  0.00    -0.388 OA
HETATM   18  C20 UNL     1      26.858   8.725  50.039  1.00  0.00     0.198 C 
HETATM   19  C21 UNL     1      27.173   7.620  49.053  1.00  0.00     0.298 C 
ENDBRANCH  13  14
ENDBRANCH  12  13
ENDBRANCH  11  12
ENDBRANCH  10  11
ENDBRANCH   9  10
BRANCH   1  20
HETATM   20  O1  UNL     1      27.262   1.410  52.135  1.00  0.00    -0.378 OA
HETATM   21  C1  UNL     1      27.621   2.075  53.443  1.00  0.00     0.202 C 
ENDBRANCH   1  20
BRANCH   7  22
HETATM   22  N3  UNL     1      21.717   2.237  51.382  1.00  0.00    -0.356 N 
HETATM   23  C7  UNL     1      21.317   3.452  52.202  1.00  0.00     0.155 A 
HETATM   24  C8  UNL     1      20.854   4.425  51.068  1.00  0.00     0.037 A 
HETATM   25  C9  UNL     1      20.612   4.696  49.890  1.00  0.00     0.137 A 
HETATM   26  F1  UNL     1      20.202   5.936  49.898  1.00  0.00    -0.204 F 
HETATM   27  C10 UNL     1      20.999   3.406  49.534  1.00  0.00     0.094 A 
HETATM   28 CL1  UNL     1      20.798   3.615  47.725  1.00  0.00    -0.079 Cl
HETATM   29  C11 UNL     1      21.471   2.163  49.839  1.00  0.00     0.030 A 
HETATM   30  C12 UNL     1      21.535   1.097  48.888  1.00  0.00     0.070 C 
ENDBRANCH   7  22
TORSDOF 7
ENDMDL
MODEL 7
REMARK VINA RESULT:      -6.9      3.381      5.831
REMARK  7 active torsions:
REMARK  status: ('A' for Active; 'I' for Inactive)
REMARK    1  A    between atoms: O1_2  and  C2_3 
REMARK    2  A    between atoms: C6_9  and  N3_10 
REMARK    3  A    between atoms: C14_20  and  O2_21 
REMARK    4  A    between atoms: O2_21  and  C15_22 
REMARK    5  A    between atoms: C15_22  and  C16_23 
REMARK    6  A    between atoms: C16_23  and  C17_24 
REMARK    7  A    between atoms: C17_24  and  N4_25 
ROOT
HETATM    1  C2  UNL     1      25.753   5.738  49.112  1.00  0.00     0.140 C 
HETATM    2  C3  UNL     1      25.173   6.621  48.211  1.00  0.00     0.092 C 
HETATM    3  C4  UNL     1      24.868   7.741  47.270  1.00  0.00     0.165 C 
HETATM    4  N1  UNL     1      23.824   7.151  47.005  1.00  0.00    -0.415 NA
HETATM    5  C5  UNL     1      22.709   6.573  46.687  1.00  0.00     0.294 C 
HETATM    6  N2  UNL     1      21.981   5.638  47.362  1.00  0.00    -0.245 NA
HETATM    7  C6  UNL     1      22.397   5.105  48.656  1.00  0.00     0.218 C 
HETATM    8  C13 UNL     1      23.883   5.384  48.829  1.00  0.00     0.082 C 
HETATM    9  C14 UNL     1      24.614   4.648  49.498  1.00  0.00     0.138 C 
ENDROOT
BRANCH   9  10
HETATM   10  O2  UNL     1      25.611   4.184  50.067  1.00  0.00    -0.373 OA
BRANCH  10  11
HETATM   11  C15 UNL     1      26.356   3.276  50.782  1.00  0.00     0.170 C 
BRANCH  11  12
HETATM   12  C16 UNL     1      25.513   2.542  51.820  1.00  0.00     0.056 C 
BRANCH  12  13
HETATM   13  C17 UNL     1      26.290   1.998  52.971  1.00  0.00     0.274 C 
BRANCH  13  14
HETATM   14  N4  UNL     1      27.404   1.180  52.553  1.00  0.00     0.092 N 
HETATM   15  C18 UNL     1      28.424   1.132  53.607  1.00  0.00     0.298 C 
HETATM   16  C19 UNL     1      28.276  -0.042  54.503  1.00  0.00     0.198 C 
HETATM   17  O3  UNL     1      26.881  -0.240  54.667  1.00  0.00    -0.388 OA
HETATM   18  C20 UNL     1      26.526  -0.934  53.475  1.00  0.00     0.198 C 
HETATM   19  C21 UNL     1      26.927  -0.144  52.247  1.00  0.00     0.298 C 
ENDBRANCH  13  14
ENDBRANCH  12  13
ENDBRANCH  11  12
ENDBRANCH  10  11
ENDBRANCH   9  10
BRANCH   1  20
HETATM   20  O1  UNL     1      27.078   6.288  49.267  1.00  0.00    -0.378 OA
HETATM   21  C1  UNL     1      27.952   5.555  48.277  1.00  0.00     0.202 C 
ENDBRANCH   1  20
BRANCH   7  22
HETATM   22  N3  UNL     1      22.003   3.811  48.937  1.00  0.00    -0.356 N 
HETATM   23  C7  UNL     1      22.204   2.537  48.133  1.00  0.00     0.155 A 
HETATM   24  C8  UNL     1      21.800   1.460  49.193  1.00  0.00     0.037 A 
HETATM   25  C9  UNL     1      21.375   1.119  50.299  1.00  0.00     0.137 A 
HETATM   26  F1  UNL     1      21.378  -0.186  50.283  1.00  0.00    -0.204 F 
HETATM   27  C10 UNL     1      21.252   2.463  50.645  1.00  0.00     0.094 A 
HETATM   28 CL1  UNL     1      20.693   2.189  52.367  1.00  0.00    -0.079 Cl
HETATM   29  C11 UNL     1      21.381   3.793  50.371  1.00  0.00     0.030 A 
HETATM   30  C12 UNL     1      20.884   4.819  51.235  1.00  0.00     0.070 C 
ENDBRANCH   7  22
TORSDOF 7
ENDMDL
MODEL 8
REMARK VINA RESULT:      -6.8      1.991      2.472
REMARK  7 active torsions:
REMARK  status: ('A' for Active; 'I' for Inactive)
REMARK    1  A    between atoms: O1_2  and  C2_3 
REMARK    2  A    between atoms: C6_9  and  N3_10 
REMARK    3  A    between atoms: C14_20  and  O2_21 
REMARK    4  A    between atoms: O2_21  and  C15_22 
REMARK    5  A    between atoms: C15_22  and  C16_23 
REMARK    6  A    between atoms: C16_23  and  C17_24 
REMARK    7  A    between atoms: C17_24  and  N4_25 
ROOT
HETATM    1  C2  UNL     1      21.322  -0.052  52.476  1.00  0.00     0.140 C 
HETATM    2  C3  UNL     1      19.960  -0.188  52.244  1.00  0.00     0.092 C 
HETATM    3  C4  UNL     1      18.511  -0.555  52.282  1.00  0.00     0.165 C 
HETATM    4  N1  UNL     1      18.341   0.281  51.398  1.00  0.00    -0.415 NA
HETATM    5  C5  UNL     1      18.102   1.149  50.468  1.00  0.00     0.294 C 
HETATM    6  N2  UNL     1      18.945   1.711  49.553  1.00  0.00    -0.245 NA
HETATM    7  C6  UNL     1      20.367   1.384  49.493  1.00  0.00     0.218 C 
HETATM    8  C13 UNL     1      20.769   0.764  50.824  1.00  0.00     0.082 C 
HETATM    9  C14 UNL     1      21.911   0.872  51.279  1.00  0.00     0.138 C 
ENDROOT
BRANCH   9  10
HETATM   10  O2  UNL     1      22.898   0.755  52.016  1.00  0.00    -0.373 OA
BRANCH  10  11
HETATM   11  C15 UNL     1      24.071   1.121  52.635  1.00  0.00     0.170 C 
BRANCH  11  12
HETATM   12  C16 UNL     1      24.882  -0.093  53.078  1.00  0.00     0.056 C 
BRANCH  12  13
HETATM   13  C17 UNL     1      26.159   0.240  53.772  1.00  0.00     0.274 C 
BRANCH  13  14
HETATM   14  N4  UNL     1      27.257   0.429  52.855  1.00  0.00     0.092 N 
HETATM   15  C18 UNL     1      27.624   1.849  52.785  1.00  0.00     0.298 C 
HETATM   16  C19 UNL     1      28.723   2.209  53.716  1.00  0.00     0.198 C 
HETATM   17  O3  UNL     1      28.508   1.447  54.894  1.00  0.00    -0.388 OA
HETATM   18  C20 UNL     1      29.043   0.174  54.539  1.00  0.00     0.198 C 
HETATM   19  C21 UNL     1      28.377  -0.364  53.291  1.00  0.00     0.298 C 
ENDBRANCH  13  14
ENDBRANCH  12  13
ENDBRANCH  11  12
ENDBRANCH  10  11
ENDBRANCH   9  10
BRANCH   1  20
HETATM   20  O1  UNL     1      21.511  -0.853  53.662  1.00  0.00    -0.378 OA
HETATM   21  C1  UNL     1      21.135   0.032  54.827  1.00  0.00     0.202 C 
ENDBRANCH   1  20
BRANCH   7  22
HETATM   22  N3  UNL     1      21.203   2.383  49.031  1.00  0.00    -0.356 N 
HETATM   23  C7  UNL     1      22.232   2.350  47.914  1.00  0.00     0.155 A 
HETATM   24  C8  UNL     1      22.535   3.877  47.758  1.00  0.00     0.037 A 
HETATM   25  C9  UNL     1      22.408   5.058  48.089  1.00  0.00     0.137 A 
HETATM   26  F1  UNL     1      23.160   5.732  47.262  1.00  0.00    -0.204 F 
HETATM   27  C10 UNL     1      21.533   4.660  49.097  1.00  0.00     0.094 A 
HETATM   28 CL1  UNL     1      21.122   6.340  49.699  1.00  0.00    -0.079 Cl
HETATM   29  C11 UNL     1      20.838   3.705  49.782  1.00  0.00     0.030 A 
HETATM   30  C12 UNL     1      20.103   3.982  50.977  1.00  0.00     0.070 C 
ENDBRANCH   7  22
TORSDOF 7
ENDMDL
MODEL 9
REMARK VINA RESULT:      -6.7      3.616      5.671
REMARK  7 active torsions:
REMARK  status: ('A' for Active; 'I' for Inactive)
REMARK    1  A    between atoms: O1_2  and  C2_3 
REMARK    2  A    between atoms: C6_9  and  N3_10 
REMARK    3  A    between atoms: C14_20  and  O2_21 
REMARK    4  A    between atoms: O2_21  and  C15_22 
REMARK    5  A    between atoms: C15_22  and  C16_23 
REMARK    6  A    between atoms: C16_23  and  C17_24 
REMARK    7  A    between atoms: C17_24  and  N4_25 
ROOT
HETATM    1  C2  UNL     1      22.015   3.852  52.141  1.00  0.00     0.140 C 
HETATM    2  C3  UNL     1      21.782   5.059  51.497  1.00  0.00     0.092 C 
HETATM    3  C4  UNL     1      21.857   6.445  50.941  1.00  0.00     0.165 C 
HETATM    4  N1  UNL     1      20.829   6.184  50.322  1.00  0.00    -0.415 NA
HETATM    5  C5  UNL     1      19.747   5.965  49.645  1.00  0.00     0.294 C 
HETATM    6  N2  UNL     1      18.762   5.040  49.839  1.00  0.00    -0.245 NA
HETATM    7  C6  UNL     1      18.795   4.077  50.935  1.00  0.00     0.218 C 
HETATM    8  C13 UNL     1      20.227   3.984  51.442  1.00  0.00     0.082 C 
HETATM    9  C14 UNL     1      20.679   2.951  51.945  1.00  0.00     0.138 C 
ENDROOT
BRANCH   9  10
HETATM   10  O2  UNL     1      21.447   2.149  52.491  1.00  0.00    -0.373 OA
BRANCH  10  11
HETATM   11  C15 UNL     1      21.822   1.016  53.175  1.00  0.00     0.170 C 
BRANCH  11  12
HETATM   12  C16 UNL     1      23.053   0.361  52.557  1.00  0.00     0.056 C 
BRANCH  12  13
HETATM   13  C17 UNL     1      24.178   0.142  53.511  1.00  0.00     0.274 C 
BRANCH  13  14
HETATM   14  N4  UNL     1      25.333   0.952  53.205  1.00  0.00     0.092 N 
HETATM   15  C18 UNL     1      26.198   1.072  54.384  1.00  0.00     0.298 C 
HETATM   16  C19 UNL     1      27.282   0.058  54.412  1.00  0.00     0.198 C 
HETATM   17  O3  UNL     1      26.719  -1.136  53.894  1.00  0.00    -0.388 OA
HETATM   18  C20 UNL     1      26.774  -0.918  52.487  1.00  0.00     0.198 C 
HETATM   19  C21 UNL     1      26.049   0.356  52.108  1.00  0.00     0.298 C 
ENDBRANCH  13  14
ENDBRANCH  12  13
ENDBRANCH  11  12
ENDBRANCH  10  11
ENDBRANCH   9  10
BRANCH   1  20
HETATM   20  O1  UNL     1      23.334   4.050  52.694  1.00  0.00    -0.378 OA
HETATM   21  C1  UNL     1      24.294   3.922  51.535  1.00  0.00     0.202 C 
ENDBRANCH   1  20
BRANCH   7  22
HETATM   22  N3  UNL     1      18.173   2.866  50.701  1.00  0.00    -0.356 N 
HETATM   23  C7  UNL     1      18.640   1.675  49.881  1.00  0.00     0.155 A 
HETATM   24  C8  UNL     1      17.606   0.592  50.332  1.00  0.00     0.037 A 
HETATM   25  C9  UNL     1      16.611   0.222  50.960  1.00  0.00     0.137 A 
HETATM   26  F1  UNL     1      16.480  -1.047  50.684  1.00  0.00    -0.204 F 
HETATM   27  C10 UNL     1      16.468   1.516  51.456  1.00  0.00     0.094 A 
HETATM   28 CL1  UNL     1      15.032   1.171  52.539  1.00  0.00    -0.079 Cl
HETATM   29  C11 UNL     1      16.870   2.815  51.565  1.00  0.00     0.030 A 
HETATM   30  C12 UNL     1      16.098   3.818  52.232  1.00  0.00     0.070 C 
ENDBRANCH   7  22
TORSDOF 7
ENDMDL
