MODEL 1
REMARK VINA RESULT:      -8.0      0.000      0.000
REMARK  6 active torsions:
REMARK  status: ('A' for Active; 'I' for Inactive)
REMARK    1  A    between atoms: C2_2  and  O1_3 
REMARK    2  A    between atoms: O1_3  and  C3_4 
REMARK    3  A    between atoms: C4_5  and  N1_6 
REMARK       I    between atoms: N1_6  and  C5_7 
REMARK    4  A    between atoms: C5_7  and  C6_9 
REMARK    5  A    between atoms: C7_10  and  C8_11 
REMARK    6  A    between atoms: C8_11  and  N2_12 
ROOT
HETATM    1  C3  UNL     1      24.595   4.104  48.920  1.00  0.00     0.222 C 
HETATM    2  C4  UNL     1      26.015   4.021  49.467  1.00  0.00     0.048 C 
HETATM    3  C11 UNL     1      26.407   3.360  50.579  1.00  0.00     0.042 C 
HETATM    4  C12 UNL     1      25.951   2.530  51.687  1.00  0.00    -0.004 A 
HETATM    5  C13 UNL     1      26.540   1.258  51.560  1.00  0.00     0.058 A 
HETATM    6  C14 UNL     1      26.398   0.120  52.374  1.00  0.00     0.139 A 
HETATM    7  F1  UNL     1      27.015  -1.038  52.147  1.00  0.00    -0.204 F 
HETATM    8  C15 UNL     1      25.547   0.365  53.425  1.00  0.00     0.074 A 
HETATM    9 CL1  UNL     1      25.327  -1.040  54.481  1.00  0.00    -0.081 Cl
HETATM   10  C16 UNL     1      24.930   1.583  53.619  1.00  0.00     0.057 A 
HETATM   11  C17 UNL     1      25.121   2.640  52.779  1.00  0.00     0.044 A 
HETATM   12  N3  UNL     1      24.275   3.685  53.321  1.00  0.00    -0.356 N 
HETATM   13  C18 UNL     1      23.557   3.866  52.126  1.00  0.00     0.050 C 
HETATM   14  C19 UNL     1      24.282   4.374  51.145  1.00  0.00     0.058 C 
HETATM   15  C20 UNL     1      23.683   3.607  50.009  1.00  0.00     0.067 C 
HETATM   16  N4  UNL     1      22.710   2.804  50.421  1.00  0.00    -0.265 NA
HETATM   17  C21 UNL     1      22.190   3.533  51.661  1.00  0.00     0.264 C 
HETATM   18  C22 UNL     1      21.495   4.718  51.215  1.00  0.00     0.093 C 
HETATM   19  N5  UNL     1      20.934   5.657  50.845  1.00  0.00    -0.195 NA
HETATM   20  H21 UNL     1      24.143   4.158  54.180  1.00  0.00     0.166 HD
ENDROOT
BRANCH   1  21
HETATM   21  O1  UNL     1      24.219   5.396  48.634  1.00  0.00    -0.374 OA
BRANCH  21  22
HETATM   22  C2  UNL     1      23.095   5.473  47.863  1.00  0.00     0.165 C 
HETATM   23  C1  UNL     1      22.509   6.828  47.654  1.00  0.00     0.033 C 
ENDBRANCH  21  22
ENDBRANCH   1  21
BRANCH   2  24
HETATM   24  N1  UNL     1      27.053   4.676  48.744  1.00  0.00    -0.324 N 
HETATM   25  C5  UNL     1      27.450   6.036  48.664  1.00  0.00     0.245 C 
HETATM   26  O2  UNL     1      26.834   6.912  49.319  1.00  0.00    -0.268 OA
HETATM   27  H7  UNL     1      27.577   3.950  48.190  1.00  0.00     0.169 HD
BRANCH  25  28
HETATM   28  C6  UNL     1      28.575   6.409  47.822  1.00  0.00     0.072 C 
HETATM   29  C7  UNL     1      29.834   6.076  48.044  1.00  0.00     0.008 C 
BRANCH  29  30
HETATM   30  C8  UNL     1      31.034   6.398  47.263  1.00  0.00     0.299 C 
BRANCH  30  31
HETATM   31  N2  UNL     1      32.258   5.820  47.801  1.00  0.00     0.083 N 
HETATM   32  C9  UNL     1      32.170   4.382  47.527  1.00  0.00     0.309 C 
HETATM   33  C10 UNL     1      32.304   5.949  49.250  1.00  0.00     0.309 C 
ENDBRANCH  30  31
ENDBRANCH  29  30
ENDBRANCH  25  28
ENDBRANCH   2  24
TORSDOF 6
ENDMDL
MODEL 2
REMARK VINA RESULT:      -8.0      2.417      2.931
REMARK  6 active torsions:
REMARK  status: ('A' for Active; 'I' for Inactive)
REMARK    1  A    between atoms: C2_2  and  O1_3 
REMARK    2  A    between atoms: O1_3  and  C3_4 
REMARK    3  A    between atoms: C4_5  and  N1_6 
REMARK       I    between atoms: N1_6  and  C5_7 
REMARK    4  A    between atoms: C5_7  and  C6_9 
REMARK    5  A    between atoms: C7_10  and  C8_11 
REMARK    6  A    between atoms: C8_11  and  N2_12 
ROOT
HETATM    1  C3  UNL     1      22.964   2.696  48.575  1.00  0.00     0.222 C 
HETATM    2  C4  UNL     1      23.887   3.189  49.684  1.00  0.00     0.048 C 
HETATM    3  C11 UNL     1      23.868   2.791  50.976  1.00  0.00     0.042 C 
HETATM    4  C12 UNL     1      23.208   1.917  51.938  1.00  0.00    -0.004 A 
HETATM    5  C13 UNL     1      24.139   0.957  52.376  1.00  0.00     0.058 A 
HETATM    6  C14 UNL     1      23.973  -0.099  53.290  1.00  0.00     0.139 A 
HETATM    7  F1  UNL     1      24.941  -0.950  53.626  1.00  0.00    -0.204 F 
HETATM    8  C15 UNL     1      22.690  -0.133  53.782  1.00  0.00     0.074 A 
HETATM    9 CL1  UNL     1      22.423  -1.452  54.933  1.00  0.00    -0.081 Cl
HETATM   10  C16 UNL     1      21.720   0.771  53.402  1.00  0.00     0.057 A 
HETATM   11  C17 UNL     1      21.964   1.770  52.506  1.00  0.00     0.044 A 
HETATM   12  N3  UNL     1      20.689   2.448  52.371  1.00  0.00    -0.356 N 
HETATM   13  C18 UNL     1      20.627   2.273  50.978  1.00  0.00     0.050 C 
HETATM   14  C19 UNL     1      21.544   2.959  50.317  1.00  0.00     0.058 C 
HETATM   15  C20 UNL     1      21.839   1.956  49.247  1.00  0.00     0.067 C 
HETATM   16  N4  UNL     1      21.085   0.871  49.373  1.00  0.00    -0.265 NA
HETATM   17  C21 UNL     1      19.835   1.422  50.060  1.00  0.00     0.264 C 
HETATM   18  C22 UNL     1      19.122   2.228  49.096  1.00  0.00     0.093 C 
HETATM   19  N5  UNL     1      18.557   2.862  48.314  1.00  0.00    -0.195 NA
HETATM   20  H21 UNL     1      20.020   2.886  52.954  1.00  0.00     0.166 HD
ENDROOT
BRANCH   1  21
HETATM   21  O1  UNL     1      22.403   3.731  47.864  1.00  0.00    -0.374 OA
BRANCH  21  22
HETATM   22  C2  UNL     1      21.882   3.341  46.664  1.00  0.00     0.165 C 
HETATM   23  C1  UNL     1      21.921   4.336  45.554  1.00  0.00     0.033 C 
ENDBRANCH  21  22
ENDBRANCH   1  21
BRANCH   2  24
HETATM   24  N1  UNL     1      24.890   4.143  49.350  1.00  0.00    -0.324 N 
HETATM   25  C5  UNL     1      26.302   4.045  49.241  1.00  0.00     0.245 C 
HETATM   26  O2  UNL     1      26.878   2.951  49.461  1.00  0.00    -0.268 OA
HETATM   27  H7  UNL     1      24.419   5.065  49.164  1.00  0.00     0.169 HD
BRANCH  25  28
HETATM   28  C6  UNL     1      27.077   5.219  48.872  1.00  0.00     0.072 C 
HETATM   29  C7  UNL     1      28.331   5.202  48.456  1.00  0.00     0.008 C 
BRANCH  29  30
HETATM   30  C8  UNL     1      29.197   6.319  48.062  1.00  0.00     0.299 C 
BRANCH  30  31
HETATM   31  N2  UNL     1      30.587   6.154  48.463  1.00  0.00     0.083 N 
HETATM   32  C9  UNL     1      31.258   7.404  48.088  1.00  0.00     0.309 C 
HETATM   33  C10 UNL     1      31.234   5.106  47.688  1.00  0.00     0.309 C 
ENDBRANCH  30  31
ENDBRANCH  29  30
ENDBRANCH  25  28
ENDBRANCH   2  24
TORSDOF 6
ENDMDL
MODEL 3
REMARK VINA RESULT:      -7.8      2.822      3.462
REMARK  6 active torsions:
REMARK  status: ('A' for Active; 'I' for Inactive)
REMARK    1  A    between atoms: C2_2  and  O1_3 
REMARK    2  A    between atoms: O1_3  and  C3_4 
REMARK    3  A    between atoms: C4_5  and  N1_6 
REMARK       I    between atoms: N1_6  and  C5_7 
REMARK    4  A    between atoms: C5_7  and  C6_9 
REMARK    5  A    between atoms: C7_10  and  C8_11 
REMARK    6  A    between atoms: C8_11  and  N2_12 
ROOT
HETATM    1  C3  UNL     1      23.049   2.680  48.585  1.00  0.00     0.222 C 
HETATM    2  C4  UNL     1      23.976   3.172  49.691  1.00  0.00     0.048 C 
HETATM    3  C11 UNL     1      23.955   2.780  50.985  1.00  0.00     0.042 C 
HETATM    4  C12 UNL     1      23.291   1.914  51.951  1.00  0.00    -0.004 A 
HETATM    5  C13 UNL     1      24.217   0.950  52.393  1.00  0.00     0.058 A 
HETATM    6  C14 UNL     1      24.046  -0.101  53.310  1.00  0.00     0.139 A 
HETATM    7  F1  UNL     1      25.009  -0.956  53.650  1.00  0.00    -0.204 F 
HETATM    8  C15 UNL     1      22.764  -0.126  53.804  1.00  0.00     0.074 A 
HETATM    9 CL1  UNL     1      22.490  -1.439  54.961  1.00  0.00    -0.081 Cl
HETATM   10  C16 UNL     1      21.799   0.782  53.421  1.00  0.00     0.057 A 
HETATM   11  C17 UNL     1      22.047   1.776  52.521  1.00  0.00     0.044 A 
HETATM   12  N3  UNL     1      20.776   2.460  52.384  1.00  0.00    -0.356 N 
HETATM   13  C18 UNL     1      20.712   2.280  50.991  1.00  0.00     0.050 C 
HETATM   14  C19 UNL     1      21.632   2.958  50.327  1.00  0.00     0.058 C 
HETATM   15  C20 UNL     1      21.921   1.949  49.261  1.00  0.00     0.067 C 
HETATM   16  N4  UNL     1      21.161   0.869  49.392  1.00  0.00    -0.265 NA
HETATM   17  C21 UNL     1      19.915   1.429  50.078  1.00  0.00     0.264 C 
HETATM   18  C22 UNL     1      19.205   2.235  49.111  1.00  0.00     0.093 C 
HETATM   19  N5  UNL     1      18.643   2.869  48.326  1.00  0.00    -0.195 NA
HETATM   20  H21 UNL     1      20.110   2.904  52.965  1.00  0.00     0.166 HD
ENDROOT
BRANCH   1  21
HETATM   21  O1  UNL     1      22.493   3.715  47.870  1.00  0.00    -0.374 OA
BRANCH  21  22
HETATM   22  C2  UNL     1      22.008   3.331  46.653  1.00  0.00     0.165 C 
HETATM   23  C1  UNL     1      21.013   4.233  46.006  1.00  0.00     0.033 C 
ENDBRANCH  21  22
ENDBRANCH   1  21
BRANCH   2  24
HETATM   24  N1  UNL     1      24.984   4.119  49.352  1.00  0.00    -0.324 N 
HETATM   25  C5  UNL     1      26.398   4.023  49.280  1.00  0.00     0.245 C 
HETATM   26  O2  UNL     1      26.972   2.939  49.547  1.00  0.00    -0.268 OA
HETATM   27  H7  UNL     1      24.515   5.033  49.127  1.00  0.00     0.169 HD
BRANCH  25  28
HETATM   28  C6  UNL     1      27.179   5.188  48.894  1.00  0.00     0.072 C 
HETATM   29  C7  UNL     1      26.683   6.384  48.634  1.00  0.00     0.008 C 
BRANCH  29  30
HETATM   30  C8  UNL     1      27.377   7.615  48.240  1.00  0.00     0.299 C 
BRANCH  30  31
HETATM   31  N2  UNL     1      27.872   8.397  49.364  1.00  0.00     0.083 N 
HETATM   32  C9  UNL     1      26.680   8.924  50.035  1.00  0.00     0.309 C 
HETATM   33  C10 UNL     1      28.618   9.559  48.904  1.00  0.00     0.309 C 
ENDBRANCH  30  31
ENDBRANCH  29  30
ENDBRANCH  25  28
ENDBRANCH   2  24
TORSDOF 6
ENDMDL
MODEL 4
REMARK VINA RESULT:      -7.7      4.337      8.654
REMARK  6 active torsions:
REMARK  status: ('A' for Active; 'I' for Inactive)
REMARK    1  A    between atoms: C2_2  and  O1_3 
REMARK    2  A    between atoms: O1_3  and  C3_4 
REMARK    3  A    between atoms: C4_5  and  N1_6 
REMARK       I    between atoms: N1_6  and  C5_7 
REMARK    4  A    between atoms: C5_7  and  C6_9 
REMARK    5  A    between atoms: C7_10  and  C8_11 
REMARK    6  A    between atoms: C8_11  and  N2_12 
ROOT
HETATM    1  C3  UNL     1      21.610   2.907  52.280  1.00  0.00     0.222 C 
HETATM    2  C4  UNL     1      22.067   1.453  52.327  1.00  0.00     0.048 C 
HETATM    3  C11 UNL     1      23.347   1.017  52.346  1.00  0.00     0.042 C 
HETATM    4  C12 UNL     1      24.743   1.437  52.342  1.00  0.00    -0.004 A 
HETATM    5  C13 UNL     1      25.323   1.059  53.567  1.00  0.00     0.058 A 
HETATM    6  C14 UNL     1      26.635   1.254  54.034  1.00  0.00     0.139 A 
HETATM    7  F1  UNL     1      27.068   0.846  55.225  1.00  0.00    -0.204 F 
HETATM    8  C15 UNL     1      27.400   1.914  53.103  1.00  0.00     0.074 A 
HETATM    9 CL1  UNL     1      29.064   2.193  53.643  1.00  0.00    -0.081 Cl
HETATM   10  C16 UNL     1      26.906   2.318  51.880  1.00  0.00     0.057 A 
HETATM   11  C17 UNL     1      25.616   2.091  51.503  1.00  0.00     0.044 A 
HETATM   12  N3  UNL     1      25.514   2.698  50.190  1.00  0.00    -0.356 N 
HETATM   13  C18 UNL     1      24.442   3.534  50.547  1.00  0.00     0.050 C 
HETATM   14  C19 UNL     1      23.322   2.880  50.799  1.00  0.00     0.058 C 
HETATM   15  C20 UNL     1      22.820   3.728  51.925  1.00  0.00     0.067 C 
HETATM   16  N4  UNL     1      23.639   4.743  52.173  1.00  0.00    -0.265 NA
HETATM   17  C21 UNL     1      24.282   4.984  50.807  1.00  0.00     0.264 C 
HETATM   18  C22 UNL     1      23.276   5.554  49.941  1.00  0.00     0.093 C 
HETATM   19  N5  UNL     1      22.465   6.019  49.262  1.00  0.00    -0.195 NA
HETATM   20  H21 UNL     1      25.971   2.645  49.315  1.00  0.00     0.166 HD
ENDROOT
BRANCH   1  21
HETATM   21  O1  UNL     1      20.669   3.127  51.302  1.00  0.00    -0.374 OA
BRANCH  21  22
HETATM   22  C2  UNL     1      19.468   3.552  51.794  1.00  0.00     0.165 C 
HETATM   23  C1  UNL     1      18.299   2.647  51.598  1.00  0.00     0.033 C 
ENDBRANCH  21  22
ENDBRANCH   1  21
BRANCH   2  24
HETATM   24  N1  UNL     1      21.071   0.437  52.381  1.00  0.00    -0.324 N 
HETATM   25  C5  UNL     1      20.315  -0.103  53.454  1.00  0.00     0.245 C 
HETATM   26  O2  UNL     1      20.480   0.327  54.621  1.00  0.00    -0.268 OA
HETATM   27  H7  UNL     1      20.924   0.067  51.407  1.00  0.00     0.169 HD
BRANCH  25  28
HETATM   28  C6  UNL     1      19.349  -1.158  53.193  1.00  0.00     0.072 C 
HETATM   29  C7  UNL     1      18.038  -0.997  53.163  1.00  0.00     0.008 C 
BRANCH  29  30
HETATM   30  C8  UNL     1      16.983  -1.986  52.911  1.00  0.00     0.299 C 
BRANCH  30  31
HETATM   31  N2  UNL     1      15.883  -1.480  52.103  1.00  0.00     0.083 N 
HETATM   32  C9  UNL     1      15.517  -0.190  52.697  1.00  0.00     0.309 C 
HETATM   33  C10 UNL     1      14.707  -2.328  52.232  1.00  0.00     0.309 C 
ENDBRANCH  30  31
ENDBRANCH  29  30
ENDBRANCH  25  28
ENDBRANCH   2  24
TORSDOF 6
ENDMDL
MODEL 5
REMARK VINA RESULT:      -7.5      4.639      9.220
REMARK  6 active torsions:
REMARK  status: ('A' for Active; 'I' for Inactive)
REMARK    1  A    between atoms: C2_2  and  O1_3 
REMARK    2  A    between atoms: O1_3  and  C3_4 
REMARK    3  A    between atoms: C4_5  and  N1_6 
REMARK       I    between atoms: N1_6  and  C5_7 
REMARK    4  A    between atoms: C5_7  and  C6_9 
REMARK    5  A    between atoms: C7_10  and  C8_11 
REMARK    6  A    between atoms: C8_11  and  N2_12 
ROOT
HETATM    1  C3  UNL     1      30.236   5.999  47.725  1.00  0.00     0.222 C 
HETATM    2  C4  UNL     1      28.935   6.214  48.491  1.00  0.00     0.048 C 
HETATM    3  C11 UNL     1      28.368   7.405  48.784  1.00  0.00     0.042 C 
HETATM    4  C12 UNL     1      28.505   8.850  48.646  1.00  0.00    -0.004 A 
HETATM    5  C13 UNL     1      27.444   9.321  47.851  1.00  0.00     0.058 A 
HETATM    6  C14 UNL     1      27.153  10.632  47.431  1.00  0.00     0.139 A 
HETATM    7  F1  UNL     1      26.108  10.955  46.672  1.00  0.00    -0.204 F 
HETATM    8  C15 UNL     1      28.084  11.523  47.908  1.00  0.00     0.074 A 
HETATM    9 CL1  UNL     1      27.770  13.192  47.403  1.00  0.00    -0.081 Cl
HETATM   10  C16 UNL     1      29.152  11.141  48.693  1.00  0.00     0.057 A 
HETATM   11  C17 UNL     1      29.364   9.844  49.056  1.00  0.00     0.044 A 
HETATM   12  N3  UNL     1      30.588   9.884  49.830  1.00  0.00    -0.356 N 
HETATM   13  C18 UNL     1      31.254   8.950  49.018  1.00  0.00     0.050 C 
HETATM   14  C19 UNL     1      30.748   7.731  49.089  1.00  0.00     0.058 C 
HETATM   15  C20 UNL     1      30.922   7.336  47.657  1.00  0.00     0.067 C 
HETATM   16  N4  UNL     1      31.506   8.299  46.953  1.00  0.00    -0.265 NA
HETATM   17  C21 UNL     1      32.341   9.016  48.014  1.00  0.00     0.264 C 
HETATM   18  C22 UNL     1      33.434   8.144  48.378  1.00  0.00     0.093 C 
HETATM   19  N5  UNL     1      34.308   7.442  48.654  1.00  0.00    -0.195 NA
HETATM   20  H21 UNL     1      30.945  10.355  50.624  1.00  0.00     0.166 HD
ENDROOT
BRANCH   1  21
HETATM   21  O1  UNL     1      31.089   5.138  48.375  1.00  0.00    -0.374 OA
BRANCH  21  22
HETATM   22  C2  UNL     1      32.118   4.702  47.591  1.00  0.00     0.165 C 
HETATM   23  C1  UNL     1      31.848   3.530  46.710  1.00  0.00     0.033 C 
ENDBRANCH  21  22
ENDBRANCH   1  21
BRANCH   2  24
HETATM   24  N1  UNL     1      28.216   5.066  48.930  1.00  0.00    -0.324 N 
HETATM   25  C5  UNL     1      26.828   4.782  49.010  1.00  0.00     0.245 C 
HETATM   26  O2  UNL     1      25.986   5.640  48.649  1.00  0.00    -0.268 OA
HETATM   27  H7  UNL     1      28.912   4.339  49.237  1.00  0.00     0.169 HD
BRANCH  25  28
HETATM   28  C6  UNL     1      26.386   3.490  49.512  1.00  0.00     0.072 C 
HETATM   29  C7  UNL     1      26.567   3.051  50.745  1.00  0.00     0.008 C 
BRANCH  29  30
HETATM   30  C8  UNL     1      26.164   1.776  51.348  1.00  0.00     0.299 C 
BRANCH  30  31
HETATM   31  N2  UNL     1      26.479   1.670  52.766  1.00  0.00     0.083 N 
HETATM   32  C9  UNL     1      27.837   2.206  52.910  1.00  0.00     0.309 C 
HETATM   33  C10 UNL     1      26.553   0.277  53.182  1.00  0.00     0.309 C 
ENDBRANCH  30  31
ENDBRANCH  29  30
ENDBRANCH  25  28
ENDBRANCH   2  24
TORSDOF 6
ENDMDL
MODEL 6
REMARK VINA RESULT:      -7.5      5.084      7.158
REMARK  6 active torsions:
REMARK  status: ('A' for Active; 'I' for Inactive)
REMARK    1  A    between atoms: C2_2  and  O1_3 
REMARK    2  A    between atoms: O1_3  and  C3_4 
REMARK    3  A    between atoms: C4_5  and  N1_6 
REMARK       I    between atoms: N1_6  and  C5_7 
REMARK    4  A    between atoms: C5_7  and  C6_9 
REMARK    5  A    between atoms: C7_10  and  C8_11 
REMARK    6  A    between atoms: C8_11  and  N2_12 
ROOT
HETATM    1  C3  UNL     1      21.296   1.945  52.125  1.00  0.00     0.222 C 
HETATM    2  C4  UNL     1      22.529   1.681  51.269  1.00  0.00     0.048 C 
HETATM    3  C11 UNL     1      22.765   2.173  50.032  1.00  0.00     0.042 C 
HETATM    4  C12 UNL     1      22.230   3.017  48.970  1.00  0.00    -0.004 A 
HETATM    5  C13 UNL     1      23.075   4.133  48.824  1.00  0.00     0.058 A 
HETATM    6  C14 UNL     1      22.972   5.224  47.943  1.00  0.00     0.139 A 
HETATM    7  F1  UNL     1      23.844   6.229  47.899  1.00  0.00    -0.204 F 
HETATM    8  C15 UNL     1      21.861   5.112  47.142  1.00  0.00     0.074 A 
HETATM    9 CL1  UNL     1      21.678   6.467  46.015  1.00  0.00    -0.081 Cl
HETATM   10  C16 UNL     1      20.984   4.050  47.224  1.00  0.00     0.057 A 
HETATM   11  C17 UNL     1      21.156   3.028  48.110  1.00  0.00     0.044 A 
HETATM   12  N3  UNL     1      20.013   2.165  47.888  1.00  0.00    -0.356 N 
HETATM   13  C18 UNL     1      19.584   2.218  49.225  1.00  0.00     0.050 C 
HETATM   14  C19 UNL     1      20.407   1.621  50.069  1.00  0.00     0.058 C 
HETATM   15  C20 UNL     1      20.267   2.566  51.220  1.00  0.00     0.067 C 
HETATM   16  N4  UNL     1      19.404   3.538  50.950  1.00  0.00    -0.265 NA
HETATM   17  C21 UNL     1      18.465   2.870  49.945  1.00  0.00     0.264 C 
HETATM   18  C22 UNL     1      17.675   1.895  50.661  1.00  0.00     0.093 C 
HETATM   19  N5  UNL     1      17.044   1.126  51.248  1.00  0.00    -0.195 NA
HETATM   20  H21 UNL     1      19.586   1.684  47.137  1.00  0.00     0.166 HD
ENDROOT
BRANCH   1  21
HETATM   21  O1  UNL     1      20.749   0.787  52.626  1.00  0.00    -0.374 OA
BRANCH  21  22
HETATM   22  C2  UNL     1      20.722   0.749  53.991  1.00  0.00     0.165 C 
HETATM   23  C1  UNL     1      21.475  -0.355  54.652  1.00  0.00     0.033 C 
ENDBRANCH  21  22
ENDBRANCH   1  21
BRANCH   2  24
HETATM   24  N1  UNL     1      23.558   0.857  51.808  1.00  0.00    -0.324 N 
HETATM   25  C5  UNL     1      24.554   1.095  52.791  1.00  0.00     0.245 C 
HETATM   26  O2  UNL     1      24.629   2.214  53.356  1.00  0.00    -0.268 OA
HETATM   27  H7  UNL     1      23.506  -0.084  51.342  1.00  0.00     0.169 HD
BRANCH  25  28
HETATM   28  C6  UNL     1      25.486   0.036  53.142  1.00  0.00     0.072 C 
HETATM   29  C7  UNL     1      26.772   0.023  52.839  1.00  0.00     0.008 C 
BRANCH  29  30
HETATM   30  C8  UNL     1      27.790  -0.989  53.142  1.00  0.00     0.299 C 
BRANCH  30  31
HETATM   31  N2  UNL     1      28.836  -0.520  54.041  1.00  0.00     0.083 N 
HETATM   32  C9  UNL     1      28.989   0.911  53.757  1.00  0.00     0.309 C 
HETATM   33  C10 UNL     1      30.116  -1.130  53.716  1.00  0.00     0.309 C 
ENDBRANCH  30  31
ENDBRANCH  29  30
ENDBRANCH  25  28
ENDBRANCH   2  24
TORSDOF 6
ENDMDL
MODEL 7
REMARK VINA RESULT:      -7.4      3.988      8.007
REMARK  6 active torsions:
REMARK  status: ('A' for Active; 'I' for Inactive)
REMARK    1  A    between atoms: C2_2  and  O1_3 
REMARK    2  A    between atoms: O1_3  and  C3_4 
REMARK    3  A    between atoms: C4_5  and  N1_6 
REMARK       I    between atoms: N1_6  and  C5_7 
REMARK    4  A    between atoms: C5_7  and  C6_9 
REMARK    5  A    between atoms: C7_10  and  C8_11 
REMARK    6  A    between atoms: C8_11  and  N2_12 
ROOT
HETATM    1  C3  UNL     1      26.300   7.524  49.791  1.00  0.00     0.222 C 
HETATM    2  C4  UNL     1      26.515   6.261  48.965  1.00  0.00     0.048 C 
HETATM    3  C11 UNL     1      27.597   5.977  48.205  1.00  0.00     0.042 C 
HETATM    4  C12 UNL     1      28.896   6.467  47.760  1.00  0.00    -0.004 A 
HETATM    5  C13 UNL     1      29.890   5.612  48.271  1.00  0.00     0.058 A 
HETATM    6  C14 UNL     1      31.287   5.676  48.125  1.00  0.00     0.139 A 
HETATM    7  F1  UNL     1      32.132   4.798  48.662  1.00  0.00    -0.204 F 
HETATM    8  C15 UNL     1      31.657   6.757  47.361  1.00  0.00     0.074 A 
HETATM    9 CL1  UNL     1      33.411   6.891  47.151  1.00  0.00    -0.081 Cl
HETATM   10  C16 UNL     1      30.744   7.641  46.826  1.00  0.00     0.057 A 
HETATM   11  C17 UNL     1      29.400   7.507  47.015  1.00  0.00     0.044 A 
HETATM   12  N3  UNL     1      28.826   8.646  46.326  1.00  0.00    -0.356 N 
HETATM   13  C18 UNL     1      28.152   9.125  47.462  1.00  0.00     0.050 C 
HETATM   14  C19 UNL     1      27.171   8.336  47.866  1.00  0.00     0.058 C 
HETATM   15  C20 UNL     1      27.340   8.515  49.342  1.00  0.00     0.067 C 
HETATM   16  N4  UNL     1      28.323   9.362  49.622  1.00  0.00    -0.265 NA
HETATM   17  C21 UNL     1      28.333  10.266  48.388  1.00  0.00     0.264 C 
HETATM   18  C22 UNL     1      27.146  11.087  48.434  1.00  0.00     0.093 C 
HETATM   19  N5  UNL     1      26.197  11.744  48.487  1.00  0.00    -0.195 NA
HETATM   20  H21 UNL     1      28.843   9.047  45.421  1.00  0.00     0.166 HD
ENDROOT
BRANCH   1  21
HETATM   21  O1  UNL     1      25.070   8.095  49.563  1.00  0.00    -0.374 OA
BRANCH  21  22
HETATM   22  C2  UNL     1      24.246   8.054  50.651  1.00  0.00     0.165 C 
HETATM   23  C1  UNL     1      22.840   7.616  50.419  1.00  0.00     0.033 C 
ENDBRANCH  21  22
ENDBRANCH   1  21
BRANCH   2  24
HETATM   24  N1  UNL     1      25.506   5.257  48.997  1.00  0.00    -0.324 N 
HETATM   25  C5  UNL     1      25.425   4.006  49.663  1.00  0.00     0.245 C 
HETATM   26  O2  UNL     1      26.372   3.614  50.388  1.00  0.00    -0.268 OA
HETATM   27  H7  UNL     1      24.706   5.574  48.391  1.00  0.00     0.169 HD
BRANCH  25  28
HETATM   28  C6  UNL     1      24.239   3.181  49.501  1.00  0.00     0.072 C 
HETATM   29  C7  UNL     1      23.551   2.635  50.488  1.00  0.00     0.008 C 
BRANCH  29  30
HETATM   30  C8  UNL     1      22.351   1.793  50.434  1.00  0.00     0.299 C 
BRANCH  30  31
HETATM   31  N2  UNL     1      21.892   1.339  51.739  1.00  0.00     0.083 N 
HETATM   32  C9  UNL     1      23.094   0.883  52.445  1.00  0.00     0.309 C 
HETATM   33  C10 UNL     1      21.035   0.169  51.613  1.00  0.00     0.309 C 
ENDBRANCH  30  31
ENDBRANCH  29  30
ENDBRANCH  25  28
ENDBRANCH   2  24
TORSDOF 6
ENDMDL
MODEL 8
REMARK VINA RESULT:      -7.4      1.861      2.271
REMARK  6 active torsions:
REMARK  status: ('A' for Active; 'I' for Inactive)
REMARK    1  A    between atoms: C2_2  and  O1_3 
REMARK    2  A    between atoms: O1_3  and  C3_4 
REMARK    3  A    between atoms: C4_5  and  N1_6 
REMARK       I    between atoms: N1_6  and  C5_7 
REMARK    4  A    between atoms: C5_7  and  C6_9 
REMARK    5  A    between atoms: C7_10  and  C8_11 
REMARK    6  A    between atoms: C8_11  and  N2_12 
ROOT
HETATM    1  C3  UNL     1      24.016   4.731  48.611  1.00  0.00     0.222 C 
HETATM    2  C4  UNL     1      25.357   4.834  49.330  1.00  0.00     0.048 C 
HETATM    3  C11 UNL     1      25.732   4.136  50.425  1.00  0.00     0.042 C 
HETATM    4  C12 UNL     1      25.310   3.130  51.393  1.00  0.00    -0.004 A 
HETATM    5  C13 UNL     1      26.129   1.997  51.239  1.00  0.00     0.058 A 
HETATM    6  C14 UNL     1      26.104   0.773  51.932  1.00  0.00     0.139 A 
HETATM    7  F1  UNL     1      26.941  -0.234  51.693  1.00  0.00    -0.204 F 
HETATM    8  C15 UNL     1      25.109   0.760  52.879  1.00  0.00     0.074 A 
HETATM    9 CL1  UNL     1      25.026  -0.763  53.779  1.00  0.00    -0.081 Cl
HETATM   10  C16 UNL     1      24.264   1.830  53.091  1.00  0.00     0.057 A 
HETATM   11  C17 UNL     1      24.355   2.985  52.372  1.00  0.00     0.044 A 
HETATM   12  N3  UNL     1      23.278   3.811  52.883  1.00  0.00    -0.356 N 
HETATM   13  C18 UNL     1      22.680   3.990  51.624  1.00  0.00     0.050 C 
HETATM   14  C19 UNL     1      23.408   4.712  50.790  1.00  0.00     0.058 C 
HETATM   15  C20 UNL     1      23.092   3.977  49.527  1.00  0.00     0.067 C 
HETATM   16  N4  UNL     1      22.239   2.983  49.742  1.00  0.00    -0.265 NA
HETATM   17  C21 UNL     1      21.458   3.481  50.959  1.00  0.00     0.264 C 
HETATM   18  C22 UNL     1      20.616   4.571  50.525  1.00  0.00     0.093 C 
HETATM   19  N5  UNL     1      19.940   5.435  50.163  1.00  0.00    -0.195 NA
HETATM   20  H21 UNL     1      22.966   4.162  53.754  1.00  0.00     0.166 HD
ENDROOT
BRANCH   1  21
HETATM   21  O1  UNL     1      23.449   5.964  48.385  1.00  0.00    -0.374 OA
BRANCH  21  22
HETATM   22  C2  UNL     1      22.457   5.938  47.447  1.00  0.00     0.165 C 
HETATM   23  C1  UNL     1      22.717   6.660  46.169  1.00  0.00     0.033 C 
ENDBRANCH  21  22
ENDBRANCH   1  21
BRANCH   2  24
HETATM   24  N1  UNL     1      26.335   5.725  48.804  1.00  0.00    -0.324 N 
HETATM   25  C5  UNL     1      27.690   5.540  48.426  1.00  0.00     0.245 C 
HETATM   26  O2  UNL     1      28.227   4.410  48.535  1.00  0.00    -0.268 OA
HETATM   27  H7  UNL     1      25.896   6.677  48.709  1.00  0.00     0.169 HD
BRANCH  25  28
HETATM   28  C6  UNL     1      28.453   6.665  47.909  1.00  0.00     0.072 C 
HETATM   29  C7  UNL     1      28.049   7.923  47.911  1.00  0.00     0.008 C 
BRANCH  29  30
HETATM   30  C8  UNL     1      28.735   9.123  47.419  1.00  0.00     0.299 C 
BRANCH  30  31
HETATM   31  N2  UNL     1      28.783  10.210  48.385  1.00  0.00     0.083 N 
HETATM   32  C9  UNL     1      30.092  10.103  49.038  1.00  0.00     0.309 C 
HETATM   33  C10 UNL     1      27.795  10.019  49.437  1.00  0.00     0.309 C 
ENDBRANCH  30  31
ENDBRANCH  29  30
ENDBRANCH  25  28
ENDBRANCH   2  24
TORSDOF 6
ENDMDL
MODEL 9
REMARK VINA RESULT:      -7.1      3.648      6.207
REMARK  6 active torsions:
REMARK  status: ('A' for Active; 'I' for Inactive)
REMARK    1  A    between atoms: C2_2  and  O1_3 
REMARK    2  A    between atoms: O1_3  and  C3_4 
REMARK    3  A    between atoms: C4_5  and  N1_6 
REMARK       I    between atoms: N1_6  and  C5_7 
REMARK    4  A    between atoms: C5_7  and  C6_9 
REMARK    5  A    between atoms: C7_10  and  C8_11 
REMARK    6  A    between atoms: C8_11  and  N2_12 
ROOT
HETATM    1  C3  UNL     1      25.092   4.463  49.152  1.00  0.00     0.222 C 
HETATM    2  C4  UNL     1      24.487   3.346  49.995  1.00  0.00     0.048 C 
HETATM    3  C11 UNL     1      23.196   3.246  50.383  1.00  0.00     0.042 C 
HETATM    4  C12 UNL     1      21.885   3.882  50.317  1.00  0.00    -0.004 A 
HETATM    5  C13 UNL     1      21.017   3.033  49.606  1.00  0.00     0.058 A 
HETATM    6  C14 UNL     1      19.662   3.212  49.274  1.00  0.00     0.139 A 
HETATM    7  F1  UNL     1      18.941   2.327  48.590  1.00  0.00    -0.204 F 
HETATM    8  C15 UNL     1      19.190   4.412  49.749  1.00  0.00     0.074 A 
HETATM    9 CL1  UNL     1      17.487   4.694  49.353  1.00  0.00    -0.081 Cl
HETATM   10  C16 UNL     1      19.977   5.299  50.454  1.00  0.00     0.057 A 
HETATM   11  C17 UNL     1      21.288   5.049  50.734  1.00  0.00     0.044 A 
HETATM   12  N3  UNL     1      21.735   6.231  51.443  1.00  0.00    -0.356 N 
HETATM   13  C18 UNL     1      22.784   6.498  50.547  1.00  0.00     0.050 C 
HETATM   14  C19 UNL     1      23.749   5.596  50.579  1.00  0.00     0.058 C 
HETATM   15  C20 UNL     1      24.079   5.576  49.120  1.00  0.00     0.067 C 
HETATM   16  N4  UNL     1      23.336   6.441  48.440  1.00  0.00    -0.265 NA
HETATM   17  C21 UNL     1      23.033   7.507  49.492  1.00  0.00     0.264 C 
HETATM   18  C22 UNL     1      24.257   8.231  49.750  1.00  0.00     0.093 C 
HETATM   19  N5  UNL     1      25.239   8.808  49.940  1.00  0.00    -0.195 NA
HETATM   20  H21 UNL     1      21.475   6.755  52.241  1.00  0.00     0.166 HD
ENDROOT
BRANCH   1  21
HETATM   21  O1  UNL     1      26.240   4.975  49.708  1.00  0.00    -0.374 OA
BRANCH  21  22
HETATM   22  C2  UNL     1      27.288   5.025  48.833  1.00  0.00     0.165 C 
HETATM   23  C1  UNL     1      27.685   6.371  48.329  1.00  0.00     0.033 C 
ENDBRANCH  21  22
ENDBRANCH   1  21
BRANCH   2  24
HETATM   24  N1  UNL     1      25.337   2.281  50.409  1.00  0.00    -0.324 N 
HETATM   25  C5  UNL     1      25.828   1.891  51.682  1.00  0.00     0.245 C 
HETATM   26  O2  UNL     1      25.511   2.544  52.708  1.00  0.00    -0.268 OA
HETATM   27  H7  UNL     1      25.610   1.727  49.557  1.00  0.00     0.169 HD
BRANCH  25  28
HETATM   28  C6  UNL     1      26.698   0.732  51.793  1.00  0.00     0.072 C 
HETATM   29  C7  UNL     1      27.052   0.152  52.926  1.00  0.00     0.008 C 
BRANCH  29  30
HETATM   30  C8  UNL     1      27.917  -1.012  53.147  1.00  0.00     0.299 C 
BRANCH  30  31
HETATM   31  N2  UNL     1      28.983  -0.779  54.111  1.00  0.00     0.083 N 
HETATM   32  C9  UNL     1      28.549   0.372  54.910  1.00  0.00     0.309 C 
HETATM   33  C10 UNL     1      30.208  -0.363  53.445  1.00  0.00     0.309 C 
ENDBRANCH  30  31
ENDBRANCH  29  30
ENDBRANCH  25  28
ENDBRANCH   2  24
TORSDOF 6
ENDMDL
