MODEL 1
REMARK VINA RESULT:      -7.8      0.000      0.000
REMARK  5 active torsions:
REMARK  status: ('A' for Active; 'I' for Inactive)
REMARK    1  A    between atoms: C1_2  and  C2_3 
REMARK    2  A    between atoms: C2_3  and  N1_4 
REMARK    3  A    between atoms: N1_4  and  C3_5 
REMARK    4  A    between atoms: C4_6  and  C5_7 
REMARK    5  A    between atoms: C8_10  and  C9_11 
ROOT
HETATM    1  C5  UNL     1      22.717  -0.888  54.473  1.00  0.00     0.029 C 
HETATM    2  C6  UNL     1      23.566  -0.087  53.845  1.00  0.00     0.039 C 
HETATM    3  C7  UNL     1      24.968  -0.491  53.917  1.00  0.00     0.118 C 
HETATM    4  C8  UNL     1      25.843   0.072  52.871  1.00  0.00     0.046 C 
HETATM    5  N2  UNL     1      25.824   0.893  51.903  1.00  0.00    -0.288 NA
HETATM    6  C15 UNL     1      24.748   1.690  51.418  1.00  0.00     0.195 C 
HETATM    7  C16 UNL     1      23.533   1.696  52.232  1.00  0.00     0.111 C 
HETATM    8  N3  UNL     1      22.996   1.034  53.202  1.00  0.00    -0.268 NA
ENDROOT
BRANCH   1   9
HETATM    9  C4  UNL     1      21.291  -0.583  54.468  1.00  0.00     0.019 C 
HETATM   10  C3  UNL     1      20.361  -1.352  53.944  1.00  0.00     0.083 C 
BRANCH  10  11
HETATM   11  N1  UNL     1      18.965  -1.132  53.897  1.00  0.00    -0.393 N 
HETATM   12  H4  UNL     1      18.637  -0.163  54.112  1.00  0.00     0.159 HD
BRANCH  11  13
HETATM   13  C2  UNL     1      18.093  -2.242  53.557  1.00  0.00     0.188 C 
BRANCH  13  14
HETATM   14  C1  UNL     1      16.847  -1.775  52.924  1.00  0.00     0.250 C 
HETATM   15  O1  UNL     1      16.587  -0.590  53.146  1.00  0.00    -0.305 OA
ENDBRANCH  13  14
ENDBRANCH  11  13
ENDBRANCH  10  11
ENDBRANCH   1   9
BRANCH   4  16
HETATM   16  C9  UNL     1      27.175  -0.550  53.040  1.00  0.00     0.010 A 
HETATM   17  C10 UNL     1      27.496  -1.872  52.819  1.00  0.00     0.015 A 
HETATM   18  C11 UNL     1      28.795  -2.287  53.025  1.00  0.00     0.001 A 
HETATM   19  C12 UNL     1      29.758  -1.378  53.449  1.00  0.00     0.002 A 
HETATM   20  C13 UNL     1      29.483  -0.057  53.681  1.00  0.00     0.025 A 
HETATM   21  C14 UNL     1      28.162   0.347  53.467  1.00  0.00     0.046 A 
HETATM   22 CL1  UNL     1      27.818   2.050  53.767  1.00  0.00    -0.083 Cl
ENDBRANCH   4  16
TORSDOF 5
ENDMDL
MODEL 2
REMARK VINA RESULT:      -7.7      5.051      7.601
REMARK  5 active torsions:
REMARK  status: ('A' for Active; 'I' for Inactive)
REMARK    1  A    between atoms: C1_2  and  C2_3 
REMARK    2  A    between atoms: C2_3  and  N1_4 
REMARK    3  A    between atoms: N1_4  and  C3_5 
REMARK    4  A    between atoms: C4_6  and  C5_7 
REMARK    5  A    between atoms: C8_10  and  C9_11 
ROOT
HETATM    1  C5  UNL     1      26.734   4.030  49.523  1.00  0.00     0.029 C 
HETATM    2  C6  UNL     1      26.041   3.377  50.446  1.00  0.00     0.039 C 
HETATM    3  C7  UNL     1      26.663   2.150  50.935  1.00  0.00     0.118 C 
HETATM    4  C8  UNL     1      26.185   1.679  52.249  1.00  0.00     0.046 C 
HETATM    5  N2  UNL     1      25.316   1.942  53.138  1.00  0.00    -0.288 NA
HETATM    6  C15 UNL     1      24.335   2.973  53.161  1.00  0.00     0.195 C 
HETATM    7  C16 UNL     1      24.184   3.748  51.929  1.00  0.00     0.111 C 
HETATM    8  N3  UNL     1      24.809   3.960  50.819  1.00  0.00    -0.268 NA
ENDROOT
BRANCH   1   9
HETATM    9  C4  UNL     1      26.209   5.269  48.961  1.00  0.00     0.019 C 
HETATM   10  C3  UNL     1      26.947   6.266  48.523  1.00  0.00     0.083 C 
BRANCH  10  11
HETATM   11  N1  UNL     1      26.522   7.495  47.968  1.00  0.00    -0.393 N 
HETATM   12  H4  UNL     1      25.829   7.439  47.187  1.00  0.00     0.159 HD
BRANCH  11  13
HETATM   13  C2  UNL     1      27.061   8.730  48.507  1.00  0.00     0.188 C 
BRANCH  13  14
HETATM   14  C1  UNL     1      26.876   8.808  49.967  1.00  0.00     0.250 C 
HETATM   15  O1  UNL     1      26.938   9.954  50.417  1.00  0.00    -0.305 OA
ENDBRANCH  13  14
ENDBRANCH  11  13
ENDBRANCH  10  11
ENDBRANCH   1   9
BRANCH   4  16
HETATM   16  C9  UNL     1      27.017   0.513  52.621  1.00  0.00     0.010 A 
HETATM   17  C10 UNL     1      26.735  -0.811  52.360  1.00  0.00     0.015 A 
HETATM   18  C11 UNL     1      27.625  -1.778  52.780  1.00  0.00     0.001 A 
HETATM   19  C12 UNL     1      28.785  -1.412  53.455  1.00  0.00     0.002 A 
HETATM   20  C13 UNL     1      29.103  -0.110  53.735  1.00  0.00     0.025 A 
HETATM   21  C14 UNL     1      28.190   0.857  53.302  1.00  0.00     0.046 A 
HETATM   22 CL1  UNL     1      28.610   2.530  53.666  1.00  0.00    -0.083 Cl
ENDBRANCH   4  16
TORSDOF 5
ENDMDL
MODEL 3
REMARK VINA RESULT:      -7.1      3.683      7.860
REMARK  5 active torsions:
REMARK  status: ('A' for Active; 'I' for Inactive)
REMARK    1  A    between atoms: C1_2  and  C2_3 
REMARK    2  A    between atoms: C2_3  and  N1_4 
REMARK    3  A    between atoms: N1_4  and  C3_5 
REMARK    4  A    between atoms: C4_6  and  C5_7 
REMARK    5  A    between atoms: C8_10  and  C9_11 
ROOT
HETATM    1  C5  UNL     1      24.814  -0.385  53.412  1.00  0.00     0.029 C 
HETATM    2  C6  UNL     1      24.082   0.544  52.813  1.00  0.00     0.039 C 
HETATM    3  C7  UNL     1      22.719   0.138  52.478  1.00  0.00     0.118 C 
HETATM    4  C8  UNL     1      21.765   1.243  52.268  1.00  0.00     0.046 C 
HETATM    5  N2  UNL     1      21.717   2.511  52.205  1.00  0.00    -0.288 NA
HETATM    6  C15 UNL     1      22.769   3.460  52.342  1.00  0.00     0.195 C 
HETATM    7  C16 UNL     1      24.126   2.914  52.406  1.00  0.00     0.111 C 
HETATM    8  N3  UNL     1      24.722   1.783  52.587  1.00  0.00    -0.268 NA
ENDROOT
BRANCH   1   9
HETATM    9  C4  UNL     1      26.191  -0.092  53.793  1.00  0.00     0.019 C 
HETATM   10  C3  UNL     1      27.253  -0.661  53.266  1.00  0.00     0.083 C 
BRANCH  10  11
HETATM   11  N1  UNL     1      28.614  -0.435  53.575  1.00  0.00    -0.393 N 
HETATM   12  H4  UNL     1      29.317  -0.893  52.951  1.00  0.00     0.159 HD
BRANCH  11  13
HETATM   13  C2  UNL     1      28.943   0.401  54.715  1.00  0.00     0.188 C 
BRANCH  13  14
HETATM   14  C1  UNL     1      29.355   1.752  54.292  1.00  0.00     0.250 C 
HETATM   15  O1  UNL     1      28.438   2.576  54.294  1.00  0.00    -0.305 OA
ENDBRANCH  13  14
ENDBRANCH  11  13
ENDBRANCH  10  11
ENDBRANCH   1   9
BRANCH   4  16
HETATM   16  C9  UNL     1      20.431   0.632  52.069  1.00  0.00     0.010 A 
HETATM   17  C10 UNL     1      19.662   0.699  50.928  1.00  0.00     0.015 A 
HETATM   18  C11 UNL     1      18.435   0.068  50.912  1.00  0.00     0.001 A 
HETATM   19  C12 UNL     1      17.991  -0.622  52.036  1.00  0.00     0.002 A 
HETATM   20  C13 UNL     1      18.723  -0.713  53.189  1.00  0.00     0.025 A 
HETATM   21  C14 UNL     1      19.964  -0.068  53.188  1.00  0.00     0.046 A 
HETATM   22 CL1  UNL     1      20.899  -0.192  54.678  1.00  0.00    -0.083 Cl
ENDBRANCH   4  16
TORSDOF 5
ENDMDL
MODEL 4
REMARK VINA RESULT:      -6.9      5.693      9.052
REMARK  5 active torsions:
REMARK  status: ('A' for Active; 'I' for Inactive)
REMARK    1  A    between atoms: C1_2  and  C2_3 
REMARK    2  A    between atoms: C2_3  and  N1_4 
REMARK    3  A    between atoms: N1_4  and  C3_5 
REMARK    4  A    between atoms: C4_6  and  C5_7 
REMARK    5  A    between atoms: C8_10  and  C9_11 
ROOT
HETATM    1  C5  UNL     1      26.663   3.907  49.425  1.00  0.00     0.029 C 
HETATM    2  C6  UNL     1      25.523   4.033  50.089  1.00  0.00     0.039 C 
HETATM    3  C7  UNL     1      25.031   2.808  50.714  1.00  0.00     0.118 C 
HETATM    4  C8  UNL     1      24.073   3.002  51.818  1.00  0.00     0.046 C 
HETATM    5  N2  UNL     1      23.427   3.916  52.419  1.00  0.00    -0.288 NA
HETATM    6  C15 UNL     1      23.415   5.318  52.176  1.00  0.00     0.195 C 
HETATM    7  C16 UNL     1      24.112   5.770  50.971  1.00  0.00     0.111 C 
HETATM    8  N3  UNL     1      24.954   5.326  50.098  1.00  0.00    -0.268 NA
ENDROOT
BRANCH   1   9
HETATM    9  C4  UNL     1      27.249   5.066  48.761  1.00  0.00     0.019 C 
HETATM   10  C3  UNL     1      28.515   5.175  48.420  1.00  0.00     0.083 C 
BRANCH  10  11
HETATM   11  N1  UNL     1      29.161   6.257  47.778  1.00  0.00    -0.393 N 
HETATM   12  H4  UNL     1      28.544   6.953  47.302  1.00  0.00     0.159 HD
BRANCH  11  13
HETATM   13  C2  UNL     1      30.610   6.331  47.821  1.00  0.00     0.188 C 
BRANCH  13  14
HETATM   14  C1  UNL     1      31.224   5.004  47.639  1.00  0.00     0.250 C 
HETATM   15  O1  UNL     1      31.946   4.655  48.576  1.00  0.00    -0.305 OA
ENDBRANCH  13  14
ENDBRANCH  11  13
ENDBRANCH  10  11
ENDBRANCH   1   9
BRANCH   4  16
HETATM   16  C9  UNL     1      23.797   1.665  52.393  1.00  0.00     0.010 A 
HETATM   17  C10 UNL     1      24.599   0.971  53.272  1.00  0.00     0.015 A 
HETATM   18  C11 UNL     1      24.188  -0.271  53.711  1.00  0.00     0.001 A 
HETATM   19  C12 UNL     1      22.983  -0.804  53.267  1.00  0.00     0.002 A 
HETATM   20  C13 UNL     1      22.157  -0.148  52.393  1.00  0.00     0.025 A 
HETATM   21  C14 UNL     1      22.588   1.109  51.959  1.00  0.00     0.046 A 
HETATM   22 CL1  UNL     1      21.518   1.945  50.835  1.00  0.00    -0.083 Cl
ENDBRANCH   4  16
TORSDOF 5
ENDMDL
MODEL 5
REMARK VINA RESULT:      -6.8      2.490      2.988
REMARK  5 active torsions:
REMARK  status: ('A' for Active; 'I' for Inactive)
REMARK    1  A    between atoms: C1_2  and  C2_3 
REMARK    2  A    between atoms: C2_3  and  N1_4 
REMARK    3  A    between atoms: N1_4  and  C3_5 
REMARK    4  A    between atoms: C4_6  and  C5_7 
REMARK    5  A    between atoms: C8_10  and  C9_11 
ROOT
HETATM    1  C5  UNL     1      22.755   1.178  53.004  1.00  0.00     0.029 C 
HETATM    2  C6  UNL     1      23.752   1.890  52.496  1.00  0.00     0.039 C 
HETATM    3  C7  UNL     1      25.064   1.625  53.083  1.00  0.00     0.118 C 
HETATM    4  C8  UNL     1      26.218   2.018  52.252  1.00  0.00     0.046 C 
HETATM    5  N2  UNL     1      26.498   2.606  51.162  1.00  0.00    -0.288 NA
HETATM    6  C15 UNL     1      25.622   3.189  50.202  1.00  0.00     0.195 C 
HETATM    7  C16 UNL     1      24.212   3.273  50.584  1.00  0.00     0.111 C 
HETATM    8  N3  UNL     1      23.403   2.795  51.470  1.00  0.00    -0.268 NA
ENDROOT
BRANCH   1   9
HETATM    9  C4  UNL     1      21.401   1.358  52.495  1.00  0.00     0.019 C 
HETATM   10  C3  UNL     1      20.531   0.388  52.315  1.00  0.00     0.083 C 
BRANCH  10  11
HETATM   11  N1  UNL     1      19.206   0.476  51.829  1.00  0.00    -0.393 N 
HETATM   12  H4  UNL     1      18.526  -0.227  52.198  1.00  0.00     0.159 HD
BRANCH  11  13
HETATM   13  C2  UNL     1      18.880   1.516  50.871  1.00  0.00     0.188 C 
BRANCH  13  14
HETATM   14  C1  UNL     1      17.954   2.509  51.446  1.00  0.00     0.250 C 
HETATM   15  O1  UNL     1      18.517   3.434  52.035  1.00  0.00    -0.305 OA
ENDBRANCH  13  14
ENDBRANCH  11  13
ENDBRANCH  10  11
ENDBRANCH   1   9
BRANCH   4  16
HETATM   16  C9  UNL     1      27.435   1.557  52.956  1.00  0.00     0.010 A 
HETATM   17  C10 UNL     1      28.325   2.343  53.655  1.00  0.00     0.015 A 
HETATM   18  C11 UNL     1      29.415   1.747  54.255  1.00  0.00     0.001 A 
HETATM   19  C12 UNL     1      29.603   0.373  54.151  1.00  0.00     0.002 A 
HETATM   20  C13 UNL     1      28.744  -0.445  53.466  1.00  0.00     0.025 A 
HETATM   21  C14 UNL     1      27.645   0.175  52.864  1.00  0.00     0.046 A 
HETATM   22 CL1  UNL     1      26.545  -0.886  51.986  1.00  0.00    -0.083 Cl
ENDBRANCH   4  16
TORSDOF 5
ENDMDL
MODEL 6
REMARK VINA RESULT:      -6.8      5.399      8.364
REMARK  5 active torsions:
REMARK  status: ('A' for Active; 'I' for Inactive)
REMARK    1  A    between atoms: C1_2  and  C2_3 
REMARK    2  A    between atoms: C2_3  and  N1_4 
REMARK    3  A    between atoms: N1_4  and  C3_5 
REMARK    4  A    between atoms: C4_6  and  C5_7 
REMARK    5  A    between atoms: C8_10  and  C9_11 
ROOT
HETATM    1  C5  UNL     1      26.581   4.336  49.459  1.00  0.00     0.029 C 
HETATM    2  C6  UNL     1      25.552   4.157  50.276  1.00  0.00     0.039 C 
HETATM    3  C7  UNL     1      25.616   2.952  51.098  1.00  0.00     0.118 C 
HETATM    4  C8  UNL     1      24.777   2.969  52.312  1.00  0.00     0.046 C 
HETATM    5  N2  UNL     1      23.908   3.682  52.904  1.00  0.00    -0.288 NA
HETATM    6  C15 UNL     1      23.354   4.934  52.515  1.00  0.00     0.195 C 
HETATM    7  C16 UNL     1      23.703   5.406  51.174  1.00  0.00     0.111 C 
HETATM    8  N3  UNL     1      24.551   5.153  50.233  1.00  0.00    -0.268 NA
ENDROOT
BRANCH   1   9
HETATM    9  C4  UNL     1      26.625   5.506  48.590  1.00  0.00     0.019 C 
HETATM   10  C3  UNL     1      27.619   6.367  48.540  1.00  0.00     0.083 C 
BRANCH  10  11
HETATM   11  N1  UNL     1      27.740   7.521  47.732  1.00  0.00    -0.393 N 
HETATM   12  H4  UNL     1      28.163   7.385  46.786  1.00  0.00     0.159 HD
BRANCH  11  13
HETATM   13  C2  UNL     1      27.278   8.793  48.255  1.00  0.00     0.188 C 
BRANCH  13  14
HETATM   14  C1  UNL     1      27.557   8.916  49.697  1.00  0.00     0.250 C 
HETATM   15  O1  UNL     1      27.020   9.891  50.228  1.00  0.00    -0.305 OA
ENDBRANCH  13  14
ENDBRANCH  11  13
ENDBRANCH  10  11
ENDBRANCH   1   9
BRANCH   4  16
HETATM   16  C9  UNL     1      25.076   1.729  53.063  1.00  0.00     0.010 A 
HETATM   17  C10 UNL     1      26.139   1.524  53.915  1.00  0.00     0.015 A 
HETATM   18  C11 UNL     1      26.268   0.299  54.538  1.00  0.00     0.001 A 
HETATM   19  C12 UNL     1      25.335  -0.704  54.303  1.00  0.00     0.002 A 
HETATM   20  C13 UNL     1      24.265  -0.543  53.464  1.00  0.00     0.025 A 
HETATM   21  C14 UNL     1      24.149   0.704  52.841  1.00  0.00     0.046 A 
HETATM   22 CL1  UNL     1      22.767   0.902  51.764  1.00  0.00    -0.083 Cl
ENDBRANCH   4  16
TORSDOF 5
ENDMDL
MODEL 7
REMARK VINA RESULT:      -6.8      5.690      8.912
REMARK  5 active torsions:
REMARK  status: ('A' for Active; 'I' for Inactive)
REMARK    1  A    between atoms: C1_2  and  C2_3 
REMARK    2  A    between atoms: C2_3  and  N1_4 
REMARK    3  A    between atoms: N1_4  and  C3_5 
REMARK    4  A    between atoms: C4_6  and  C5_7 
REMARK    5  A    between atoms: C8_10  and  C9_11 
ROOT
HETATM    1  C5  UNL     1      26.791   3.933  49.345  1.00  0.00     0.029 C 
HETATM    2  C6  UNL     1      25.685   4.037  50.069  1.00  0.00     0.039 C 
HETATM    3  C7  UNL     1      25.282   2.817  50.764  1.00  0.00     0.118 C 
HETATM    4  C8  UNL     1      24.380   3.013  51.914  1.00  0.00     0.046 C 
HETATM    5  N2  UNL     1      23.730   3.922  52.518  1.00  0.00    -0.288 NA
HETATM    6  C15 UNL     1      23.644   5.312  52.226  1.00  0.00     0.195 C 
HETATM    7  C16 UNL     1      24.252   5.747  50.968  1.00  0.00     0.111 C 
HETATM    8  N3  UNL     1      25.062   5.305  50.064  1.00  0.00    -0.268 NA
ENDROOT
BRANCH   1   9
HETATM    9  C4  UNL     1      27.289   5.089  48.609  1.00  0.00     0.019 C 
HETATM   10  C3  UNL     1      28.558   5.409  48.483  1.00  0.00     0.083 C 
BRANCH  10  11
HETATM   11  N1  UNL     1      29.123   6.506  47.791  1.00  0.00    -0.393 N 
HETATM   12  H4  UNL     1      28.626   6.817  46.926  1.00  0.00     0.159 HD
BRANCH  11  13
HETATM   13  C2  UNL     1      30.330   7.117  48.315  1.00  0.00     0.188 C 
BRANCH  13  14
HETATM   14  C1  UNL     1      30.054   8.442  48.899  1.00  0.00     0.250 C 
HETATM   15  O1  UNL     1      31.013   8.933  49.498  1.00  0.00    -0.305 OA
ENDBRANCH  13  14
ENDBRANCH  11  13
ENDBRANCH  10  11
ENDBRANCH   1   9
BRANCH   4  16
HETATM   16  C9  UNL     1      24.194   1.689  52.550  1.00  0.00     0.010 A 
HETATM   17  C10 UNL     1      23.097   0.865  52.421  1.00  0.00     0.015 A 
HETATM   18  C11 UNL     1      23.088  -0.343  53.088  1.00  0.00     0.001 A 
HETATM   19  C12 UNL     1      24.174  -0.714  53.873  1.00  0.00     0.002 A 
HETATM   20  C13 UNL     1      25.283   0.074  54.029  1.00  0.00     0.025 A 
HETATM   21  C14 UNL     1      25.276   1.295  53.347  1.00  0.00     0.046 A 
HETATM   22 CL1  UNL     1      26.709   2.302  53.553  1.00  0.00    -0.083 Cl
ENDBRANCH   4  16
TORSDOF 5
ENDMDL
MODEL 8
REMARK VINA RESULT:      -6.7      4.096      8.168
REMARK  5 active torsions:
REMARK  status: ('A' for Active; 'I' for Inactive)
REMARK    1  A    between atoms: C1_2  and  C2_3 
REMARK    2  A    between atoms: C2_3  and  N1_4 
REMARK    3  A    between atoms: N1_4  and  C3_5 
REMARK    4  A    between atoms: C4_6  and  C5_7 
REMARK    5  A    between atoms: C8_10  and  C9_11 
ROOT
HETATM    1  C5  UNL     1      24.438   0.120  53.326  1.00  0.00     0.029 C 
HETATM    2  C6  UNL     1      23.523   0.895  52.758  1.00  0.00     0.039 C 
HETATM    3  C7  UNL     1      22.212   0.276  52.580  1.00  0.00     0.118 C 
HETATM    4  C8  UNL     1      21.087   1.215  52.413  1.00  0.00     0.046 C 
HETATM    5  N2  UNL     1      20.844   2.456  52.294  1.00  0.00    -0.288 NA
HETATM    6  C15 UNL     1      21.750   3.554  52.280  1.00  0.00     0.195 C 
HETATM    7  C16 UNL     1      23.173   3.216  52.236  1.00  0.00     0.111 C 
HETATM    8  N3  UNL     1      23.947   2.197  52.411  1.00  0.00    -0.268 NA
ENDROOT
BRANCH   1   9
HETATM    9  C4  UNL     1      25.784   0.633  53.554  1.00  0.00     0.019 C 
HETATM   10  C3  UNL     1      26.548   0.307  54.573  1.00  0.00     0.083 C 
BRANCH  10  11
HETATM   11  N1  UNL     1      27.857   0.756  54.868  1.00  0.00    -0.393 N 
HETATM   12  H4  UNL     1      28.005   1.173  55.814  1.00  0.00     0.159 HD
BRANCH  11  13
HETATM   13  C2  UNL     1      28.889   0.610  53.859  1.00  0.00     0.188 C 
BRANCH  13  14
HETATM   14  C1  UNL     1      29.178  -0.809  53.583  1.00  0.00     0.250 C 
HETATM   15  O1  UNL     1      30.327  -1.150  53.874  1.00  0.00    -0.305 OA
ENDBRANCH  13  14
ENDBRANCH  11  13
ENDBRANCH  10  11
ENDBRANCH   1   9
BRANCH   4  16
HETATM   16  C9  UNL     1      19.848   0.406  52.376  1.00  0.00     0.010 A 
HETATM   17  C10 UNL     1      19.349  -0.374  53.396  1.00  0.00     0.015 A 
HETATM   18  C11 UNL     1      18.173  -1.068  53.192  1.00  0.00     0.001 A 
HETATM   19  C12 UNL     1      17.511  -0.973  51.973  1.00  0.00     0.002 A 
HETATM   20  C13 UNL     1      17.973  -0.211  50.933  1.00  0.00     0.025 A 
HETATM   21  C14 UNL     1      19.164   0.485  51.157  1.00  0.00     0.046 A 
HETATM   22 CL1  UNL     1      19.749   1.465  49.813  1.00  0.00    -0.083 Cl
ENDBRANCH   4  16
TORSDOF 5
ENDMDL
MODEL 9
REMARK VINA RESULT:      -6.6      5.016      7.975
REMARK  5 active torsions:
REMARK  status: ('A' for Active; 'I' for Inactive)
REMARK    1  A    between atoms: C1_2  and  C2_3 
REMARK    2  A    between atoms: C2_3  and  N1_4 
REMARK    3  A    between atoms: N1_4  and  C3_5 
REMARK    4  A    between atoms: C4_6  and  C5_7 
REMARK    5  A    between atoms: C8_10  and  C9_11 
ROOT
HETATM    1  C5  UNL     1      23.451   5.219  52.066  1.00  0.00     0.029 C 
HETATM    2  C6  UNL     1      23.372   4.019  51.508  1.00  0.00     0.039 C 
HETATM    3  C7  UNL     1      23.258   2.906  52.448  1.00  0.00     0.118 C 
HETATM    4  C8  UNL     1      22.700   1.661  51.887  1.00  0.00     0.046 C 
HETATM    5  N2  UNL     1      22.319   1.155  50.785  1.00  0.00    -0.288 NA
HETATM    6  C15 UNL     1      22.303   1.736  49.486  1.00  0.00     0.195 C 
HETATM    7  C16 UNL     1      22.960   3.037  49.352  1.00  0.00     0.111 C 
HETATM    8  N3  UNL     1      23.411   3.991  50.096  1.00  0.00    -0.268 NA
ENDROOT
BRANCH   1   9
HETATM    9  C4  UNL     1      23.568   6.405  51.225  1.00  0.00     0.019 C 
HETATM   10  C3  UNL     1      24.611   7.205  51.197  1.00  0.00     0.083 C 
BRANCH  10  11
HETATM   11  N1  UNL     1      24.805   8.368  50.416  1.00  0.00    -0.393 N 
HETATM   12  H4  UNL     1      24.197   9.188  50.641  1.00  0.00     0.159 HD
BRANCH  11  13
HETATM   13  C2  UNL     1      25.816   8.351  49.375  1.00  0.00     0.188 C 
BRANCH  13  14
HETATM   14  C1  UNL     1      27.120   8.815  49.881  1.00  0.00     0.250 C 
HETATM   15  O1  UNL     1      27.064   9.876  50.507  1.00  0.00    -0.305 OA
ENDBRANCH  13  14
ENDBRANCH  11  13
ENDBRANCH  10  11
ENDBRANCH   1   9
BRANCH   4  16
HETATM   16  C9  UNL     1      22.549   0.709  53.010  1.00  0.00     0.010 A 
HETATM   17  C10 UNL     1      21.391   0.445  53.709  1.00  0.00     0.015 A 
HETATM   18  C11 UNL     1      21.426  -0.477  54.735  1.00  0.00     0.001 A 
HETATM   19  C12 UNL     1      22.616  -1.124  55.050  1.00  0.00     0.002 A 
HETATM   20  C13 UNL     1      23.789  -0.891  54.382  1.00  0.00     0.025 A 
HETATM   21  C14 UNL     1      23.735   0.046  53.346  1.00  0.00     0.046 A 
HETATM   22 CL1  UNL     1      25.249   0.338  52.491  1.00  0.00    -0.083 Cl
ENDBRANCH   4  16
TORSDOF 5
ENDMDL
