MODEL 1
REMARK VINA RESULT:      -7.7      0.000      0.000
REMARK  7 active torsions:
REMARK  status: ('A' for Active; 'I' for Inactive)
REMARK    1  A    between atoms: S1_1  and  N1_2 
REMARK    2  A    between atoms: C4_6  and  O1_7 
REMARK    3  A    between atoms: O1_7  and  C5_8 
REMARK    4  A    between atoms: C5_8  and  N2_9 
REMARK    5  A    between atoms: N2_9  and  C6_10 
REMARK    6  A    between atoms: C12_16  and  O2_17 
REMARK    7  A    between atoms: O2_17  and  C13_18 
ROOT
HETATM    1  N1  UNL     1      22.423   2.866  50.799  1.00  0.00    -0.301 N 
HETATM    2  C1  UNL     1      21.761   4.155  50.920  1.00  0.00     0.139 C 
HETATM    3  C2  UNL     1      22.075   4.737  52.292  1.00  0.00     0.027 C 
HETATM    4  C3  UNL     1      23.584   4.631  52.442  1.00  0.00     0.071 C 
HETATM    5  C4  UNL     1      23.898   3.194  52.675  1.00  0.00     0.100 C 
HETATM    6  C12 UNL     1      23.285   2.358  51.818  1.00  0.00     0.185 C 
ENDROOT
BRANCH   5   7
HETATM    7  O1  UNL     1      24.690   2.546  53.591  1.00  0.00    -0.332 OA
BRANCH   7   8
HETATM    8  C5  UNL     1      26.073   2.440  53.379  1.00  0.00     0.298 C 
BRANCH   8   9
HETATM    9  N2  UNL     1      26.387   1.262  52.585  1.00  0.00    -0.368 N 
HETATM   10  H10 UNL     1      25.785   1.039  51.752  1.00  0.00     0.161 HD
BRANCH   9  11
HETATM   11  C6  UNL     1      27.484   0.431  52.928  1.00  0.00     0.029 A 
HETATM   12  C7  UNL     1      27.421  -0.917  52.737  1.00  0.00     0.029 A 
HETATM   13  C8  UNL     1      28.512  -1.708  53.083  1.00  0.00     0.002 A 
HETATM   14  C9  UNL     1      29.667  -1.130  53.622  1.00  0.00     0.000 A 
HETATM   15  C10 UNL     1      29.733   0.233  53.817  1.00  0.00     0.002 A 
HETATM   16  C11 UNL     1      28.622   0.993  53.459  1.00  0.00     0.029 A 
ENDBRANCH   9  11
ENDBRANCH   8   9
ENDBRANCH   7   8
ENDBRANCH   5   7
BRANCH   6  17
HETATM   17  O2  UNL     1      23.445   0.967  51.864  1.00  0.00    -0.291 OA
BRANCH  17  18
HETATM   18  C13 UNL     1      22.799   0.174  52.794  1.00  0.00     0.079 A 
HETATM   19  C14 UNL     1      23.384  -0.507  53.849  1.00  0.00     0.037 A 
HETATM   20  C15 UNL     1      22.598  -1.266  54.702  1.00  0.00     0.004 A 
HETATM   21  C16 UNL     1      21.221  -1.367  54.529  1.00  0.00     0.024 A 
HETATM   22  C17 UNL     1      20.633  -0.678  53.462  1.00  0.00     0.036 A 
HETATM   23 CL1  UNL     1      18.883  -0.791  53.220  1.00  0.00    -0.084 Cl
HETATM   24  C18 UNL     1      21.415   0.078  52.613  1.00  0.00     0.061 A 
ENDBRANCH  17  18
ENDBRANCH   6  17
BRANCH   1  25
HETATM   25  S1  UNL     1      22.110   1.946  49.317  1.00  0.00    -0.064 SA
HETATM   26  H1  UNL     1      23.324   1.387  48.901  1.00  0.00     0.126 HD
ENDBRANCH   1  25
TORSDOF 7
ENDMDL
MODEL 2
REMARK VINA RESULT:      -7.6      1.787      2.104
REMARK  7 active torsions:
REMARK  status: ('A' for Active; 'I' for Inactive)
REMARK    1  A    between atoms: S1_1  and  N1_2 
REMARK    2  A    between atoms: C4_6  and  O1_7 
REMARK    3  A    between atoms: O1_7  and  C5_8 
REMARK    4  A    between atoms: C5_8  and  N2_9 
REMARK    5  A    between atoms: N2_9  and  C6_10 
REMARK    6  A    between atoms: C12_16  and  O2_17 
REMARK    7  A    between atoms: O2_17  and  C13_18 
ROOT
HETATM    1  N1  UNL     1      21.727   3.442  51.686  1.00  0.00    -0.301 N 
HETATM    2  C1  UNL     1      21.898   4.732  52.335  1.00  0.00     0.139 C 
HETATM    3  C2  UNL     1      23.379   4.937  52.628  1.00  0.00     0.027 C 
HETATM    4  C3  UNL     1      24.096   4.631  51.323  1.00  0.00     0.071 C 
HETATM    5  C4  UNL     1      24.055   3.154  51.140  1.00  0.00     0.100 C 
HETATM    6  C12 UNL     1      22.838   2.616  51.336  1.00  0.00     0.185 C 
ENDROOT
BRANCH   5   7
HETATM    7  O1  UNL     1      25.011   2.225  50.810  1.00  0.00    -0.332 OA
BRANCH   7   8
HETATM    8  C5  UNL     1      26.373   2.549  50.901  1.00  0.00     0.298 C 
BRANCH   8   9
HETATM    9  N2  UNL     1      26.822   2.514  52.284  1.00  0.00    -0.368 N 
HETATM   10  H10 UNL     1      26.593   3.326  52.911  1.00  0.00     0.161 HD
BRANCH   9  11
HETATM   11  C6  UNL     1      27.556   1.405  52.776  1.00  0.00     0.029 A 
HETATM   12  C7  UNL     1      27.164   0.130  52.492  1.00  0.00     0.029 A 
HETATM   13  C8  UNL     1      27.903  -0.939  52.989  1.00  0.00     0.002 A 
HETATM   14  C9  UNL     1      29.039  -0.714  53.773  1.00  0.00     0.000 A 
HETATM   15  C10 UNL     1      29.438   0.573  54.064  1.00  0.00     0.002 A 
HETATM   16  C11 UNL     1      28.674   1.619  53.549  1.00  0.00     0.029 A 
ENDBRANCH   9  11
ENDBRANCH   8   9
ENDBRANCH   7   8
ENDBRANCH   5   7
BRANCH   6  17
HETATM   17  O2  UNL     1      22.581   1.244  51.213  1.00  0.00    -0.291 OA
BRANCH  17  18
HETATM   18  C13 UNL     1      22.387   0.423  52.308  1.00  0.00     0.079 A 
HETATM   19  C14 UNL     1      21.192  -0.151  52.710  1.00  0.00     0.037 A 
HETATM   20  C15 UNL     1      21.158  -0.957  53.837  1.00  0.00     0.004 A 
HETATM   21  C16 UNL     1      22.302  -1.211  54.588  1.00  0.00     0.024 A 
HETATM   22  C17 UNL     1      23.507  -0.629  54.179  1.00  0.00     0.036 A 
HETATM   23 CL1  UNL     1      24.977  -0.936  55.117  1.00  0.00    -0.084 Cl
HETATM   24  C18 UNL     1      23.542   0.173  53.057  1.00  0.00     0.061 A 
ENDBRANCH  17  18
ENDBRANCH   6  17
BRANCH   1  25
HETATM   25  S1  UNL     1      20.062   2.937  51.346  1.00  0.00    -0.064 SA
HETATM   26  H1  UNL     1      20.086   1.567  51.058  1.00  0.00     0.126 HD
ENDBRANCH   1  25
TORSDOF 7
ENDMDL
MODEL 3
REMARK VINA RESULT:      -7.6      3.550      5.583
REMARK  7 active torsions:
REMARK  status: ('A' for Active; 'I' for Inactive)
REMARK    1  A    between atoms: S1_1  and  N1_2 
REMARK    2  A    between atoms: C4_6  and  O1_7 
REMARK    3  A    between atoms: O1_7  and  C5_8 
REMARK    4  A    between atoms: C5_8  and  N2_9 
REMARK    5  A    between atoms: N2_9  and  C6_10 
REMARK    6  A    between atoms: C12_16  and  O2_17 
REMARK    7  A    between atoms: O2_17  and  C13_18 
ROOT
HETATM    1  N1  UNL     1      21.688  -0.112  53.267  1.00  0.00    -0.301 N 
HETATM    2  C1  UNL     1      20.323  -0.232  52.783  1.00  0.00     0.139 C 
HETATM    3  C2  UNL     1      20.130   0.737  51.624  1.00  0.00     0.027 C 
HETATM    4  C3  UNL     1      21.302   0.488  50.688  1.00  0.00     0.071 C 
HETATM    5  C4  UNL     1      22.508   1.073  51.336  1.00  0.00     0.100 C 
HETATM    6  C12 UNL     1      22.646   0.735  52.630  1.00  0.00     0.185 C 
ENDROOT
BRANCH   5   7
HETATM    7  O1  UNL     1      23.512   1.890  50.879  1.00  0.00    -0.332 OA
BRANCH   7   8
HETATM    8  C5  UNL     1      23.255   3.243  50.611  1.00  0.00     0.298 C 
BRANCH   8   9
HETATM    9  N2  UNL     1      24.327   4.085  51.119  1.00  0.00    -0.368 N 
HETATM   10  H10 UNL     1      24.342   4.322  52.144  1.00  0.00     0.161 HD
BRANCH   9  11
HETATM   11  C6  UNL     1      25.333   4.577  50.249  1.00  0.00     0.029 A 
HETATM   12  C7  UNL     1      26.335   3.760  49.813  1.00  0.00     0.029 A 
HETATM   13  C8  UNL     1      27.309   4.270  48.959  1.00  0.00     0.002 A 
HETATM   14  C9  UNL     1      27.265   5.607  48.549  1.00  0.00     0.000 A 
HETATM   15  C10 UNL     1      26.254   6.435  48.988  1.00  0.00     0.002 A 
HETATM   16  C11 UNL     1      25.297   5.890  49.841  1.00  0.00     0.029 A 
ENDBRANCH   9  11
ENDBRANCH   8   9
ENDBRANCH   7   8
ENDBRANCH   5   7
BRANCH   6  17
HETATM   17  O2  UNL     1      23.712   1.178  53.425  1.00  0.00    -0.291 OA
BRANCH  17  18
HETATM   18  C13 UNL     1      25.003   0.707  53.267  1.00  0.00     0.079 A 
HETATM   19  C14 UNL     1      25.377  -0.591  52.958  1.00  0.00     0.037 A 
HETATM   20  C15 UNL     1      26.720  -0.911  52.832  1.00  0.00     0.004 A 
HETATM   21  C16 UNL     1      27.717   0.043  53.012  1.00  0.00     0.024 A 
HETATM   22  C17 UNL     1      27.335   1.352  53.325  1.00  0.00     0.036 A 
HETATM   23 CL1  UNL     1      28.585   2.585  53.558  1.00  0.00    -0.084 Cl
HETATM   24  C18 UNL     1      25.999   1.672  53.449  1.00  0.00     0.061 A 
ENDBRANCH  17  18
ENDBRANCH   6  17
BRANCH   1  25
HETATM   25  S1  UNL     1      22.115  -1.072  54.694  1.00  0.00    -0.064 SA
HETATM   26  H1  UNL     1      22.319  -0.184  55.757  1.00  0.00     0.126 HD
ENDBRANCH   1  25
TORSDOF 7
ENDMDL
MODEL 4
REMARK VINA RESULT:      -7.5      2.609      4.559
REMARK  7 active torsions:
REMARK  status: ('A' for Active; 'I' for Inactive)
REMARK    1  A    between atoms: S1_1  and  N1_2 
REMARK    2  A    between atoms: C4_6  and  O1_7 
REMARK    3  A    between atoms: O1_7  and  C5_8 
REMARK    4  A    between atoms: C5_8  and  N2_9 
REMARK    5  A    between atoms: N2_9  and  C6_10 
REMARK    6  A    between atoms: C12_16  and  O2_17 
REMARK    7  A    between atoms: O2_17  and  C13_18 
ROOT
HETATM    1  N1  UNL     1      20.499   0.347  52.735  1.00  0.00    -0.301 N 
HETATM    2  C1  UNL     1      19.682  -0.568  53.514  1.00  0.00     0.139 C 
HETATM    3  C2  UNL     1      20.587  -1.635  54.118  1.00  0.00     0.027 C 
HETATM    4  C3  UNL     1      21.729  -0.875  54.773  1.00  0.00     0.071 C 
HETATM    5  C4  UNL     1      22.598  -0.366  53.676  1.00  0.00     0.100 C 
HETATM    6  C12 UNL     1      21.922   0.237  52.683  1.00  0.00     0.185 C 
ENDROOT
BRANCH   5   7
HETATM    7  O1  UNL     1      23.956  -0.387  53.473  1.00  0.00    -0.332 OA
BRANCH   7   8
HETATM    8  C5  UNL     1      24.823  -0.714  54.526  1.00  0.00     0.298 C 
BRANCH   8   9
HETATM    9  N2  UNL     1      26.175  -0.936  54.034  1.00  0.00    -0.368 N 
HETATM   10  H10 UNL     1      26.461  -1.913  53.766  1.00  0.00     0.161 HD
BRANCH   9  11
HETATM   11  C6  UNL     1      27.088   0.142  53.920  1.00  0.00     0.029 A 
HETATM   12  C7  UNL     1      28.247   0.151  54.638  1.00  0.00     0.029 A 
HETATM   13  C8  UNL     1      29.124   1.223  54.506  1.00  0.00     0.002 A 
HETATM   14  C9  UNL     1      28.825   2.285  53.645  1.00  0.00     0.000 A 
HETATM   15  C10 UNL     1      27.654   2.279  52.918  1.00  0.00     0.002 A 
HETATM   16  C11 UNL     1      26.800   1.189  53.075  1.00  0.00     0.029 A 
ENDBRANCH   9  11
ENDBRANCH   8   9
ENDBRANCH   7   8
ENDBRANCH   5   7
BRANCH   6  17
HETATM   17  O2  UNL     1      22.549   0.786  51.556  1.00  0.00    -0.291 OA
BRANCH  17  18
HETATM   18  C13 UNL     1      23.184   2.015  51.583  1.00  0.00     0.079 A 
HETATM   19  C14 UNL     1      22.887   3.081  52.417  1.00  0.00     0.037 A 
HETATM   20  C15 UNL     1      23.618   4.254  52.324  1.00  0.00     0.004 A 
HETATM   21  C16 UNL     1      24.653   4.398  51.406  1.00  0.00     0.024 A 
HETATM   22  C17 UNL     1      24.950   3.320  50.565  1.00  0.00     0.036 A 
HETATM   23 CL1  UNL     1      26.263   3.477  49.387  1.00  0.00    -0.084 Cl
HETATM   24  C18 UNL     1      24.223   2.151  50.658  1.00  0.00     0.061 A 
ENDBRANCH  17  18
ENDBRANCH   6  17
BRANCH   1  25
HETATM   25  S1  UNL     1      19.641   1.617  51.844  1.00  0.00    -0.064 SA
HETATM   26  H1  UNL     1      19.496   1.182  50.521  1.00  0.00     0.126 HD
ENDBRANCH   1  25
TORSDOF 7
ENDMDL
MODEL 5
REMARK VINA RESULT:      -7.4      3.070      4.695
REMARK  7 active torsions:
REMARK  status: ('A' for Active; 'I' for Inactive)
REMARK    1  A    between atoms: S1_1  and  N1_2 
REMARK    2  A    between atoms: C4_6  and  O1_7 
REMARK    3  A    between atoms: O1_7  and  C5_8 
REMARK    4  A    between atoms: C5_8  and  N2_9 
REMARK    5  A    between atoms: N2_9  and  C6_10 
REMARK    6  A    between atoms: C12_16  and  O2_17 
REMARK    7  A    between atoms: O2_17  and  C13_18 
ROOT
HETATM    1  N1  UNL     1      21.598   2.882  51.282  1.00  0.00    -0.301 N 
HETATM    2  C1  UNL     1      20.785   1.825  50.703  1.00  0.00     0.139 C 
HETATM    3  C2  UNL     1      21.480   0.490  50.942  1.00  0.00     0.027 C 
HETATM    4  C3  UNL     1      21.825   0.472  52.422  1.00  0.00     0.071 C 
HETATM    5  C4  UNL     1      22.963   1.412  52.615  1.00  0.00     0.100 C 
HETATM    6  C12 UNL     1      22.790   2.605  52.019  1.00  0.00     0.185 C 
ENDROOT
BRANCH   5   7
HETATM    7  O1  UNL     1      24.160   1.309  53.281  1.00  0.00    -0.332 OA
BRANCH   7   8
HETATM    8  C5  UNL     1      24.736   0.049  53.506  1.00  0.00     0.298 C 
BRANCH   8   9
HETATM    9  N2  UNL     1      25.778  -0.226  52.529  1.00  0.00    -0.368 N 
HETATM   10  H10 UNL     1      25.498  -0.430  51.536  1.00  0.00     0.161 HD
BRANCH   9  11
HETATM   11  C6  UNL     1      27.145  -0.219  52.908  1.00  0.00     0.029 A 
HETATM   12  C7  UNL     1      27.850  -1.384  52.987  1.00  0.00     0.029 A 
HETATM   13  C8  UNL     1      29.189  -1.347  53.362  1.00  0.00     0.002 A 
HETATM   14  C9  UNL     1      29.812  -0.129  53.657  1.00  0.00     0.000 A 
HETATM   15  C10 UNL     1      29.101   1.050  53.580  1.00  0.00     0.002 A 
HETATM   16  C11 UNL     1      27.763   0.974  53.200  1.00  0.00     0.029 A 
ENDBRANCH   9  11
ENDBRANCH   8   9
ENDBRANCH   7   8
ENDBRANCH   5   7
BRANCH   6  17
HETATM   17  O2  UNL     1      23.740   3.633  52.077  1.00  0.00    -0.291 OA
BRANCH  17  18
HETATM   18  C13 UNL     1      24.713   3.802  51.110  1.00  0.00     0.079 A 
HETATM   19  C14 UNL     1      25.637   2.857  50.691  1.00  0.00     0.037 A 
HETATM   20  C15 UNL     1      26.555   3.179  49.705  1.00  0.00     0.004 A 
HETATM   21  C16 UNL     1      26.580   4.438  49.113  1.00  0.00     0.024 A 
HETATM   22  C17 UNL     1      25.646   5.390  49.538  1.00  0.00     0.036 A 
HETATM   23 CL1  UNL     1      25.657   7.000  48.802  1.00  0.00    -0.084 Cl
HETATM   24  C18 UNL     1      24.731   5.070  50.520  1.00  0.00     0.061 A 
ENDBRANCH  17  18
ENDBRANCH   6  17
BRANCH   1  25
HETATM   25  S1  UNL     1      21.038   4.545  51.029  1.00  0.00    -0.064 SA
HETATM   26  H1  UNL     1      19.888   4.488  50.233  1.00  0.00     0.126 HD
ENDBRANCH   1  25
TORSDOF 7
ENDMDL
MODEL 6
REMARK VINA RESULT:      -7.3      1.750      2.103
REMARK  7 active torsions:
REMARK  status: ('A' for Active; 'I' for Inactive)
REMARK    1  A    between atoms: S1_1  and  N1_2 
REMARK    2  A    between atoms: C4_6  and  O1_7 
REMARK    3  A    between atoms: O1_7  and  C5_8 
REMARK    4  A    between atoms: C5_8  and  N2_9 
REMARK    5  A    between atoms: N2_9  and  C6_10 
REMARK    6  A    between atoms: C12_16  and  O2_17 
REMARK    7  A    between atoms: O2_17  and  C13_18 
ROOT
HETATM    1  N1  UNL     1      21.342   3.812  50.645  1.00  0.00    -0.301 N 
HETATM    2  C1  UNL     1      21.299   5.167  51.170  1.00  0.00     0.139 C 
HETATM    3  C2  UNL     1      22.654   5.494  51.785  1.00  0.00     0.027 C 
HETATM    4  C3  UNL     1      23.681   5.109  50.732  1.00  0.00     0.071 C 
HETATM    5  C4  UNL     1      23.742   3.622  50.707  1.00  0.00     0.100 C 
HETATM    6  C12 UNL     1      22.536   3.029  50.664  1.00  0.00     0.185 C 
ENDROOT
BRANCH   5   7
HETATM    7  O1  UNL     1      24.785   2.729  50.719  1.00  0.00    -0.332 OA
BRANCH   7   8
HETATM    8  C5  UNL     1      26.091   3.162  50.442  1.00  0.00     0.298 C 
BRANCH   8   9
HETATM    9  N2  UNL     1      26.969   2.922  51.576  1.00  0.00    -0.368 N 
HETATM   10  H10 UNL     1      27.725   3.622  51.787  1.00  0.00     0.161 HD
BRANCH   9  11
HETATM   11  C6  UNL     1      26.808   1.766  52.382  1.00  0.00     0.029 A 
HETATM   12  C7  UNL     1      26.560   1.879  53.718  1.00  0.00     0.029 A 
HETATM   13  C8  UNL     1      26.407   0.728  54.484  1.00  0.00     0.002 A 
HETATM   14  C9  UNL     1      26.505  -0.537  53.894  1.00  0.00     0.000 A 
HETATM   15  C10 UNL     1      26.757  -0.655  52.544  1.00  0.00     0.002 A 
HETATM   16  C11 UNL     1      26.904   0.520  51.808  1.00  0.00     0.029 A 
ENDBRANCH   9  11
ENDBRANCH   8   9
ENDBRANCH   7   8
ENDBRANCH   5   7
BRANCH   6  17
HETATM   17  O2  UNL     1      22.371   1.638  50.634  1.00  0.00    -0.291 OA
BRANCH  17  18
HETATM   18  C13 UNL     1      22.182   0.887  51.780  1.00  0.00     0.079 A 
HETATM   19  C14 UNL     1      23.144   0.559  52.722  1.00  0.00     0.037 A 
HETATM   20  C15 UNL     1      22.798  -0.206  53.824  1.00  0.00     0.004 A 
HETATM   21  C16 UNL     1      21.498  -0.662  54.017  1.00  0.00     0.024 A 
HETATM   22  C17 UNL     1      20.529  -0.330  53.064  1.00  0.00     0.036 A 
HETATM   23 CL1  UNL     1      18.867  -0.898  53.286  1.00  0.00    -0.084 Cl
HETATM   24  C18 UNL     1      20.872   0.433  51.966  1.00  0.00     0.061 A 
ENDBRANCH  17  18
ENDBRANCH   6  17
BRANCH   1  25
HETATM   25  S1  UNL     1      19.832   3.170  49.974  1.00  0.00    -0.064 SA
HETATM   26  H1  UNL     1      18.798   4.033  50.357  1.00  0.00     0.126 HD
ENDBRANCH   1  25
TORSDOF 7
ENDMDL
MODEL 7
REMARK VINA RESULT:      -7.2      2.104      2.708
REMARK  7 active torsions:
REMARK  status: ('A' for Active; 'I' for Inactive)
REMARK    1  A    between atoms: S1_1  and  N1_2 
REMARK    2  A    between atoms: C4_6  and  O1_7 
REMARK    3  A    between atoms: O1_7  and  C5_8 
REMARK    4  A    between atoms: C5_8  and  N2_9 
REMARK    5  A    between atoms: N2_9  and  C6_10 
REMARK    6  A    between atoms: C12_16  and  O2_17 
REMARK    7  A    between atoms: O2_17  and  C13_18 
ROOT
HETATM    1  N1  UNL     1      23.387   4.939  50.965  1.00  0.00    -0.301 N 
HETATM    2  C1  UNL     1      23.895   6.024  50.142  1.00  0.00     0.139 C 
HETATM    3  C2  UNL     1      25.358   5.747  49.820  1.00  0.00     0.027 C 
HETATM    4  C3  UNL     1      25.398   4.314  49.314  1.00  0.00     0.071 C 
HETATM    5  C4  UNL     1      25.206   3.430  50.497  1.00  0.00     0.100 C 
HETATM    6  C12 UNL     1      24.181   3.796  51.287  1.00  0.00     0.185 C 
ENDROOT
BRANCH   5   7
HETATM    7  O1  UNL     1      25.865   2.312  50.946  1.00  0.00    -0.332 OA
BRANCH   7   8
HETATM    8  C5  UNL     1      27.045   2.441  51.694  1.00  0.00     0.298 C 
BRANCH   8   9
HETATM    9  N2  UNL     1      26.966   1.669  52.924  1.00  0.00    -0.368 N 
HETATM   10  H10 UNL     1      26.330   2.006  53.692  1.00  0.00     0.161 HD
BRANCH   9  11
HETATM   11  C6  UNL     1      27.730   0.486  53.086  1.00  0.00     0.029 A 
HETATM   12  C7  UNL     1      28.995   0.539  53.594  1.00  0.00     0.029 A 
HETATM   13  C8  UNL     1      29.722  -0.638  53.741  1.00  0.00     0.002 A 
HETATM   14  C9  UNL     1      29.166  -1.868  53.372  1.00  0.00     0.000 A 
HETATM   15  C10 UNL     1      27.888  -1.925  52.858  1.00  0.00     0.002 A 
HETATM   16  C11 UNL     1      27.190  -0.727  52.726  1.00  0.00     0.029 A 
ENDBRANCH   9  11
ENDBRANCH   8   9
ENDBRANCH   7   8
ENDBRANCH   5   7
BRANCH   6  17
HETATM   17  O2  UNL     1      23.829   3.099  52.451  1.00  0.00    -0.291 OA
BRANCH  17  18
HETATM   18  C13 UNL     1      23.138   1.902  52.420  1.00  0.00     0.079 A 
HETATM   19  C14 UNL     1      22.221   1.500  51.461  1.00  0.00     0.037 A 
HETATM   20  C15 UNL     1      21.608   0.262  51.569  1.00  0.00     0.004 A 
HETATM   21  C16 UNL     1      21.886  -0.601  52.624  1.00  0.00     0.024 A 
HETATM   22  C17 UNL     1      22.812  -0.192  53.590  1.00  0.00     0.036 A 
HETATM   23 CL1  UNL     1      23.184  -1.273  54.943  1.00  0.00    -0.084 Cl
HETATM   24  C18 UNL     1      23.424   1.040  53.484  1.00  0.00     0.061 A 
ENDBRANCH  17  18
ENDBRANCH   6  17
BRANCH   1  25
HETATM   25  S1  UNL     1      21.725   5.100  51.558  1.00  0.00    -0.064 SA
HETATM   26  H1  UNL     1      21.788   5.358  52.932  1.00  0.00     0.126 HD
ENDBRANCH   1  25
TORSDOF 7
ENDMDL
MODEL 8
REMARK VINA RESULT:      -7.0      4.195      5.950
REMARK  7 active torsions:
REMARK  status: ('A' for Active; 'I' for Inactive)
REMARK    1  A    between atoms: S1_1  and  N1_2 
REMARK    2  A    between atoms: C4_6  and  O1_7 
REMARK    3  A    between atoms: O1_7  and  C5_8 
REMARK    4  A    between atoms: C5_8  and  N2_9 
REMARK    5  A    between atoms: N2_9  and  C6_10 
REMARK    6  A    between atoms: C12_16  and  O2_17 
REMARK    7  A    between atoms: O2_17  and  C13_18 
ROOT
HETATM    1  N1  UNL     1      22.559   4.240  48.584  1.00  0.00    -0.301 N 
HETATM    2  C1  UNL     1      22.017   3.045  47.959  1.00  0.00     0.139 C 
HETATM    3  C2  UNL     1      22.364   1.842  48.826  1.00  0.00     0.027 C 
HETATM    4  C3  UNL     1      21.951   2.226  50.238  1.00  0.00     0.071 C 
HETATM    5  C4  UNL     1      22.949   3.216  50.729  1.00  0.00     0.100 C 
HETATM    6  C12 UNL     1      23.213   4.202  49.854  1.00  0.00     0.185 C 
ENDROOT
BRANCH   5   7
HETATM    7  O1  UNL     1      23.659   3.326  51.899  1.00  0.00    -0.332 OA
BRANCH   7   8
HETATM    8  C5  UNL     1      24.567   2.323  52.272  1.00  0.00     0.298 C 
BRANCH   8   9
HETATM    9  N2  UNL     1      25.623   2.867  53.112  1.00  0.00    -0.368 N 
HETATM   10  H10 UNL     1      25.605   3.892  53.347  1.00  0.00     0.161 HD
BRANCH   9  11
HETATM   11  C6  UNL     1      26.657   2.031  53.604  1.00  0.00     0.029 A 
HETATM   12  C7  UNL     1      27.965   2.317  53.345  1.00  0.00     0.029 A 
HETATM   13  C8  UNL     1      28.959   1.478  53.840  1.00  0.00     0.002 A 
HETATM   14  C9  UNL     1      28.625   0.350  54.598  1.00  0.00     0.000 A 
HETATM   15  C10 UNL     1      27.304   0.057  54.860  1.00  0.00     0.002 A 
HETATM   16  C11 UNL     1      26.336   0.920  54.349  1.00  0.00     0.029 A 
ENDBRANCH   9  11
ENDBRANCH   8   9
ENDBRANCH   7   8
ENDBRANCH   5   7
BRANCH   6  17
HETATM   17  O2  UNL     1      24.122   5.235  50.119  1.00  0.00    -0.291 OA
BRANCH  17  18
HETATM   18  C13 UNL     1      25.387   5.272  49.563  1.00  0.00     0.079 A 
HETATM   19  C14 UNL     1      26.271   4.211  49.445  1.00  0.00     0.037 A 
HETATM   20  C15 UNL     1      27.512   4.408  48.860  1.00  0.00     0.004 A 
HETATM   21  C16 UNL     1      27.903   5.654  48.380  1.00  0.00     0.024 A 
HETATM   22  C17 UNL     1      27.008   6.724  48.501  1.00  0.00     0.036 A 
HETATM   23 CL1  UNL     1      27.482   8.320  47.899  1.00  0.00    -0.084 Cl
HETATM   24  C18 UNL     1      25.773   6.528  49.083  1.00  0.00     0.061 A 
ENDBRANCH  17  18
ENDBRANCH   6  17
BRANCH   1  25
HETATM   25  S1  UNL     1      22.372   5.760  47.692  1.00  0.00    -0.064 SA
HETATM   26  H1  UNL     1      21.835   6.706  48.574  1.00  0.00     0.126 HD
ENDBRANCH   1  25
TORSDOF 7
ENDMDL
MODEL 9
REMARK VINA RESULT:      -6.8      8.712     10.042
REMARK  7 active torsions:
REMARK  status: ('A' for Active; 'I' for Inactive)
REMARK    1  A    between atoms: S1_1  and  N1_2 
REMARK    2  A    between atoms: C4_6  and  O1_7 
REMARK    3  A    between atoms: O1_7  and  C5_8 
REMARK    4  A    between atoms: C5_8  and  N2_9 
REMARK    5  A    between atoms: N2_9  and  C6_10 
REMARK    6  A    between atoms: C12_16  and  O2_17 
REMARK    7  A    between atoms: O2_17  and  C13_18 
ROOT
HETATM    1  N1  UNL     1      30.367   8.809  46.676  1.00  0.00    -0.301 N 
HETATM    2  C1  UNL     1      30.688  10.171  47.070  1.00  0.00     0.139 C 
HETATM    3  C2  UNL     1      31.087  10.172  48.540  1.00  0.00     0.027 C 
HETATM    4  C3  UNL     1      32.121   9.067  48.680  1.00  0.00     0.071 C 
HETATM    5  C4  UNL     1      31.389   7.773  48.595  1.00  0.00     0.100 C 
HETATM    6  C12 UNL     1      30.523   7.705  47.569  1.00  0.00     0.185 C 
ENDROOT
BRANCH   5   7
HETATM    7  O1  UNL     1      31.420   6.630  49.356  1.00  0.00    -0.332 OA
BRANCH   7   8
HETATM    8  C5  UNL     1      32.573   5.831  49.385  1.00  0.00     0.298 C 
BRANCH   8   9
HETATM    9  N2  UNL     1      32.406   4.650  48.551  1.00  0.00    -0.368 N 
HETATM   10  H10 UNL     1      31.646   3.964  48.793  1.00  0.00     0.161 HD
BRANCH   9  11
HETATM   11  C6  UNL     1      33.251   4.430  47.434  1.00  0.00     0.029 A 
HETATM   12  C7  UNL     1      34.240   3.492  47.485  1.00  0.00     0.029 A 
HETATM   13  C8  UNL     1      35.055   3.297  46.374  1.00  0.00     0.002 A 
HETATM   14  C9  UNL     1      34.866   4.054  45.213  1.00  0.00     0.000 A 
HETATM   15  C10 UNL     1      33.868   5.003  45.158  1.00  0.00     0.002 A 
HETATM   16  C11 UNL     1      33.071   5.170  46.289  1.00  0.00     0.029 A 
ENDBRANCH   9  11
ENDBRANCH   8   9
ENDBRANCH   7   8
ENDBRANCH   5   7
BRANCH   6  17
HETATM   17  O2  UNL     1      29.735   6.576  47.310  1.00  0.00    -0.291 OA
BRANCH  17  18
HETATM   18  C13 UNL     1      28.461   6.424  47.826  1.00  0.00     0.079 A 
HETATM   19  C14 UNL     1      27.454   7.376  47.837  1.00  0.00     0.037 A 
HETATM   20  C15 UNL     1      26.222   7.070  48.394  1.00  0.00     0.004 A 
HETATM   21  C16 UNL     1      25.962   5.822  48.952  1.00  0.00     0.024 A 
HETATM   22  C17 UNL     1      26.982   4.864  48.939  1.00  0.00     0.036 A 
HETATM   23 CL1  UNL     1      26.677   3.268  49.643  1.00  0.00    -0.084 Cl
HETATM   24  C18 UNL     1      28.208   5.167  48.384  1.00  0.00     0.061 A 
ENDBRANCH  17  18
ENDBRANCH   6  17
BRANCH   1  25
HETATM   25  S1  UNL     1      29.766   8.578  45.025  1.00  0.00    -0.064 SA
HETATM   26  H1  UNL     1      29.569   7.205  44.834  1.00  0.00     0.126 HD
ENDBRANCH   1  25
TORSDOF 7
ENDMDL
