MODEL 1
REMARK VINA RESULT:      -7.6      0.000      0.000
REMARK  6 active torsions:
REMARK  status: ('A' for Active; 'I' for Inactive)
REMARK    1  A    between atoms: O1_2  and  C2_3 
REMARK    2  A    between atoms: C10_12  and  C11_13 
REMARK    3  A    between atoms: C16_20  and  N2_21 
REMARK    4  A    between atoms: C17_22  and  O3_23 
REMARK    5  A    between atoms: O3_23  and  C18_24 
REMARK    6  A    between atoms: C18_24  and  O5_26 
ROOT
HETATM    1  C2  UNL     1      30.420  10.754  48.384  1.00  0.00     0.076 C 
HETATM    2  C3  UNL     1      30.759  10.723  47.121  1.00  0.00     0.010 C 
HETATM    3  C4  UNL     1      30.989   9.620  46.152  1.00  0.00     0.067 C 
HETATM    4  C5  UNL     1      31.452   8.387  46.893  1.00  0.00     0.248 A 
HETATM    5  C6  UNL     1      32.147   8.867  48.149  1.00  0.00     0.159 A 
HETATM    6  S1  UNL     1      33.553   7.790  48.485  1.00  0.00    -0.118 SA
HETATM    7  C7  UNL     1      33.056   6.128  48.015  1.00  0.00     0.007 A 
HETATM    8  C8  UNL     1      34.291   5.617  47.650  1.00  0.00     0.020 A 
HETATM    9  C9  UNL     1      34.387   4.299  47.200  1.00  0.00     0.016 A 
HETATM   10  C10 UNL     1      33.297   3.467  47.098  1.00  0.00     0.002 A 
HETATM   11  C12 UNL     1      32.084   4.011  47.469  1.00  0.00     0.023 A 
HETATM   12  C13 UNL     1      31.919   5.324  47.929  1.00  0.00    -0.039 A 
HETATM   13  C14 UNL     1      30.491   5.519  48.220  1.00  0.00     0.070 C 
HETATM   14  C15 UNL     1      29.869   6.677  47.533  1.00  0.00     0.281 C 
HETATM   15  N1  UNL     1      30.373   7.942  47.708  1.00  0.00     0.139 N 
HETATM   16  C16 UNL     1      30.896   8.406  48.912  1.00  0.00     0.395 A 
HETATM   17  C17 UNL     1      30.093   9.648  49.325  1.00  0.00     0.262 C 
ENDROOT
BRANCH  17  18
HETATM   18  O3  UNL     1      28.741   9.292  49.092  1.00  0.00    -0.281 OA
BRANCH  18  19
HETATM   19  C18 UNL     1      27.708   9.718  49.912  1.00  0.00     0.299 C 
HETATM   20  O4  UNL     1      26.749  10.397  49.461  1.00  0.00    -0.626 OA
BRANCH  19  21
HETATM   21  O5  UNL     1      27.605   9.465  51.273  1.00  0.00    -0.754 OA
HETATM   22  H20 UNL     1      28.293   8.825  51.675  1.00  0.00     0.170 HD
ENDBRANCH  19  21
ENDBRANCH  18  19
ENDBRANCH  17  18
BRANCH   1  23
HETATM   23  O1  UNL     1      30.364  12.043  48.900  1.00  0.00    -0.358 OA
HETATM   24  C1  UNL     1      29.279  12.913  48.811  1.00  0.00     0.209 C 
ENDBRANCH   1  23
BRANCH  16  25
HETATM   25  N2  UNL     1      31.273   7.523  49.950  1.00  0.00     0.123 N 
HETATM   26  H17 UNL     1      30.812   6.595  49.897  1.00  0.00     0.316 HD
HETATM   27  H18 UNL     1      32.278   7.484  50.172  1.00  0.00     0.316 HD
ENDBRANCH  16  25
BRANCH  10  28
HETATM   28  C11 UNL     1      33.360   2.102  46.637  1.00  0.00     0.269 C 
HETATM   29  O2  UNL     1      32.429   1.264  46.870  1.00  0.00    -0.301 OA
ENDBRANCH  10  28
TORSDOF 6
ENDMDL
MODEL 2
REMARK VINA RESULT:      -7.2     11.482     13.013
REMARK  6 active torsions:
REMARK  status: ('A' for Active; 'I' for Inactive)
REMARK    1  A    between atoms: O1_2  and  C2_3 
REMARK    2  A    between atoms: C10_12  and  C11_13 
REMARK    3  A    between atoms: C16_20  and  N2_21 
REMARK    4  A    between atoms: C17_22  and  O3_23 
REMARK    5  A    between atoms: O3_23  and  C18_24 
REMARK    6  A    between atoms: C18_24  and  O5_26 
ROOT
HETATM    1  C2  UNL     1      18.962   1.442  50.532  1.00  0.00     0.076 C 
HETATM    2  C3  UNL     1      19.816   1.349  49.545  1.00  0.00     0.010 C 
HETATM    3  C4  UNL     1      21.208   0.841  49.444  1.00  0.00     0.067 C 
HETATM    4  C5  UNL     1      21.901   0.999  50.777  1.00  0.00     0.248 A 
HETATM    5  C6  UNL     1      21.238   2.166  51.478  1.00  0.00     0.159 A 
HETATM    6  S1  UNL     1      22.492   3.088  52.387  1.00  0.00    -0.118 SA
HETATM    7  C7  UNL     1      23.660   1.881  53.027  1.00  0.00     0.007 A 
HETATM    8  C8  UNL     1      24.806   2.658  53.037  1.00  0.00     0.020 A 
HETATM    9  C9  UNL     1      26.010   2.107  53.480  1.00  0.00     0.016 A 
HETATM   10  C10 UNL     1      26.117   0.807  53.913  1.00  0.00     0.002 A 
HETATM   11  C12 UNL     1      24.954   0.063  53.888  1.00  0.00     0.023 A 
HETATM   12  C13 UNL     1      23.716   0.555  53.457  1.00  0.00    -0.039 A 
HETATM   13  C14 UNL     1      22.735  -0.533  53.581  1.00  0.00     0.070 C 
HETATM   14  C15 UNL     1      21.989  -0.844  52.337  1.00  0.00     0.281 C 
HETATM   15  N1  UNL     1      21.258   0.130  51.704  1.00  0.00     0.139 N 
HETATM   16  C16 UNL     1      20.551   1.125  52.374  1.00  0.00     0.395 A 
HETATM   17  C17 UNL     1      19.078   1.018  51.954  1.00  0.00     0.262 C 
ENDROOT
BRANCH  17  18
HETATM   18  O3  UNL     1      18.795  -0.371  51.996  1.00  0.00    -0.281 OA
BRANCH  18  19
HETATM   19  C18 UNL     1      17.738  -0.892  52.725  1.00  0.00     0.299 C 
HETATM   20  O4  UNL     1      16.606  -1.068  52.205  1.00  0.00    -0.626 OA
BRANCH  19  21
HETATM   21  O5  UNL     1      17.789  -1.268  54.060  1.00  0.00    -0.754 OA
HETATM   22  H20 UNL     1      18.254  -2.153  54.270  1.00  0.00     0.170 HD
ENDBRANCH  19  21
ENDBRANCH  18  19
ENDBRANCH  17  18
BRANCH   1  23
HETATM   23  O1  UNL     1      17.763   2.037  50.159  1.00  0.00    -0.358 OA
HETATM   24  C1  UNL     1      16.673   1.389  49.583  1.00  0.00     0.209 C 
ENDBRANCH   1  23
BRANCH  16  25
HETATM   25  N2  UNL     1      20.801   1.430  53.732  1.00  0.00     0.123 N 
HETATM   26  H17 UNL     1      20.018   1.183  54.366  1.00  0.00     0.316 HD
HETATM   27  H18 UNL     1      21.732   1.178  54.091  1.00  0.00     0.316 HD
ENDBRANCH  16  25
BRANCH  10  28
HETATM   28  C11 UNL     1      27.343   0.205  54.376  1.00  0.00     0.269 C 
HETATM   29  O2  UNL     1      28.250   0.879  54.963  1.00  0.00    -0.301 OA
ENDBRANCH  10  28
TORSDOF 6
ENDMDL
MODEL 3
REMARK VINA RESULT:      -7.2      8.108     10.975
REMARK  6 active torsions:
REMARK  status: ('A' for Active; 'I' for Inactive)
REMARK    1  A    between atoms: O1_2  and  C2_3 
REMARK    2  A    between atoms: C10_12  and  C11_13 
REMARK    3  A    between atoms: C16_20  and  N2_21 
REMARK    4  A    between atoms: C17_22  and  O3_23 
REMARK    5  A    between atoms: O3_23  and  C18_24 
REMARK    6  A    between atoms: C18_24  and  O5_26 
ROOT
HETATM    1  C2  UNL     1      27.495  -0.412  53.378  1.00  0.00     0.076 C 
HETATM    2  C3  UNL     1      28.357   0.553  53.573  1.00  0.00     0.010 C 
HETATM    3  C4  UNL     1      28.235   2.032  53.647  1.00  0.00     0.067 C 
HETATM    4  C5  UNL     1      27.060   2.482  52.810  1.00  0.00     0.248 A 
HETATM    5  C6  UNL     1      26.878   1.449  51.719  1.00  0.00     0.159 A 
HETATM    6  S1  UNL     1      26.384   2.286  50.201  1.00  0.00    -0.118 SA
HETATM    7  C7  UNL     1      25.309   3.643  50.684  1.00  0.00     0.007 A 
HETATM    8  C8  UNL     1      25.589   4.529  49.656  1.00  0.00     0.020 A 
HETATM    9  C9  UNL     1      24.951   5.771  49.622  1.00  0.00     0.016 A 
HETATM   10  C10 UNL     1      24.045   6.166  50.577  1.00  0.00     0.002 A 
HETATM   11  C12 UNL     1      23.793   5.257  51.585  1.00  0.00     0.023 A 
HETATM   12  C13 UNL     1      24.396   3.997  51.677  1.00  0.00    -0.039 A 
HETATM   13  C14 UNL     1      23.870   3.335  52.880  1.00  0.00     0.070 C 
HETATM   14  C15 UNL     1      24.904   2.863  53.832  1.00  0.00     0.281 C 
HETATM   15  N1  UNL     1      25.876   1.984  53.424  1.00  0.00     0.139 N 
HETATM   16  C16 UNL     1      25.655   0.958  52.509  1.00  0.00     0.395 A 
HETATM   17  C17 UNL     1      26.019  -0.367  53.194  1.00  0.00     0.262 C 
ENDROOT
BRANCH  17  18
HETATM   18  O3  UNL     1      25.442  -0.271  54.485  1.00  0.00    -0.281 OA
BRANCH  18  19
HETATM   19  C18 UNL     1      24.255  -0.905  54.818  1.00  0.00     0.299 C 
HETATM   20  O4  UNL     1      23.250  -0.853  54.064  1.00  0.00    -0.626 OA
BRANCH  19  21
HETATM   21  O5  UNL     1      24.034  -1.642  55.972  1.00  0.00    -0.754 OA
HETATM   22  H20 UNL     1      24.706  -1.520  56.732  1.00  0.00     0.170 HD
ENDBRANCH  19  21
ENDBRANCH  18  19
ENDBRANCH  17  18
BRANCH   1  23
HETATM   23  O1  UNL     1      28.086  -1.670  53.346  1.00  0.00    -0.358 OA
HETATM   24  C1  UNL     1      29.449  -1.937  53.457  1.00  0.00     0.209 C 
ENDBRANCH   1  23
BRANCH  16  25
HETATM   25  N2  UNL     1      24.521   0.944  51.665  1.00  0.00     0.123 N 
HETATM   26  H17 UNL     1      24.378   0.042  51.173  1.00  0.00     0.316 HD
HETATM   27  H18 UNL     1      23.660   1.355  52.052  1.00  0.00     0.316 HD
ENDBRANCH  16  25
BRANCH  10  28
HETATM   28  C11 UNL     1      23.368   7.440  50.575  1.00  0.00     0.269 C 
HETATM   29  O2  UNL     1      22.123   7.547  50.819  1.00  0.00    -0.301 OA
ENDBRANCH  10  28
TORSDOF 6
ENDMDL
MODEL 4
REMARK VINA RESULT:      -7.2      8.509     11.017
REMARK  6 active torsions:
REMARK  status: ('A' for Active; 'I' for Inactive)
REMARK    1  A    between atoms: O1_2  and  C2_3 
REMARK    2  A    between atoms: C10_12  and  C11_13 
REMARK    3  A    between atoms: C16_20  and  N2_21 
REMARK    4  A    between atoms: C17_22  and  O3_23 
REMARK    5  A    between atoms: O3_23  and  C18_24 
REMARK    6  A    between atoms: C18_24  and  O5_26 
ROOT
HETATM    1  C2  UNL     1      22.504   0.429  53.187  1.00  0.00     0.076 C 
HETATM    2  C3  UNL     1      21.815   0.467  52.076  1.00  0.00     0.010 C 
HETATM    3  C4  UNL     1      22.071   1.053  50.735  1.00  0.00     0.067 C 
HETATM    4  C5  UNL     1      22.987   2.246  50.872  1.00  0.00     0.248 A 
HETATM    5  C6  UNL     1      22.765   2.810  52.260  1.00  0.00     0.159 A 
HETATM    6  S1  UNL     1      22.866   4.608  52.180  1.00  0.00    -0.118 SA
HETATM    7  C7  UNL     1      24.139   5.003  50.974  1.00  0.00     0.007 A 
HETATM    8  C8  UNL     1      23.647   6.213  50.515  1.00  0.00     0.020 A 
HETATM    9  C9  UNL     1      24.345   6.912  49.527  1.00  0.00     0.016 A 
HETATM   10  C10 UNL     1      25.517   6.448  48.977  1.00  0.00     0.002 A 
HETATM   11  C12 UNL     1      25.974   5.239  49.460  1.00  0.00     0.023 A 
HETATM   12  C13 UNL     1      25.324   4.490  50.448  1.00  0.00    -0.039 A 
HETATM   13  C14 UNL     1      26.119   3.276  50.685  1.00  0.00     0.070 C 
HETATM   14  C15 UNL     1      25.369   2.004  50.548  1.00  0.00     0.281 C 
HETATM   15  N1  UNL     1      24.254   1.769  51.313  1.00  0.00     0.139 N 
HETATM   16  C16 UNL     1      24.119   2.191  52.634  1.00  0.00     0.395 A 
HETATM   17  C17 UNL     1      23.864   0.949  53.500  1.00  0.00     0.262 C 
ENDROOT
BRANCH  17  18
HETATM   18  O3  UNL     1      24.793  -0.012  53.027  1.00  0.00    -0.281 OA
BRANCH  18  19
HETATM   19  C18 UNL     1      25.608  -0.739  53.880  1.00  0.00     0.299 C 
HETATM   20  O4  UNL     1      25.342  -0.853  55.104  1.00  0.00    -0.626 OA
BRANCH  19  21
HETATM   21  O5  UNL     1      26.770  -1.403  53.511  1.00  0.00    -0.754 OA
HETATM   22  H20 UNL     1      26.657  -2.322  53.081  1.00  0.00     0.170 HD
ENDBRANCH  19  21
ENDBRANCH  18  19
ENDBRANCH  17  18
BRANCH   1  23
HETATM   23  O1  UNL     1      21.831  -0.207  54.223  1.00  0.00    -0.358 OA
HETATM   24  C1  UNL     1      21.873  -1.570  54.510  1.00  0.00     0.209 C 
ENDBRANCH   1  23
BRANCH  16  25
HETATM   25  N2  UNL     1      24.958   3.186  53.187  1.00  0.00     0.123 N 
HETATM   26  H17 UNL     1      24.895   3.257  54.220  1.00  0.00     0.316 HD
HETATM   27  H18 UNL     1      25.919   3.228  52.818  1.00  0.00     0.316 HD
ENDBRANCH  16  25
BRANCH  10  28
HETATM   28  C11 UNL     1      26.263   7.142  47.956  1.00  0.00     0.269 C 
HETATM   29  O2  UNL     1      27.519   6.987  47.811  1.00  0.00    -0.301 OA
ENDBRANCH  10  28
TORSDOF 6
ENDMDL
MODEL 5
REMARK VINA RESULT:      -7.1      8.830     10.227
REMARK  6 active torsions:
REMARK  status: ('A' for Active; 'I' for Inactive)
REMARK    1  A    between atoms: O1_2  and  C2_3 
REMARK    2  A    between atoms: C10_12  and  C11_13 
REMARK    3  A    between atoms: C16_20  and  N2_21 
REMARK    4  A    between atoms: C17_22  and  O3_23 
REMARK    5  A    between atoms: O3_23  and  C18_24 
REMARK    6  A    between atoms: C18_24  and  O5_26 
ROOT
HETATM    1  C2  UNL     1      21.021   4.590  48.819  1.00  0.00     0.076 C 
HETATM    2  C3  UNL     1      21.591   3.872  47.885  1.00  0.00     0.010 C 
HETATM    3  C4  UNL     1      22.388   2.619  47.904  1.00  0.00     0.067 C 
HETATM    4  C5  UNL     1      23.108   2.500  49.227  1.00  0.00     0.248 A 
HETATM    5  C6  UNL     1      23.320   3.909  49.738  1.00  0.00     0.159 A 
HETATM    6  S1  UNL     1      24.923   3.995  50.557  1.00  0.00    -0.118 SA
HETATM    7  C7  UNL     1      25.161   2.424  51.398  1.00  0.00     0.007 A 
HETATM    8  C8  UNL     1      26.543   2.346  51.343  1.00  0.00     0.020 A 
HETATM    9  C9  UNL     1      27.195   1.243  51.900  1.00  0.00     0.016 A 
HETATM   10  C10 UNL     1      26.520   0.212  52.510  1.00  0.00     0.002 A 
HETATM   11  C12 UNL     1      25.145   0.326  52.544  1.00  0.00     0.023 A 
HETATM   12  C13 UNL     1      24.431   1.404  52.006  1.00  0.00    -0.039 A 
HETATM   13  C14 UNL     1      23.001   1.156  52.242  1.00  0.00     0.070 C 
HETATM   14  C15 UNL     1      22.153   1.200  51.026  1.00  0.00     0.281 C 
HETATM   15  N1  UNL     1      22.123   2.324  50.240  1.00  0.00     0.139 N 
HETATM   16  C16 UNL     1      22.194   3.621  50.742  1.00  0.00     0.395 A 
HETATM   17  C17 UNL     1      20.934   4.371  50.289  1.00  0.00     0.262 C 
ENDROOT
BRANCH  17  18
HETATM   18  O3  UNL     1      19.875   3.455  50.510  1.00  0.00    -0.281 OA
BRANCH  18  19
HETATM   19  C18 UNL     1      19.164   3.414  51.698  1.00  0.00     0.299 C 
HETATM   20  O4  UNL     1      19.680   2.973  52.757  1.00  0.00    -0.626 OA
BRANCH  19  21
HETATM   21  O5  UNL     1      17.852   3.835  51.865  1.00  0.00    -0.754 OA
HETATM   22  H20 UNL     1      17.122   3.217  51.505  1.00  0.00     0.170 HD
ENDBRANCH  19  21
ENDBRANCH  18  19
ENDBRANCH  17  18
BRANCH   1  23
HETATM   23  O1  UNL     1      20.404   5.733  48.325  1.00  0.00    -0.358 OA
HETATM   24  C1  UNL     1      19.888   6.778  49.088  1.00  0.00     0.209 C 
ENDBRANCH   1  23
BRANCH  16  25
HETATM   25  N2  UNL     1      22.651   3.887  52.054  1.00  0.00     0.123 N 
HETATM   26  H17 UNL     1      23.565   4.377  52.086  1.00  0.00     0.316 HD
HETATM   27  H18 UNL     1      21.951   4.254  52.714  1.00  0.00     0.316 HD
ENDBRANCH  16  25
BRANCH  10  28
HETATM   28  C11 UNL     1      27.159  -0.941  53.094  1.00  0.00     0.269 C 
HETATM   29  O2  UNL     1      27.929  -0.850  54.105  1.00  0.00    -0.301 OA
ENDBRANCH  10  28
TORSDOF 6
ENDMDL
MODEL 6
REMARK VINA RESULT:      -7.1      8.922     10.655
REMARK  6 active torsions:
REMARK  status: ('A' for Active; 'I' for Inactive)
REMARK    1  A    between atoms: O1_2  and  C2_3 
REMARK    2  A    between atoms: C10_12  and  C11_13 
REMARK    3  A    between atoms: C16_20  and  N2_21 
REMARK    4  A    between atoms: C17_22  and  O3_23 
REMARK    5  A    between atoms: O3_23  and  C18_24 
REMARK    6  A    between atoms: C18_24  and  O5_26 
ROOT
HETATM    1  C2  UNL     1      23.568   5.961  49.532  1.00  0.00     0.076 C 
HETATM    2  C3  UNL     1      22.827   6.386  50.523  1.00  0.00     0.010 C 
HETATM    3  C4  UNL     1      22.410   5.786  51.817  1.00  0.00     0.067 C 
HETATM    4  C5  UNL     1      22.368   4.282  51.684  1.00  0.00     0.248 A 
HETATM    5  C6  UNL     1      22.090   3.979  50.227  1.00  0.00     0.159 A 
HETATM    6  S1  UNL     1      21.013   2.537  50.128  1.00  0.00    -0.118 SA
HETATM    7  C7  UNL     1      21.506   1.429  51.454  1.00  0.00     0.007 A 
HETATM    8  C8  UNL     1      20.287   0.822  51.707  1.00  0.00     0.020 A 
HETATM    9  C9  UNL     1      20.194  -0.152  52.703  1.00  0.00     0.016 A 
HETATM   10  C10 UNL     1      21.272  -0.545  53.461  1.00  0.00     0.002 A 
HETATM   11  C12 UNL     1      22.469   0.083  53.180  1.00  0.00     0.023 A 
HETATM   12  C13 UNL     1      22.630   1.065  52.195  1.00  0.00    -0.039 A 
HETATM   13  C14 UNL     1      24.041   1.482  52.205  1.00  0.00     0.070 C 
HETATM   14  C15 UNL     1      24.257   2.940  52.368  1.00  0.00     0.281 C 
HETATM   15  N1  UNL     1      23.703   3.829  51.482  1.00  0.00     0.139 N 
HETATM   16  C16 UNL     1      23.569   3.579  50.118  1.00  0.00     0.395 A 
HETATM   17  C17 UNL     1      24.318   4.686  49.363  1.00  0.00     0.262 C 
ENDROOT
BRANCH  17  18
HETATM   18  O3  UNL     1      25.543   4.830  50.063  1.00  0.00    -0.281 OA
BRANCH  18  19
HETATM   19  C18 UNL     1      26.720   4.243  49.627  1.00  0.00     0.299 C 
HETATM   20  O4  UNL     1      26.804   3.003  49.437  1.00  0.00    -0.626 OA
BRANCH  19  21
HETATM   21  O5  UNL     1      27.903   4.918  49.358  1.00  0.00    -0.754 OA
HETATM   22  H20 UNL     1      28.560   4.458  48.725  1.00  0.00     0.170 HD
ENDBRANCH  19  21
ENDBRANCH  18  19
ENDBRANCH  17  18
BRANCH   1  23
HETATM   23  O1  UNL     1      23.649   6.871  48.485  1.00  0.00    -0.358 OA
HETATM   24  C1  UNL     1      24.550   7.929  48.389  1.00  0.00     0.209 C 
ENDBRANCH   1  23
BRANCH  16  25
HETATM   25  N2  UNL     1      23.668   2.272  49.587  1.00  0.00     0.123 N 
HETATM   26  H17 UNL     1      22.782   1.918  49.182  1.00  0.00     0.316 HD
HETATM   27  H18 UNL     1      24.502   2.075  49.016  1.00  0.00     0.316 HD
ENDBRANCH  16  25
BRANCH  10  28
HETATM   28  C11 UNL     1      21.213  -1.546  54.498  1.00  0.00     0.269 C 
HETATM   29  O2  UNL     1      22.180  -1.747  55.301  1.00  0.00    -0.301 OA
ENDBRANCH  10  28
TORSDOF 6
ENDMDL
MODEL 7
REMARK VINA RESULT:      -6.9      7.715      9.091
REMARK  6 active torsions:
REMARK  status: ('A' for Active; 'I' for Inactive)
REMARK    1  A    between atoms: O1_2  and  C2_3 
REMARK    2  A    between atoms: C10_12  and  C11_13 
REMARK    3  A    between atoms: C16_20  and  N2_21 
REMARK    4  A    between atoms: C17_22  and  O3_23 
REMARK    5  A    between atoms: O3_23  and  C18_24 
REMARK    6  A    between atoms: C18_24  and  O5_26 
ROOT
HETATM    1  C2  UNL     1      22.748   5.885  48.240  1.00  0.00     0.076 C 
HETATM    2  C3  UNL     1      22.642   4.748  47.601  1.00  0.00     0.010 C 
HETATM    3  C4  UNL     1      22.635   3.328  48.038  1.00  0.00     0.067 C 
HETATM    4  C5  UNL     1      23.436   3.188  49.311  1.00  0.00     0.248 A 
HETATM    5  C6  UNL     1      24.466   4.298  49.304  1.00  0.00     0.159 A 
HETATM    6  S1  UNL     1      25.998   3.675  50.020  1.00  0.00    -0.118 SA
HETATM    7  C7  UNL     1      25.532   2.554  51.345  1.00  0.00     0.007 A 
HETATM    8  C8  UNL     1      26.614   1.690  51.301  1.00  0.00     0.020 A 
HETATM    9  C9  UNL     1      26.679   0.617  52.192  1.00  0.00     0.016 A 
HETATM   10  C10 UNL     1      25.702   0.371  53.129  1.00  0.00     0.002 A 
HETATM   11  C12 UNL     1      24.640   1.252  53.142  1.00  0.00     0.023 A 
HETATM   12  C13 UNL     1      24.516   2.347  52.277  1.00  0.00    -0.039 A 
HETATM   13  C14 UNL     1      23.258   3.035  52.605  1.00  0.00     0.070 C 
HETATM   14  C15 UNL     1      22.333   3.219  51.460  1.00  0.00     0.281 C 
HETATM   15  N1  UNL     1      22.744   3.891  50.337  1.00  0.00     0.139 N 
HETATM   16  C16 UNL     1      23.596   4.992  50.362  1.00  0.00     0.395 A 
HETATM   17  C17 UNL     1      22.865   6.168  49.697  1.00  0.00     0.262 C 
ENDROOT
BRANCH  17  18
HETATM   18  O3  UNL     1      21.554   6.122  50.235  1.00  0.00    -0.281 OA
BRANCH  18  19
HETATM   19  C18 UNL     1      20.604   7.092  49.958  1.00  0.00     0.299 C 
HETATM   20  O4  UNL     1      20.882   8.318  50.012  1.00  0.00    -0.626 OA
BRANCH  19  21
HETATM   21  O5  UNL     1      19.285   6.848  49.604  1.00  0.00    -0.754 OA
HETATM   22  H20 UNL     1      18.972   5.876  49.638  1.00  0.00     0.170 HD
ENDBRANCH  19  21
ENDBRANCH  18  19
ENDBRANCH  17  18
BRANCH   1  23
HETATM   23  O1  UNL     1      22.747   6.987  47.393  1.00  0.00    -0.358 OA
HETATM   24  C1  UNL     1      23.822   7.842  47.163  1.00  0.00     0.209 C 
ENDBRANCH   1  23
BRANCH  16  25
HETATM   25  N2  UNL     1      24.384   5.298  51.497  1.00  0.00     0.123 N 
HETATM   26  H17 UNL     1      25.373   5.514  51.271  1.00  0.00     0.316 HD
HETATM   27  H18 UNL     1      23.960   5.931  52.188  1.00  0.00     0.316 HD
ENDBRANCH  16  25
BRANCH  10  28
HETATM   28  C11 UNL     1      25.735  -0.727  54.064  1.00  0.00     0.269 C 
HETATM   29  O2  UNL     1      25.997  -0.558  55.299  1.00  0.00    -0.301 OA
ENDBRANCH  10  28
TORSDOF 6
ENDMDL
MODEL 8
REMARK VINA RESULT:      -6.9      2.781      7.081
REMARK  6 active torsions:
REMARK  status: ('A' for Active; 'I' for Inactive)
REMARK    1  A    between atoms: O1_2  and  C2_3 
REMARK    2  A    between atoms: C10_12  and  C11_13 
REMARK    3  A    between atoms: C16_20  and  N2_21 
REMARK    4  A    between atoms: C17_22  and  O3_23 
REMARK    5  A    between atoms: O3_23  and  C18_24 
REMARK    6  A    between atoms: C18_24  and  O5_26 
ROOT
HETATM    1  C2  UNL     1      33.224   4.718  47.347  1.00  0.00     0.076 C 
HETATM    2  C3  UNL     1      32.865   5.104  46.149  1.00  0.00     0.010 C 
HETATM    3  C4  UNL     1      32.173   6.311  45.630  1.00  0.00     0.067 C 
HETATM    4  C5  UNL     1      31.265   6.871  46.700  1.00  0.00     0.248 A 
HETATM    5  C6  UNL     1      30.867   5.711  47.587  1.00  0.00     0.159 A 
HETATM    6  S1  UNL     1      29.153   5.930  48.098  1.00  0.00    -0.118 SA
HETATM    7  C7  UNL     1      28.907   7.694  48.341  1.00  0.00     0.007 A 
HETATM    8  C8  UNL     1      27.561   7.780  48.024  1.00  0.00     0.020 A 
HETATM    9  C9  UNL     1      26.916   9.018  48.079  1.00  0.00     0.016 A 
HETATM   10  C10 UNL     1      27.563  10.177  48.437  1.00  0.00     0.002 A 
HETATM   11  C12 UNL     1      28.903  10.051  48.746  1.00  0.00     0.023 A 
HETATM   12  C13 UNL     1      29.608   8.842  48.711  1.00  0.00    -0.039 A 
HETATM   13  C14 UNL     1      30.998   9.122  49.101  1.00  0.00     0.070 C 
HETATM   14  C15 UNL     1      32.021   8.666  48.130  1.00  0.00     0.281 C 
HETATM   15  N1  UNL     1      32.089   7.347  47.760  1.00  0.00     0.139 N 
HETATM   16  C16 UNL     1      31.839   6.286  48.627  1.00  0.00     0.395 A 
HETATM   17  C17 UNL     1      33.094   5.403  48.662  1.00  0.00     0.262 C 
ENDROOT
BRANCH  17  18
HETATM   18  O3  UNL     1      34.172   6.318  48.762  1.00  0.00    -0.281 OA
BRANCH  18  19
HETATM   19  C18 UNL     1      35.426   5.943  49.217  1.00  0.00     0.299 C 
HETATM   20  O4  UNL     1      36.444   6.645  48.988  1.00  0.00    -0.626 OA
BRANCH  19  21
HETATM   21  O5  UNL     1      35.706   4.798  49.948  1.00  0.00    -0.754 OA
HETATM   22  H20 UNL     1      34.906   4.246  50.263  1.00  0.00     0.170 HD
ENDBRANCH  19  21
ENDBRANCH  18  19
ENDBRANCH  17  18
BRANCH   1  23
HETATM   23  O1  UNL     1      33.822   3.464  47.357  1.00  0.00    -0.358 OA
HETATM   24  C1  UNL     1      33.156   2.240  47.324  1.00  0.00     0.209 C 
ENDBRANCH   1  23
BRANCH  16  25
HETATM   25  N2  UNL     1      31.162   6.472  49.855  1.00  0.00     0.123 N 
HETATM   26  H17 UNL     1      31.795   6.625  50.662  1.00  0.00     0.316 HD
HETATM   27  H18 UNL     1      30.345   7.099  49.834  1.00  0.00     0.316 HD
ENDBRANCH  16  25
BRANCH  10  28
HETATM   28  C11 UNL     1      26.930  11.471  48.504  1.00  0.00     0.269 C 
HETATM   29  O2  UNL     1      27.547  12.507  48.915  1.00  0.00    -0.301 OA
ENDBRANCH  10  28
TORSDOF 6
ENDMDL
MODEL 9
REMARK VINA RESULT:      -6.8     10.363     12.231
REMARK  6 active torsions:
REMARK  status: ('A' for Active; 'I' for Inactive)
REMARK    1  A    between atoms: O1_2  and  C2_3 
REMARK    2  A    between atoms: C10_12  and  C11_13 
REMARK    3  A    between atoms: C16_20  and  N2_21 
REMARK    4  A    between atoms: C17_22  and  O3_23 
REMARK    5  A    between atoms: O3_23  and  C18_24 
REMARK    6  A    between atoms: C18_24  and  O5_26 
ROOT
HETATM    1  C2  UNL     1      23.746   4.776  50.580  1.00  0.00     0.076 C 
HETATM    2  C3  UNL     1      22.925   5.381  51.399  1.00  0.00     0.010 C 
HETATM    3  C4  UNL     1      21.922   4.896  52.382  1.00  0.00     0.067 C 
HETATM    4  C5  UNL     1      21.392   3.552  51.941  1.00  0.00     0.248 A 
HETATM    5  C6  UNL     1      21.519   3.505  50.433  1.00  0.00     0.159 A 
HETATM    6  S1  UNL     1      20.095   2.632  49.756  1.00  0.00    -0.118 SA
HETATM    7  C7  UNL     1      19.697   1.315  50.913  1.00  0.00     0.007 A 
HETATM    8  C8  UNL     1      18.331   1.231  50.698  1.00  0.00     0.020 A 
HETATM    9  C9  UNL     1      17.575   0.299  51.414  1.00  0.00     0.016 A 
HETATM   10  C10 UNL     1      18.130  -0.553  52.338  1.00  0.00     0.002 A 
HETATM   11  C12 UNL     1      19.493  -0.439  52.525  1.00  0.00     0.023 A 
HETATM   12  C13 UNL     1      20.307   0.472  51.841  1.00  0.00    -0.039 A 
HETATM   13  C14 UNL     1      21.686   0.284  52.316  1.00  0.00     0.070 C 
HETATM   14  C15 UNL     1      22.342   1.513  52.823  1.00  0.00     0.281 C 
HETATM   15  N1  UNL     1      22.465   2.618  52.019  1.00  0.00     0.139 N 
HETATM   16  C16 UNL     1      22.706   2.555  50.649  1.00  0.00     0.395 A 
HETATM   17  C17 UNL     1      24.003   3.325  50.365  1.00  0.00     0.262 C 
ENDROOT
BRANCH  17  18
HETATM   18  O3  UNL     1      24.896   2.907  51.383  1.00  0.00    -0.281 OA
BRANCH  18  19
HETATM   19  C18 UNL     1      26.239   2.665  51.141  1.00  0.00     0.299 C 
HETATM   20  O4  UNL     1      26.741   1.523  51.308  1.00  0.00    -0.626 OA
BRANCH  19  21
HETATM   21  O5  UNL     1      27.160   3.606  50.703  1.00  0.00    -0.754 OA
HETATM   22  H20 UNL     1      28.090   3.261  50.461  1.00  0.00     0.170 HD
ENDBRANCH  19  21
ENDBRANCH  18  19
ENDBRANCH  17  18
BRANCH   1  23
HETATM   23  O1  UNL     1      24.485   5.658  49.801  1.00  0.00    -0.358 OA
HETATM   24  C1  UNL     1      25.353   6.639  50.276  1.00  0.00     0.209 C 
ENDBRANCH   1  23
BRANCH  16  25
HETATM   25  N2  UNL     1      22.501   1.366  49.911  1.00  0.00     0.123 N 
HETATM   26  H17 UNL     1      21.870   1.485  49.097  1.00  0.00     0.316 HD
HETATM   27  H18 UNL     1      23.339   0.801  49.717  1.00  0.00     0.316 HD
ENDBRANCH  16  25
BRANCH  10  28
HETATM   28  C11 UNL     1      17.381  -1.526  53.096  1.00  0.00     0.269 C 
HETATM   29  O2  UNL     1      17.951  -2.424  53.797  1.00  0.00    -0.301 OA
ENDBRANCH  10  28
TORSDOF 6
ENDMDL
