MODEL 1
REMARK VINA RESULT:      -8.9      0.000      0.000
REMARK  8 active torsions:
REMARK  status: ('A' for Active; 'I' for Inactive)
REMARK    1  A    between atoms: N2_12  and  C11_13 
REMARK    2  A    between atoms: C13_17  and  N5_18 
REMARK    3  A    between atoms: C14_19  and  C15_20 
REMARK    4  A    between atoms: C15_20  and  C16_21 
REMARK    5  A    between atoms: C16_21  and  C18_23 
REMARK    6  A    between atoms: C19_24  and  O1_25 
REMARK    7  A    between atoms: O1_25  and  C20_26 
REMARK    8  A    between atoms: C20_26  and  C21_27 
ROOT
HETATM    1  C11 UNL     1      19.794   1.373  51.853  1.00  0.00     0.141 A 
HETATM    2  N3  UNL     1      18.584   0.795  51.588  1.00  0.00    -0.224 NA
HETATM    3  C12 UNL     1      18.125  -0.278  52.256  1.00  0.00     0.237 A 
HETATM    4  N4  UNL     1      18.866  -0.843  53.250  1.00  0.00    -0.224 NA
HETATM    5  C13 UNL     1      20.078  -0.284  53.535  1.00  0.00     0.132 A 
HETATM    6  C14 UNL     1      20.539   0.807  52.851  1.00  0.00     0.034 A 
ENDROOT
BRANCH   6   7
HETATM    7  C15 UNL     1      21.820   1.421  53.171  1.00  0.00     0.054 C 
BRANCH   7   8
HETATM    8  C16 UNL     1      22.920   0.836  52.334  1.00  0.00     0.010 C 
HETATM    9  C17 UNL     1      23.577   1.983  51.536  1.00  0.00     0.014 C 
BRANCH   8  10
HETATM   10  C18 UNL     1      24.000   0.241  53.159  1.00  0.00     0.002 C 
HETATM   11  C19 UNL     1      24.649  -0.874  53.453  1.00  0.00     0.131 C 
BRANCH  11  12
HETATM   12  O1  UNL     1      25.690  -1.049  54.354  1.00  0.00    -0.360 OA
BRANCH  12  13
HETATM   13  C20 UNL     1      26.295   0.018  55.045  1.00  0.00     0.212 C 
BRANCH  13  14
HETATM   14  C21 UNL     1      27.502   0.561  54.345  1.00  0.00     0.083 C 
HETATM   15  C22 UNL     1      28.248  -0.404  53.495  1.00  0.00     0.043 C 
HETATM   16  C23 UNL     1      29.669   0.166  53.557  1.00  0.00     0.035 C 
HETATM   17  C24 UNL     1      29.449   1.431  54.339  1.00  0.00     0.122 C 
HETATM   18  C25 UNL     1      28.671   2.401  53.514  1.00  0.00     0.035 C 
HETATM   19  O2  UNL     1      28.485   0.995  55.265  1.00  0.00    -0.373 OA
HETATM   20  C26 UNL     1      27.249   1.829  53.599  1.00  0.00     0.043 C 
ENDBRANCH  13  14
ENDBRANCH  12  13
ENDBRANCH  11  12
ENDBRANCH   8  10
ENDBRANCH   7   8
ENDBRANCH   6   7
BRANCH   1  21
HETATM   21  N2  UNL     1      19.992   2.483  50.999  1.00  0.00    -0.329 N 
HETATM   22  C2  UNL     1      20.415   1.952  49.720  1.00  0.00     0.037 C 
HETATM   23  C1  UNL     1      20.599   0.646  49.644  1.00  0.00     0.041 C 
HETATM   24  C3  UNL     1      20.750   2.261  48.323  1.00  0.00     0.273 C 
HETATM   25  C4  UNL     1      22.160   1.843  47.970  1.00  0.00     0.072 C 
HETATM   26  N1  UNL     1      21.096   3.650  48.084  1.00  0.00     0.099 N 
HETATM   27  C5  UNL     1      22.127   3.132  47.162  1.00  0.00     0.276 C 
HETATM   28  C6  UNL     1      21.756   4.255  49.196  1.00  0.00     0.278 C 
HETATM   29  C7  UNL     1      20.848   5.124  49.987  1.00  0.00     0.018 C 
HETATM   30  C8  UNL     1      19.429   4.687  50.088  1.00  0.00     0.032 C 
HETATM   31  C10 UNL     1      21.015   4.702  51.449  1.00  0.00     0.032 C 
HETATM   32  C9  UNL     1      19.790   3.879  51.323  1.00  0.00     0.092 C 
ENDBRANCH   1  21
BRANCH   5  33
HETATM   33  N5  UNL     1      20.914  -0.810  54.554  1.00  0.00    -0.383 N 
HETATM   34  H17 UNL     1      20.669  -1.335  55.420  1.00  0.00     0.157 HD
HETATM   35  H18 UNL     1      21.927  -0.859  54.784  1.00  0.00     0.157 HD
ENDBRANCH   5  33
TORSDOF 8
ENDMDL
MODEL 2
REMARK VINA RESULT:      -8.3      1.361      2.633
REMARK  8 active torsions:
REMARK  status: ('A' for Active; 'I' for Inactive)
REMARK    1  A    between atoms: N2_12  and  C11_13 
REMARK    2  A    between atoms: C13_17  and  N5_18 
REMARK    3  A    between atoms: C14_19  and  C15_20 
REMARK    4  A    between atoms: C15_20  and  C16_21 
REMARK    5  A    between atoms: C16_21  and  C18_23 
REMARK    6  A    between atoms: C19_24  and  O1_25 
REMARK    7  A    between atoms: O1_25  and  C20_26 
REMARK    8  A    between atoms: C20_26  and  C21_27 
ROOT
HETATM    1  C11 UNL     1      19.737   1.280  51.012  1.00  0.00     0.141 A 
HETATM    2  N3  UNL     1      18.504   1.796  50.730  1.00  0.00    -0.224 NA
HETATM    3  C12 UNL     1      17.375   1.352  51.310  1.00  0.00     0.237 A 
HETATM    4  N4  UNL     1      17.419   0.344  52.226  1.00  0.00    -0.224 NA
HETATM    5  C13 UNL     1      18.639  -0.188  52.526  1.00  0.00     0.132 A 
HETATM    6  C14 UNL     1      19.783   0.269  51.933  1.00  0.00     0.034 A 
ENDROOT
BRANCH   6   7
HETATM    7  C15 UNL     1      21.089  -0.280  52.271  1.00  0.00     0.054 C 
BRANCH   7   8
HETATM    8  C16 UNL     1      21.714   0.479  53.405  1.00  0.00     0.010 C 
HETATM    9  C17 UNL     1      21.865  -0.484  54.602  1.00  0.00     0.014 C 
BRANCH   8  10
HETATM   10  C18 UNL     1      23.083   0.948  53.081  1.00  0.00     0.002 C 
HETATM   11  C19 UNL     1      23.924   1.246  52.104  1.00  0.00     0.131 C 
BRANCH  11  12
HETATM   12  O1  UNL     1      25.236   1.689  52.205  1.00  0.00    -0.360 OA
BRANCH  12  13
HETATM   13  C20 UNL     1      25.840   2.026  53.431  1.00  0.00     0.212 C 
BRANCH  13  14
HETATM   14  C21 UNL     1      27.173   1.373  53.626  1.00  0.00     0.083 C 
HETATM   15  C22 UNL     1      27.446   0.186  52.773  1.00  0.00     0.043 C 
HETATM   16  C23 UNL     1      28.413  -0.611  53.655  1.00  0.00     0.035 C 
HETATM   17  C24 UNL     1      28.611   0.332  54.809  1.00  0.00     0.122 C 
HETATM   18  C25 UNL     1      29.385   1.524  54.353  1.00  0.00     0.035 C 
HETATM   19  O2  UNL     1      27.313   0.858  54.936  1.00  0.00    -0.373 OA
HETATM   20  C26 UNL     1      28.324   2.323  53.584  1.00  0.00     0.043 C 
ENDBRANCH  13  14
ENDBRANCH  12  13
ENDBRANCH  11  12
ENDBRANCH   8  10
ENDBRANCH   7   8
ENDBRANCH   6   7
BRANCH   1  21
HETATM   21  N2  UNL     1      20.724   1.957  50.258  1.00  0.00    -0.329 N 
HETATM   22  C2  UNL     1      21.051   3.162  50.990  1.00  0.00     0.037 C 
HETATM   23  C1  UNL     1      20.353   3.408  52.084  1.00  0.00     0.041 C 
HETATM   24  C3  UNL     1      21.920   4.346  51.062  1.00  0.00     0.273 C 
HETATM   25  C4  UNL     1      21.129   5.634  51.030  1.00  0.00     0.072 C 
HETATM   26  N1  UNL     1      22.556   4.698  49.807  1.00  0.00     0.099 N 
HETATM   27  C5  UNL     1      22.307   6.103  50.188  1.00  0.00     0.276 C 
HETATM   28  C6  UNL     1      21.748   4.394  48.671  1.00  0.00     0.278 C 
HETATM   29  C7  UNL     1      22.184   3.152  47.983  1.00  0.00     0.018 C 
HETATM   30  C8  UNL     1      22.724   2.067  48.847  1.00  0.00     0.032 C 
HETATM   31  C10 UNL     1      20.928   2.296  47.805  1.00  0.00     0.032 C 
HETATM   32  C9  UNL     1      21.315   1.525  49.009  1.00  0.00     0.092 C 
ENDBRANCH   1  21
BRANCH   5  33
HETATM   33  N5  UNL     1      18.775  -1.241  53.469  1.00  0.00    -0.383 N 
HETATM   34  H17 UNL     1      19.553  -1.458  54.126  1.00  0.00     0.157 HD
HETATM   35  H18 UNL     1      18.233  -2.063  53.803  1.00  0.00     0.157 HD
ENDBRANCH   5  33
TORSDOF 8
ENDMDL
MODEL 3
REMARK VINA RESULT:      -8.0      3.124      5.628
REMARK  8 active torsions:
REMARK  status: ('A' for Active; 'I' for Inactive)
REMARK    1  A    between atoms: N2_12  and  C11_13 
REMARK    2  A    between atoms: C13_17  and  N5_18 
REMARK    3  A    between atoms: C14_19  and  C15_20 
REMARK    4  A    between atoms: C15_20  and  C16_21 
REMARK    5  A    between atoms: C16_21  and  C18_23 
REMARK    6  A    between atoms: C19_24  and  O1_25 
REMARK    7  A    between atoms: O1_25  and  C20_26 
REMARK    8  A    between atoms: C20_26  and  C21_27 
ROOT
HETATM    1  C11 UNL     1      23.127   6.232  49.697  1.00  0.00     0.141 A 
HETATM    2  N3  UNL     1      21.919   6.672  49.234  1.00  0.00    -0.224 NA
HETATM    3  C12 UNL     1      21.764   7.846  48.598  1.00  0.00     0.237 A 
HETATM    4  N4  UNL     1      22.833   8.663  48.384  1.00  0.00    -0.224 NA
HETATM    5  C13 UNL     1      24.051   8.247  48.837  1.00  0.00     0.132 A 
HETATM    6  C14 UNL     1      24.202   7.050  49.482  1.00  0.00     0.034 A 
ENDROOT
BRANCH   6   7
HETATM    7  C15 UNL     1      25.506   6.592  49.943  1.00  0.00     0.054 C 
BRANCH   7   8
HETATM    8  C16 UNL     1      26.048   5.522  49.041  1.00  0.00     0.010 C 
HETATM    9  C17 UNL     1      27.391   6.018  48.463  1.00  0.00     0.014 C 
BRANCH   8  10
HETATM   10  C18 UNL     1      26.355   4.270  49.775  1.00  0.00     0.002 C 
HETATM   11  C19 UNL     1      26.486   2.958  49.670  1.00  0.00     0.131 C 
BRANCH  11  12
HETATM   12  O1  UNL     1      26.811   2.046  50.665  1.00  0.00    -0.360 OA
BRANCH  12  13
HETATM   13  C20 UNL     1      27.188   2.430  51.966  1.00  0.00     0.212 C 
BRANCH  13  14
HETATM   14  C21 UNL     1      27.147   1.299  52.946  1.00  0.00     0.083 C 
HETATM   15  C22 UNL     1      26.383   0.098  52.520  1.00  0.00     0.043 C 
HETATM   16  C23 UNL     1      25.924  -0.470  53.867  1.00  0.00     0.035 C 
HETATM   17  C24 UNL     1      26.617   0.452  54.831  1.00  0.00     0.122 C 
HETATM   18  C25 UNL     1      28.089   0.211  54.783  1.00  0.00     0.035 C 
HETATM   19  O2  UNL     1      26.499   1.674  54.146  1.00  0.00    -0.373 OA
HETATM   20  C26 UNL     1      28.487   0.907  53.473  1.00  0.00     0.043 C 
ENDBRANCH  13  14
ENDBRANCH  12  13
ENDBRANCH  11  12
ENDBRANCH   8  10
ENDBRANCH   7   8
ENDBRANCH   6   7
BRANCH   1  21
HETATM   21  N2  UNL     1      22.974   4.965  50.307  1.00  0.00    -0.329 N 
HETATM   22  C2  UNL     1      22.847   4.000  49.234  1.00  0.00     0.037 C 
HETATM   23  C1  UNL     1      22.815   4.475  48.002  1.00  0.00     0.041 C 
HETATM   24  C3  UNL     1      22.740   2.578  48.881  1.00  0.00     0.273 C 
HETATM   25  C4  UNL     1      21.469   2.274  48.121  1.00  0.00     0.072 C 
HETATM   26  N1  UNL     1      22.302   1.723  49.968  1.00  0.00     0.099 N 
HETATM   27  C5  UNL     1      21.515   0.999  48.950  1.00  0.00     0.276 C 
HETATM   28  C6  UNL     1      21.393   2.375  50.854  1.00  0.00     0.278 C 
HETATM   29  C7  UNL     1      22.047   2.816  52.112  1.00  0.00     0.018 C 
HETATM   30  C8  UNL     1      23.462   3.266  52.004  1.00  0.00     0.032 C 
HETATM   31  C10 UNL     1      21.662   4.284  52.305  1.00  0.00     0.032 C 
HETATM   32  C9  UNL     1      22.968   4.675  51.726  1.00  0.00     0.092 C 
ENDBRANCH   1  21
BRANCH   5  33
HETATM   33  N5  UNL     1      25.217   9.036  48.656  1.00  0.00    -0.383 N 
HETATM   34  H17 UNL     1      25.319  10.020  48.331  1.00  0.00     0.157 HD
HETATM   35  H18 UNL     1      26.247   8.941  48.762  1.00  0.00     0.157 HD
ENDBRANCH   5  33
TORSDOF 8
ENDMDL
MODEL 4
REMARK VINA RESULT:      -7.7      2.655      5.454
REMARK  8 active torsions:
REMARK  status: ('A' for Active; 'I' for Inactive)
REMARK    1  A    between atoms: N2_12  and  C11_13 
REMARK    2  A    between atoms: C13_17  and  N5_18 
REMARK    3  A    between atoms: C14_19  and  C15_20 
REMARK    4  A    between atoms: C15_20  and  C16_21 
REMARK    5  A    between atoms: C16_21  and  C18_23 
REMARK    6  A    between atoms: C19_24  and  O1_25 
REMARK    7  A    between atoms: O1_25  and  C20_26 
REMARK    8  A    between atoms: C20_26  and  C21_27 
ROOT
HETATM    1  C11 UNL     1      23.595   5.721  48.424  1.00  0.00     0.141 A 
HETATM    2  N3  UNL     1      23.367   6.589  47.394  1.00  0.00    -0.224 NA
HETATM    3  C12 UNL     1      24.184   7.619  47.112  1.00  0.00     0.237 A 
HETATM    4  N4  UNL     1      25.299   7.843  47.862  1.00  0.00    -0.224 NA
HETATM    5  C13 UNL     1      25.550   6.989  48.898  1.00  0.00     0.132 A 
HETATM    6  C14 UNL     1      24.715   5.943  49.178  1.00  0.00     0.034 A 
ENDROOT
BRANCH   6   7
HETATM    7  C15 UNL     1      24.994   5.016  50.266  1.00  0.00     0.054 C 
BRANCH   7   8
HETATM    8  C16 UNL     1      25.374   3.664  49.735  1.00  0.00     0.010 C 
HETATM    9  C17 UNL     1      26.840   3.734  49.254  1.00  0.00     0.014 C 
BRANCH   8  10
HETATM   10  C18 UNL     1      25.337   2.617  50.784  1.00  0.00     0.002 C 
HETATM   11  C19 UNL     1      24.578   1.723  51.397  1.00  0.00     0.131 C 
BRANCH  11  12
HETATM   12  O1  UNL     1      24.931   0.852  52.418  1.00  0.00    -0.360 OA
BRANCH  12  13
HETATM   13  C20 UNL     1      25.527   1.279  53.620  1.00  0.00     0.212 C 
BRANCH  13  14
HETATM   14  C21 UNL     1      26.991   0.975  53.689  1.00  0.00     0.083 C 
HETATM   15  C22 UNL     1      27.452  -0.184  52.880  1.00  0.00     0.043 C 
HETATM   16  C23 UNL     1      28.671  -0.654  53.682  1.00  0.00     0.035 C 
HETATM   17  C24 UNL     1      28.754   0.406  54.745  1.00  0.00     0.122 C 
HETATM   18  C25 UNL     1      29.164   1.702  54.129  1.00  0.00     0.035 C 
HETATM   19  O2  UNL     1      27.389   0.623  54.999  1.00  0.00    -0.373 OA
HETATM   20  C26 UNL     1      27.866   2.161  53.450  1.00  0.00     0.043 C 
ENDBRANCH  13  14
ENDBRANCH  12  13
ENDBRANCH  11  12
ENDBRANCH   8  10
ENDBRANCH   7   8
ENDBRANCH   6   7
BRANCH   1  21
HETATM   21  N2  UNL     1      22.574   4.743  48.460  1.00  0.00    -0.329 N 
HETATM   22  C2  UNL     1      21.711   5.083  49.573  1.00  0.00     0.037 C 
HETATM   23  C1  UNL     1      22.075   6.109  50.321  1.00  0.00     0.041 C 
HETATM   24  C3  UNL     1      20.475   4.762  50.298  1.00  0.00     0.273 C 
HETATM   25  C4  UNL     1      20.738   4.422  51.748  1.00  0.00     0.072 C 
HETATM   26  N1  UNL     1      19.978   3.418  50.067  1.00  0.00     0.099 N 
HETATM   27  C5  UNL     1      19.632   3.406  51.503  1.00  0.00     0.276 C 
HETATM   28  C6  UNL     1      21.023   2.471  49.852  1.00  0.00     0.278 C 
HETATM   29  C7  UNL     1      21.191   2.131  48.416  1.00  0.00     0.018 C 
HETATM   30  C8  UNL     1      20.942   3.227  47.440  1.00  0.00     0.032 C 
HETATM   31  C10 UNL     1      22.683   2.285  48.111  1.00  0.00     0.032 C 
HETATM   32  C9  UNL     1      22.402   3.628  47.553  1.00  0.00     0.092 C 
ENDBRANCH   1  21
BRANCH   5  33
HETATM   33  N5  UNL     1      26.689   7.149  49.729  1.00  0.00    -0.383 N 
HETATM   34  H17 UNL     1      27.111   8.011  50.132  1.00  0.00     0.157 HD
HETATM   35  H18 UNL     1      27.417   6.556  50.176  1.00  0.00     0.157 HD
ENDBRANCH   5  33
TORSDOF 8
ENDMDL
MODEL 5
REMARK VINA RESULT:      -7.6      2.308      4.178
REMARK  8 active torsions:
REMARK  status: ('A' for Active; 'I' for Inactive)
REMARK    1  A    between atoms: N2_12  and  C11_13 
REMARK    2  A    between atoms: C13_17  and  N5_18 
REMARK    3  A    between atoms: C14_19  and  C15_20 
REMARK    4  A    between atoms: C15_20  and  C16_21 
REMARK    5  A    between atoms: C16_21  and  C18_23 
REMARK    6  A    between atoms: C19_24  and  O1_25 
REMARK    7  A    between atoms: O1_25  and  C20_26 
REMARK    8  A    between atoms: C20_26  and  C21_27 
ROOT
HETATM    1  C11 UNL     1      21.972   4.709  50.061  1.00  0.00     0.141 A 
HETATM    2  N3  UNL     1      22.001   6.029  50.414  1.00  0.00    -0.224 NA
HETATM    3  C12 UNL     1      23.067   6.607  50.996  1.00  0.00     0.237 A 
HETATM    4  N4  UNL     1      24.188   5.881  51.261  1.00  0.00    -0.224 NA
HETATM    5  C13 UNL     1      24.185   4.559  50.918  1.00  0.00     0.132 A 
HETATM    6  C14 UNL     1      23.098   3.978  50.326  1.00  0.00     0.034 A 
ENDROOT
BRANCH   6   7
HETATM    7  C15 UNL     1      23.103   2.576  49.935  1.00  0.00     0.054 C 
BRANCH   7   8
HETATM    8  C16 UNL     1      22.314   1.745  50.905  1.00  0.00     0.010 C 
HETATM    9  C17 UNL     1      21.467   0.739  50.097  1.00  0.00     0.014 C 
BRANCH   8  10
HETATM   10  C18 UNL     1      23.185   0.931  51.788  1.00  0.00     0.002 C 
HETATM   11  C19 UNL     1      23.964   0.949  52.857  1.00  0.00     0.131 C 
BRANCH  11  12
HETATM   12  O1  UNL     1      24.669  -0.103  53.424  1.00  0.00    -0.360 OA
BRANCH  12  13
HETATM   13  C20 UNL     1      25.612   0.071  54.454  1.00  0.00     0.212 C 
BRANCH  13  14
HETATM   14  C21 UNL     1      27.028   0.015  53.969  1.00  0.00     0.083 C 
HETATM   15  C22 UNL     1      27.317  -1.007  52.929  1.00  0.00     0.043 C 
HETATM   16  C23 UNL     1      28.796  -1.306  53.193  1.00  0.00     0.035 C 
HETATM   17  C24 UNL     1      29.115  -0.303  54.268  1.00  0.00     0.122 C 
HETATM   18  C25 UNL     1      29.089   1.073  53.691  1.00  0.00     0.035 C 
HETATM   19  O2  UNL     1      27.921  -0.333  55.009  1.00  0.00    -0.373 OA
HETATM   20  C26 UNL     1      27.582   1.341  53.567  1.00  0.00     0.043 C 
ENDBRANCH  13  14
ENDBRANCH  12  13
ENDBRANCH  11  12
ENDBRANCH   8  10
ENDBRANCH   7   8
ENDBRANCH   6   7
BRANCH   1  21
HETATM   21  N2  UNL     1      20.728   4.400  49.463  1.00  0.00    -0.329 N 
HETATM   22  C2  UNL     1      19.792   4.177  50.545  1.00  0.00     0.037 C 
HETATM   23  C1  UNL     1      20.274   4.220  51.774  1.00  0.00     0.041 C 
HETATM   24  C3  UNL     1      18.394   3.911  50.911  1.00  0.00     0.273 C 
HETATM   25  C4  UNL     1      18.245   2.624  51.691  1.00  0.00     0.072 C 
HETATM   26  N1  UNL     1      17.589   3.360  49.837  1.00  0.00     0.099 N 
HETATM   27  C5  UNL     1      16.968   2.509  50.872  1.00  0.00     0.276 C 
HETATM   28  C6  UNL     1      18.338   2.520  48.959  1.00  0.00     0.278 C 
HETATM   29  C7  UNL     1      18.691   3.202  47.689  1.00  0.00     0.018 C 
HETATM   30  C8  UNL     1      18.974   4.662  47.773  1.00  0.00     0.032 C 
HETATM   31  C10 UNL     1      20.193   2.988  47.489  1.00  0.00     0.032 C 
HETATM   32  C9  UNL     1      20.432   4.340  48.047  1.00  0.00     0.092 C 
ENDBRANCH   1  21
BRANCH   5  33
HETATM   33  N5  UNL     1      25.312   3.730  51.159  1.00  0.00    -0.383 N 
HETATM   34  H17 UNL     1      25.979   3.292  50.490  1.00  0.00     0.157 HD
HETATM   35  H18 UNL     1      25.813   3.312  51.968  1.00  0.00     0.157 HD
ENDBRANCH   5  33
TORSDOF 8
ENDMDL
MODEL 6
REMARK VINA RESULT:      -7.4      6.941      9.341
REMARK  8 active torsions:
REMARK  status: ('A' for Active; 'I' for Inactive)
REMARK    1  A    between atoms: N2_12  and  C11_13 
REMARK    2  A    between atoms: C13_17  and  N5_18 
REMARK    3  A    between atoms: C14_19  and  C15_20 
REMARK    4  A    between atoms: C15_20  and  C16_21 
REMARK    5  A    between atoms: C16_21  and  C18_23 
REMARK    6  A    between atoms: C19_24  and  O1_25 
REMARK    7  A    between atoms: O1_25  and  C20_26 
REMARK    8  A    between atoms: C20_26  and  C21_27 
ROOT
HETATM    1  C11 UNL     1      26.925   8.853  47.367  1.00  0.00     0.141 A 
HETATM    2  N3  UNL     1      26.241   9.618  46.465  1.00  0.00    -0.224 NA
HETATM    3  C12 UNL     1      24.968   9.368  46.112  1.00  0.00     0.237 A 
HETATM    4  N4  UNL     1      24.292   8.317  46.655  1.00  0.00    -0.224 NA
HETATM    5  C13 UNL     1      24.953   7.538  47.560  1.00  0.00     0.132 A 
HETATM    6  C14 UNL     1      26.248   7.798  47.915  1.00  0.00     0.034 A 
ENDROOT
BRANCH   6   7
HETATM    7  C15 UNL     1      26.947   6.983  48.900  1.00  0.00     0.054 C 
BRANCH   7   8
HETATM    8  C16 UNL     1      27.550   5.767  48.259  1.00  0.00     0.010 C 
HETATM    9  C17 UNL     1      29.087   5.908  48.316  1.00  0.00     0.014 C 
BRANCH   8  10
HETATM   10  C18 UNL     1      27.226   4.522  48.998  1.00  0.00     0.002 C 
HETATM   11  C19 UNL     1      26.408   3.965  49.875  1.00  0.00     0.131 C 
BRANCH  11  12
HETATM   12  O1  UNL     1      26.425   2.664  50.359  1.00  0.00    -0.360 OA
BRANCH  12  13
HETATM   13  C20 UNL     1      25.709   2.260  51.501  1.00  0.00     0.212 C 
BRANCH  13  14
HETATM   14  C21 UNL     1      26.492   1.346  52.392  1.00  0.00     0.083 C 
HETATM   15  C22 UNL     1      26.716  -0.029  51.875  1.00  0.00     0.043 C 
HETATM   16  C23 UNL     1      26.832  -0.832  53.176  1.00  0.00     0.035 C 
HETATM   17  C24 UNL     1      26.772   0.261  54.207  1.00  0.00     0.122 C 
HETATM   18  C25 UNL     1      28.016   1.082  54.139  1.00  0.00     0.035 C 
HETATM   19  O2  UNL     1      25.825   1.117  53.618  1.00  0.00    -0.373 OA
HETATM   20  C26 UNL     1      27.772   1.935  52.886  1.00  0.00     0.043 C 
ENDBRANCH  13  14
ENDBRANCH  12  13
ENDBRANCH  11  12
ENDBRANCH   8  10
ENDBRANCH   7   8
ENDBRANCH   6   7
BRANCH   1  21
HETATM   21  N2  UNL     1      28.231   9.369  47.540  1.00  0.00    -0.329 N 
HETATM   22  C2  UNL     1      28.987   8.984  46.366  1.00  0.00     0.037 C 
HETATM   23  C1  UNL     1      28.374   8.216  45.484  1.00  0.00     0.041 C 
HETATM   24  C3  UNL     1      30.264   9.098  45.649  1.00  0.00     0.273 C 
HETATM   25  C4  UNL     1      30.914   7.751  45.427  1.00  0.00     0.072 C 
HETATM   26  N1  UNL     1      31.382   9.507  46.478  1.00  0.00     0.099 N 
HETATM   27  C5  UNL     1      32.185   8.542  45.701  1.00  0.00     0.276 C 
HETATM   28  C6  UNL     1      31.282   9.027  47.819  1.00  0.00     0.278 C 
HETATM   29  C7  UNL     1      30.826  10.079  48.763  1.00  0.00     0.018 C 
HETATM   30  C8  UNL     1      29.851  11.071  48.234  1.00  0.00     0.032 C 
HETATM   31  C10 UNL     1      29.672   9.467  49.562  1.00  0.00     0.032 C 
HETATM   32  C9  UNL     1      28.719  10.150  48.656  1.00  0.00     0.092 C 
ENDBRANCH   1  21
BRANCH   5  33
HETATM   33  N5  UNL     1      24.325   6.422  48.174  1.00  0.00    -0.383 N 
HETATM   34  H17 UNL     1      23.442   5.929  47.928  1.00  0.00     0.157 HD
HETATM   35  H18 UNL     1      24.487   5.781  48.977  1.00  0.00     0.157 HD
ENDBRANCH   5  33
TORSDOF 8
ENDMDL
MODEL 7
REMARK VINA RESULT:      -7.4      2.421      3.710
REMARK  8 active torsions:
REMARK  status: ('A' for Active; 'I' for Inactive)
REMARK    1  A    between atoms: N2_12  and  C11_13 
REMARK    2  A    between atoms: C13_17  and  N5_18 
REMARK    3  A    between atoms: C14_19  and  C15_20 
REMARK    4  A    between atoms: C15_20  and  C16_21 
REMARK    5  A    between atoms: C16_21  and  C18_23 
REMARK    6  A    between atoms: C19_24  and  O1_25 
REMARK    7  A    between atoms: O1_25  and  C20_26 
REMARK    8  A    between atoms: C20_26  and  C21_27 
ROOT
HETATM    1  C11 UNL     1      21.652   3.851  49.598  1.00  0.00     0.141 A 
HETATM    2  N3  UNL     1      21.291   3.410  48.357  1.00  0.00    -0.224 NA
HETATM    3  C12 UNL     1      20.773   2.189  48.138  1.00  0.00     0.237 A 
HETATM    4  N4  UNL     1      20.581   1.323  49.172  1.00  0.00    -0.224 NA
HETATM    5  C13 UNL     1      20.933   1.740  50.423  1.00  0.00     0.132 A 
HETATM    6  C14 UNL     1      21.460   2.984  50.639  1.00  0.00     0.034 A 
ENDROOT
BRANCH   6   7
HETATM    7  C15 UNL     1      21.812   3.440  51.976  1.00  0.00     0.054 C 
BRANCH   7   8
HETATM    8  C16 UNL     1      23.300   3.564  52.126  1.00  0.00     0.010 C 
HETATM    9  C17 UNL     1      23.585   4.622  53.215  1.00  0.00     0.014 C 
BRANCH   8  10
HETATM   10  C18 UNL     1      23.925   2.307  52.604  1.00  0.00     0.002 C 
HETATM   11  C19 UNL     1      24.995   1.533  52.530  1.00  0.00     0.131 C 
BRANCH  11  12
HETATM   12  O1  UNL     1      25.231   0.330  53.180  1.00  0.00    -0.360 OA
BRANCH  12  13
HETATM   13  C20 UNL     1      26.204  -0.595  52.755  1.00  0.00     0.212 C 
BRANCH  13  14
HETATM   14  C21 UNL     1      27.534  -0.389  53.412  1.00  0.00     0.083 C 
HETATM   15  C22 UNL     1      27.496   0.045  54.832  1.00  0.00     0.043 C 
HETATM   16  C23 UNL     1      28.808   0.829  54.949  1.00  0.00     0.035 C 
HETATM   17  C24 UNL     1      29.417   0.595  53.595  1.00  0.00     0.122 C 
HETATM   18  C25 UNL     1      29.823  -0.836  53.470  1.00  0.00     0.035 C 
HETATM   19  O2  UNL     1      28.269   0.644  52.785  1.00  0.00    -0.373 OA
HETATM   20  C26 UNL     1      28.476  -1.535  53.239  1.00  0.00     0.043 C 
ENDBRANCH  13  14
ENDBRANCH  12  13
ENDBRANCH  11  12
ENDBRANCH   8  10
ENDBRANCH   7   8
ENDBRANCH   6   7
BRANCH   1  21
HETATM   21  N2  UNL     1      22.152   5.172  49.510  1.00  0.00    -0.329 N 
HETATM   22  C2  UNL     1      23.528   5.067  49.071  1.00  0.00     0.037 C 
HETATM   23  C1  UNL     1      24.023   3.849  48.937  1.00  0.00     0.041 C 
HETATM   24  C3  UNL     1      24.733   5.797  48.654  1.00  0.00     0.273 C 
HETATM   25  C4  UNL     1      25.917   5.496  49.545  1.00  0.00     0.072 C 
HETATM   26  N1  UNL     1      24.764   7.186  49.072  1.00  0.00     0.099 N 
HETATM   27  C5  UNL     1      26.204   6.974  49.326  1.00  0.00     0.276 C 
HETATM   28  C6  UNL     1      24.117   7.403  50.325  1.00  0.00     0.278 C 
HETATM   29  C7  UNL     1      22.761   7.988  50.167  1.00  0.00     0.018 C 
HETATM   30  C8  UNL     1      21.985   7.556  48.972  1.00  0.00     0.032 C 
HETATM   31  C10 UNL     1      21.820   7.125  51.010  1.00  0.00     0.032 C 
HETATM   32  C9  UNL     1      21.430   6.397  49.781  1.00  0.00     0.092 C 
ENDBRANCH   1  21
BRANCH   5  33
HETATM   33  N5  UNL     1      20.767   0.902  51.556  1.00  0.00    -0.383 N 
HETATM   34  H17 UNL     1      20.438  -0.084  51.621  1.00  0.00     0.157 HD
HETATM   35  H18 UNL     1      20.892   0.952  52.587  1.00  0.00     0.157 HD
ENDBRANCH   5  33
TORSDOF 8
ENDMDL
MODEL 8
REMARK VINA RESULT:      -7.4      2.314      3.665
REMARK  8 active torsions:
REMARK  status: ('A' for Active; 'I' for Inactive)
REMARK    1  A    between atoms: N2_12  and  C11_13 
REMARK    2  A    between atoms: C13_17  and  N5_18 
REMARK    3  A    between atoms: C14_19  and  C15_20 
REMARK    4  A    between atoms: C15_20  and  C16_21 
REMARK    5  A    between atoms: C16_21  and  C18_23 
REMARK    6  A    between atoms: C19_24  and  O1_25 
REMARK    7  A    between atoms: O1_25  and  C20_26 
REMARK    8  A    between atoms: C20_26  and  C21_27 
ROOT
HETATM    1  C11 UNL     1      21.883   4.168  50.198  1.00  0.00     0.141 A 
HETATM    2  N3  UNL     1      21.872   5.525  50.356  1.00  0.00    -0.224 NA
HETATM    3  C12 UNL     1      22.913   6.211  50.859  1.00  0.00     0.237 A 
HETATM    4  N4  UNL     1      24.049   5.562  51.240  1.00  0.00    -0.224 NA
HETATM    5  C13 UNL     1      24.086   4.206  51.091  1.00  0.00     0.132 A 
HETATM    6  C14 UNL     1      23.023   3.515  50.578  1.00  0.00     0.034 A 
ENDROOT
BRANCH   6   7
HETATM    7  C15 UNL     1      23.071   2.071  50.394  1.00  0.00     0.054 C 
BRANCH   7   8
HETATM    8  C16 UNL     1      22.348   1.365  51.504  1.00  0.00     0.010 C 
HETATM    9  C17 UNL     1      21.404   0.319  50.873  1.00  0.00     0.014 C 
BRANCH   8  10
HETATM   10  C18 UNL     1      23.271   0.606  52.383  1.00  0.00     0.002 C 
HETATM   11  C19 UNL     1      24.207   0.703  53.313  1.00  0.00     0.131 C 
BRANCH  11  12
HETATM   12  O1  UNL     1      24.895  -0.322  53.949  1.00  0.00    -0.360 OA
BRANCH  12  13
HETATM   13  C20 UNL     1      25.945  -0.092  54.859  1.00  0.00     0.212 C 
BRANCH  13  14
HETATM   14  C21 UNL     1      27.291  -0.052  54.203  1.00  0.00     0.083 C 
HETATM   15  C22 UNL     1      27.508  -1.032  53.107  1.00  0.00     0.043 C 
HETATM   16  C23 UNL     1      29.024  -1.246  53.182  1.00  0.00     0.035 C 
HETATM   17  C24 UNL     1      29.414  -0.248  54.237  1.00  0.00     0.122 C 
HETATM   18  C25 UNL     1      29.237   1.135  53.708  1.00  0.00     0.035 C 
HETATM   19  O2  UNL     1      28.323  -0.367  55.117  1.00  0.00    -0.373 OA
HETATM   20  C26 UNL     1      27.713   1.314  53.775  1.00  0.00     0.043 C 
ENDBRANCH  13  14
ENDBRANCH  12  13
ENDBRANCH  11  12
ENDBRANCH   8  10
ENDBRANCH   7   8
ENDBRANCH   6   7
BRANCH   1  21
HETATM   21  N2  UNL     1      20.656   3.741  49.637  1.00  0.00    -0.329 N 
HETATM   22  C2  UNL     1      20.836   3.734  48.200  1.00  0.00     0.037 C 
HETATM   23  C1  UNL     1      21.992   4.177  47.739  1.00  0.00     0.041 C 
HETATM   24  C3  UNL     1      20.239   3.403  46.899  1.00  0.00     0.273 C 
HETATM   25  C4  UNL     1      20.136   4.611  45.996  1.00  0.00     0.072 C 
HETATM   26  N1  UNL     1      18.793   3.285  46.917  1.00  0.00     0.099 N 
HETATM   27  C5  UNL     1      18.821   3.955  45.601  1.00  0.00     0.276 C 
HETATM   28  C6  UNL     1      18.178   4.169  47.854  1.00  0.00     0.278 C 
HETATM   29  C7  UNL     1      17.763   3.472  49.099  1.00  0.00     0.018 C 
HETATM   30  C8  UNL     1      18.635   2.358  49.561  1.00  0.00     0.032 C 
HETATM   31  C10 UNL     1      18.317   4.301  50.260  1.00  0.00     0.032 C 
HETATM   32  C9  UNL     1      19.457   3.360  50.352  1.00  0.00     0.092 C 
ENDBRANCH   1  21
BRANCH   5  33
HETATM   33  N5  UNL     1      25.230   3.452  51.462  1.00  0.00    -0.383 N 
HETATM   34  H17 UNL     1      25.350   2.735  52.208  1.00  0.00     0.157 HD
HETATM   35  H18 UNL     1      26.224   3.351  51.174  1.00  0.00     0.157 HD
ENDBRANCH   5  33
TORSDOF 8
ENDMDL
MODEL 9
REMARK VINA RESULT:      -7.3      4.958      7.278
REMARK  8 active torsions:
REMARK  status: ('A' for Active; 'I' for Inactive)
REMARK    1  A    between atoms: N2_12  and  C11_13 
REMARK    2  A    between atoms: C13_17  and  N5_18 
REMARK    3  A    between atoms: C14_19  and  C15_20 
REMARK    4  A    between atoms: C15_20  and  C16_21 
REMARK    5  A    between atoms: C16_21  and  C18_23 
REMARK    6  A    between atoms: C19_24  and  O1_25 
REMARK    7  A    between atoms: O1_25  and  C20_26 
REMARK    8  A    between atoms: C20_26  and  C21_27 
ROOT
HETATM    1  C11 UNL     1      22.510   5.604  50.007  1.00  0.00     0.141 A 
HETATM    2  N3  UNL     1      21.611   6.401  50.657  1.00  0.00    -0.224 NA
HETATM    3  C12 UNL     1      21.627   7.742  50.571  1.00  0.00     0.237 A 
HETATM    4  N4  UNL     1      22.563   8.376  49.812  1.00  0.00    -0.224 NA
HETATM    5  C13 UNL     1      23.474   7.603  49.151  1.00  0.00     0.132 A 
HETATM    6  C14 UNL     1      23.452   6.238  49.242  1.00  0.00     0.034 A 
ENDROOT
BRANCH   6   7
HETATM    7  C15 UNL     1      24.405   5.411  48.518  1.00  0.00     0.054 C 
BRANCH   7   8
HETATM    8  C16 UNL     1      25.619   5.131  49.356  1.00  0.00     0.010 C 
HETATM    9  C17 UNL     1      25.747   3.600  49.516  1.00  0.00     0.014 C 
BRANCH   8  10
HETATM   10  C18 UNL     1      26.872   5.580  48.702  1.00  0.00     0.002 C 
HETATM   11  C19 UNL     1      28.164   5.340  48.556  1.00  0.00     0.131 C 
BRANCH  11  12
HETATM   12  O1  UNL     1      29.088   6.043  47.795  1.00  0.00    -0.360 OA
BRANCH  12  13
HETATM   13  C20 UNL     1      30.143   6.783  48.359  1.00  0.00     0.212 C 
BRANCH  13  14
HETATM   14  C21 UNL     1      31.493   6.227  48.027  1.00  0.00     0.083 C 
HETATM   15  C22 UNL     1      31.853   6.213  46.585  1.00  0.00     0.043 C 
HETATM   16  C23 UNL     1      32.813   5.021  46.518  1.00  0.00     0.035 C 
HETATM   17  C24 UNL     1      32.921   4.644  47.970  1.00  0.00     0.122 C 
HETATM   18  C25 UNL     1      33.663   5.706  48.709  1.00  0.00     0.035 C 
HETATM   19  O2  UNL     1      31.598   4.864  48.390  1.00  0.00    -0.373 OA
HETATM   20  C26 UNL     1      32.603   6.810  48.838  1.00  0.00     0.043 C 
ENDBRANCH  13  14
ENDBRANCH  12  13
ENDBRANCH  11  12
ENDBRANCH   8  10
ENDBRANCH   7   8
ENDBRANCH   6   7
BRANCH   1  21
HETATM   21  N2  UNL     1      22.232   4.245  50.281  1.00  0.00    -0.329 N 
HETATM   22  C2  UNL     1      22.776   3.967  51.594  1.00  0.00     0.037 C 
HETATM   23  C1  UNL     1      23.444   4.941  52.185  1.00  0.00     0.041 C 
HETATM   24  C3  UNL     1      22.910   2.977  52.672  1.00  0.00     0.273 C 
HETATM   25  C4  UNL     1      24.357   2.657  52.973  1.00  0.00     0.072 C 
HETATM   26  N1  UNL     1      22.687   1.606  52.257  1.00  0.00     0.099 N 
HETATM   27  C5  UNL     1      23.799   1.254  53.162  1.00  0.00     0.276 C 
HETATM   28  C6  UNL     1      23.107   1.357  50.916  1.00  0.00     0.278 C 
HETATM   29  C7  UNL     1      21.967   1.318  49.964  1.00  0.00     0.018 C 
HETATM   30  C8  UNL     1      20.830   2.236  50.250  1.00  0.00     0.032 C 
HETATM   31  C10 UNL     1      22.342   2.247  48.807  1.00  0.00     0.032 C 
HETATM   32  C9  UNL     1      21.523   3.311  49.432  1.00  0.00     0.092 C 
ENDBRANCH   1  21
BRANCH   5  33
HETATM   33  N5  UNL     1      24.484   8.181  48.338  1.00  0.00    -0.383 N 
HETATM   34  H17 UNL     1      24.415   8.906  47.595  1.00  0.00     0.157 HD
HETATM   35  H18 UNL     1      25.512   8.105  48.201  1.00  0.00     0.157 HD
ENDBRANCH   5  33
TORSDOF 8
ENDMDL
