MODEL 1
REMARK VINA RESULT:      -9.8      0.000      0.000
REMARK  5 active torsions:
REMARK  status: ('A' for Active; 'I' for Inactive)
REMARK    1  A    between atoms: O1_2  and  C2_3 
REMARK    2  A    between atoms: C6_7  and  C7_8 
REMARK    3  A    between atoms: C8_9  and  C9_10 
REMARK       I    between atoms: C9_10  and  N1_12 
REMARK    4  A    between atoms: C15_21  and  N4_22 
REMARK    5  A    between atoms: N4_22  and  C16_23 
ROOT
HETATM    1  C9  UNL     1      24.826   2.285  51.180  1.00  0.00     0.233 C 
HETATM    2  O2  UNL     1      23.797   2.818  50.678  1.00  0.00    -0.272 OA
HETATM    3  N1  UNL     1      24.604   1.349  52.207  1.00  0.00    -0.323 N 
HETATM    4  C10 UNL     1      23.267   1.098  52.574  1.00  0.00     0.112 A 
HETATM    5  C11 UNL     1      23.157   0.191  53.560  1.00  0.00     0.056 A 
HETATM    6  C12 UNL     1      24.273  -0.487  54.211  1.00  0.00     0.070 A 
HETATM    7  C13 UNL     1      25.502  -0.197  53.811  1.00  0.00     0.026 A 
HETATM    8  C14 UNL     1      25.805   0.781  52.734  1.00  0.00     0.161 A 
HETATM    9  N2  UNL     1      24.006  -1.431  55.251  1.00  0.00    -0.239 N 
HETATM   10  O3  UNL     1      22.677  -1.665  55.600  1.00  0.00    -0.130 OA
HETATM   11  N3  UNL     1      21.645  -1.014  54.972  1.00  0.00    -0.088 NA
HETATM   12  C15 UNL     1      21.819  -0.155  54.030  1.00  0.00     0.171 A 
HETATM   13  H13 UNL     1      24.819  -1.891  55.690  1.00  0.00     0.197 HD
ENDROOT
BRANCH   1  14
HETATM   14  C8  UNL     1      25.711   3.024  50.321  1.00  0.00     0.118 C 
HETATM   15  C7  UNL     1      26.765   3.094  49.574  1.00  0.00    -0.000 C 
BRANCH  15  16
HETATM   16  C6  UNL     1      26.805   4.480  49.070  1.00  0.00    -0.036 A 
HETATM   17  C5  UNL     1      25.766   5.400  49.020  1.00  0.00     0.011 A 
HETATM   18  C4  UNL     1      25.850   6.682  48.541  1.00  0.00     0.004 A 
HETATM   19  C3  UNL     1      27.039   7.136  48.061  1.00  0.00     0.037 A 
HETATM   20  C2  UNL     1      28.143   6.310  48.061  1.00  0.00     0.069 A 
HETATM   21  C22 UNL     1      27.969   5.052  48.555  1.00  0.00     0.047 A 
BRANCH  20  22
HETATM   22  O1  UNL     1      29.368   6.729  47.584  1.00  0.00    -0.356 OA
HETATM   23  C1  UNL     1      30.361   7.140  48.497  1.00  0.00     0.210 C 
ENDBRANCH  20  22
ENDBRANCH  15  16
ENDBRANCH   1  14
BRANCH  12  24
HETATM   24  N4  UNL     1      20.658   0.439  53.476  1.00  0.00    -0.338 N 
HETATM   25  H14 UNL     1      20.688   1.473  53.334  1.00  0.00     0.167 HD
BRANCH  24  26
HETATM   26  C16 UNL     1      19.484  -0.273  53.108  1.00  0.00     0.035 A 
HETATM   27  C17 UNL     1      18.914  -1.340  53.757  1.00  0.00     0.029 A 
HETATM   28  C18 UNL     1      17.777  -1.978  53.351  1.00  0.00     0.004 A 
HETATM   29  C19 UNL     1      17.122  -1.562  52.220  1.00  0.00     0.019 A 
HETATM   30  C20 UNL     1      17.646  -0.494  51.524  1.00  0.00     0.013 A 
HETATM   31 BR1  UNL     1      16.771   0.123  49.944  1.00  0.00    -0.051 Br
HETATM   32  C21 UNL     1      18.796   0.126  51.965  1.00  0.00     0.048 A 
ENDBRANCH  24  26
ENDBRANCH  12  24
TORSDOF 5
ENDMDL
MODEL 2
REMARK VINA RESULT:      -9.8      1.050      1.716
REMARK  5 active torsions:
REMARK  status: ('A' for Active; 'I' for Inactive)
REMARK    1  A    between atoms: O1_2  and  C2_3 
REMARK    2  A    between atoms: C6_7  and  C7_8 
REMARK    3  A    between atoms: C8_9  and  C9_10 
REMARK       I    between atoms: C9_10  and  N1_12 
REMARK    4  A    between atoms: C15_21  and  N4_22 
REMARK    5  A    between atoms: N4_22  and  C16_23 
ROOT
HETATM    1  C9  UNL     1      24.800   2.261  51.199  1.00  0.00     0.233 C 
HETATM    2  O2  UNL     1      23.772   2.797  50.700  1.00  0.00    -0.272 OA
HETATM    3  N1  UNL     1      24.579   1.326  52.226  1.00  0.00    -0.323 N 
HETATM    4  C10 UNL     1      23.243   1.077  52.597  1.00  0.00     0.112 A 
HETATM    5  C11 UNL     1      23.133   0.171  53.583  1.00  0.00     0.056 A 
HETATM    6  C12 UNL     1      24.249  -0.510  54.231  1.00  0.00     0.070 A 
HETATM    7  C13 UNL     1      25.477  -0.224  53.827  1.00  0.00     0.026 A 
HETATM    8  C14 UNL     1      25.780   0.754  52.749  1.00  0.00     0.161 A 
HETATM    9  N2  UNL     1      23.982  -1.454  55.271  1.00  0.00    -0.239 N 
HETATM   10  O3  UNL     1      22.653  -1.684  55.624  1.00  0.00    -0.130 OA
HETATM   11  N3  UNL     1      21.622  -1.031  54.999  1.00  0.00    -0.088 NA
HETATM   12  C15 UNL     1      21.795  -0.171  54.057  1.00  0.00     0.171 A 
HETATM   13  H13 UNL     1      24.795  -1.916  55.708  1.00  0.00     0.197 HD
ENDROOT
BRANCH   1  14
HETATM   14  C8  UNL     1      25.684   2.998  50.337  1.00  0.00     0.118 C 
HETATM   15  C7  UNL     1      26.710   3.054  49.550  1.00  0.00    -0.000 C 
BRANCH  15  16
HETATM   16  C6  UNL     1      26.797   4.459  49.108  1.00  0.00    -0.036 A 
HETATM   17  C5  UNL     1      27.886   5.111  48.546  1.00  0.00     0.011 A 
HETATM   18  C4  UNL     1      27.920   6.423  48.149  1.00  0.00     0.004 A 
HETATM   19  C3  UNL     1      26.809   7.193  48.302  1.00  0.00     0.037 A 
HETATM   20  C2  UNL     1      25.666   6.653  48.851  1.00  0.00     0.069 A 
HETATM   21  C22 UNL     1      25.720   5.341  49.217  1.00  0.00     0.047 A 
BRANCH  20  22
HETATM   22  O1  UNL     1      24.517   7.396  49.024  1.00  0.00    -0.356 OA
HETATM   23  C1  UNL     1      24.321   8.093  50.235  1.00  0.00     0.210 C 
ENDBRANCH  20  22
ENDBRANCH  15  16
ENDBRANCH   1  14
BRANCH  12  24
HETATM   24  N4  UNL     1      20.634   0.426  53.507  1.00  0.00    -0.338 N 
HETATM   25  H14 UNL     1      20.663   1.461  53.374  1.00  0.00     0.167 HD
BRANCH  24  26
HETATM   26  C16 UNL     1      19.461  -0.284  53.131  1.00  0.00     0.035 A 
HETATM   27  C17 UNL     1      18.880  -1.344  53.782  1.00  0.00     0.029 A 
HETATM   28  C18 UNL     1      17.745  -1.981  53.368  1.00  0.00     0.004 A 
HETATM   29  C19 UNL     1      17.104  -1.570  52.227  1.00  0.00     0.019 A 
HETATM   30  C20 UNL     1      17.640  -0.510  51.528  1.00  0.00     0.013 A 
HETATM   31 BR1  UNL     1      16.786   0.098  49.934  1.00  0.00    -0.051 Br
HETATM   32  C21 UNL     1      18.788   0.109  51.977  1.00  0.00     0.048 A 
ENDBRANCH  24  26
ENDBRANCH  12  24
TORSDOF 5
ENDMDL
MODEL 3
REMARK VINA RESULT:      -9.8      4.115      6.171
REMARK  5 active torsions:
REMARK  status: ('A' for Active; 'I' for Inactive)
REMARK    1  A    between atoms: O1_2  and  C2_3 
REMARK    2  A    between atoms: C6_7  and  C7_8 
REMARK    3  A    between atoms: C8_9  and  C9_10 
REMARK       I    between atoms: C9_10  and  N1_12 
REMARK    4  A    between atoms: C15_21  and  N4_22 
REMARK    5  A    between atoms: N4_22  and  C16_23 
ROOT
HETATM    1  C9  UNL     1      27.140   5.376  49.023  1.00  0.00     0.233 C 
HETATM    2  O2  UNL     1      27.547   4.206  48.782  1.00  0.00    -0.272 OA
HETATM    3  N1  UNL     1      25.964   5.481  49.790  1.00  0.00    -0.323 N 
HETATM    4  C10 UNL     1      25.360   4.280  50.212  1.00  0.00     0.112 A 
HETATM    5  C11 UNL     1      24.247   4.482  50.938  1.00  0.00     0.056 A 
HETATM    6  C12 UNL     1      23.686   5.785  51.276  1.00  0.00     0.070 A 
HETATM    7  C13 UNL     1      24.311   6.869  50.843  1.00  0.00     0.026 A 
HETATM    8  C14 UNL     1      25.554   6.829  50.028  1.00  0.00     0.161 A 
HETATM    9  N2  UNL     1      22.490   5.849  52.057  1.00  0.00    -0.239 N 
HETATM   10  O3  UNL     1      21.906   4.650  52.465  1.00  0.00    -0.130 OA
HETATM   11  N3  UNL     1      22.455   3.437  52.133  1.00  0.00    -0.088 NA
HETATM   12  C15 UNL     1      23.528   3.313  51.434  1.00  0.00     0.171 A 
HETATM   13  H13 UNL     1      22.120   6.788  52.278  1.00  0.00     0.197 HD
ENDROOT
BRANCH   1  14
HETATM   14  C8  UNL     1      28.226   5.977  48.297  1.00  0.00     0.118 C 
HETATM   15  C7  UNL     1      28.704   6.922  47.553  1.00  0.00    -0.000 C 
BRANCH  15  16
HETATM   16  C6  UNL     1      30.117   6.568  47.319  1.00  0.00    -0.036 A 
HETATM   17  C5  UNL     1      31.074   7.293  46.620  1.00  0.00     0.011 A 
HETATM   18  C4  UNL     1      32.380   6.922  46.428  1.00  0.00     0.004 A 
HETATM   19  C3  UNL     1      32.821   5.746  46.949  1.00  0.00     0.037 A 
HETATM   20  C2  UNL     1      31.959   4.941  47.663  1.00  0.00     0.069 A 
HETATM   21  C22 UNL     1      30.679   5.386  47.806  1.00  0.00     0.047 A 
BRANCH  20  22
HETATM   22  O1  UNL     1      32.364   3.741  48.209  1.00  0.00    -0.356 OA
HETATM   23  C1  UNL     1      32.953   2.766  47.378  1.00  0.00     0.210 C 
ENDBRANCH  20  22
ENDBRANCH  15  16
ENDBRANCH   1  14
BRANCH  12  24
HETATM   24  N4  UNL     1      23.975   1.994  51.167  1.00  0.00    -0.338 N 
HETATM   25  H14 UNL     1      23.966   1.695  50.167  1.00  0.00     0.167 HD
BRANCH  24  26
HETATM   26  C16 UNL     1      24.427   1.079  52.157  1.00  0.00     0.035 A 
HETATM   27  C17 UNL     1      23.661   0.279  52.968  1.00  0.00     0.029 A 
HETATM   28  C18 UNL     1      24.161  -0.586  53.899  1.00  0.00     0.004 A 
HETATM   29  C19 UNL     1      25.517  -0.698  54.074  1.00  0.00     0.019 A 
HETATM   30  C20 UNL     1      26.339   0.081  53.288  1.00  0.00     0.013 A 
HETATM   31 BR1  UNL     1      28.232  -0.039  53.495  1.00  0.00    -0.051 Br
HETATM   32  C21 UNL     1      25.797   0.943  52.358  1.00  0.00     0.048 A 
ENDBRANCH  24  26
ENDBRANCH  12  24
TORSDOF 5
ENDMDL
MODEL 4
REMARK VINA RESULT:      -9.7      2.334      3.292
REMARK  5 active torsions:
REMARK  status: ('A' for Active; 'I' for Inactive)
REMARK    1  A    between atoms: O1_2  and  C2_3 
REMARK    2  A    between atoms: C6_7  and  C7_8 
REMARK    3  A    between atoms: C8_9  and  C9_10 
REMARK       I    between atoms: C9_10  and  N1_12 
REMARK    4  A    between atoms: C15_21  and  N4_22 
REMARK    5  A    between atoms: N4_22  and  C16_23 
ROOT
HETATM    1  C9  UNL     1      26.527   3.190  50.536  1.00  0.00     0.233 C 
HETATM    2  O2  UNL     1      25.476   2.876  49.910  1.00  0.00    -0.272 OA
HETATM    3  N1  UNL     1      26.818   2.430  51.683  1.00  0.00    -0.323 N 
HETATM    4  C10 UNL     1      25.919   1.399  52.021  1.00  0.00     0.112 A 
HETATM    5  C11 UNL     1      26.282   0.730  53.129  1.00  0.00     0.056 A 
HETATM    6  C12 UNL     1      27.471   1.005  53.929  1.00  0.00     0.070 A 
HETATM    7  C13 UNL     1      28.269   1.991  53.547  1.00  0.00     0.026 A 
HETATM    8  C14 UNL     1      28.019   2.832  52.347  1.00  0.00     0.161 A 
HETATM    9  N2  UNL     1      27.732   0.210  55.088  1.00  0.00    -0.239 N 
HETATM   10  O3  UNL     1      26.830  -0.803  55.406  1.00  0.00    -0.130 OA
HETATM   11  N3  UNL     1      25.719  -1.041  54.637  1.00  0.00    -0.088 NA
HETATM   12  C15 UNL     1      25.428  -0.362  53.583  1.00  0.00     0.171 A 
HETATM   13  H13 UNL     1      28.581   0.433  55.631  1.00  0.00     0.197 HD
ENDROOT
BRANCH   1  14
HETATM   14  C8  UNL     1      26.840   4.249  49.615  1.00  0.00     0.118 C 
HETATM   15  C7  UNL     1      26.474   5.173  48.786  1.00  0.00    -0.000 C 
BRANCH  15  16
HETATM   16  C6  UNL     1      27.722   5.789  48.299  1.00  0.00    -0.036 A 
HETATM   17  C5  UNL     1      27.881   7.023  47.682  1.00  0.00     0.011 A 
HETATM   18  C4  UNL     1      29.066   7.555  47.244  1.00  0.00     0.004 A 
HETATM   19  C3  UNL     1      30.215   6.846  47.408  1.00  0.00     0.037 A 
HETATM   20  C2  UNL     1      30.180   5.606  48.009  1.00  0.00     0.069 A 
HETATM   21  C22 UNL     1      28.960   5.153  48.413  1.00  0.00     0.047 A 
BRANCH  20  22
HETATM   22  O1  UNL     1      31.320   4.852  48.196  1.00  0.00    -0.356 OA
HETATM   23  C1  UNL     1      31.805   4.057  47.137  1.00  0.00     0.210 C 
ENDBRANCH  20  22
ENDBRANCH  15  16
ENDBRANCH   1  14
BRANCH  12  24
HETATM   24  N4  UNL     1      24.245  -0.721  52.890  1.00  0.00    -0.338 N 
HETATM   25  H14 UNL     1      24.370  -1.282  52.019  1.00  0.00     0.167 HD
BRANCH  24  26
HETATM   26  C16 UNL     1      22.930  -0.374  53.305  1.00  0.00     0.035 A 
HETATM   27  C17 UNL     1      22.129  -1.044  54.196  1.00  0.00     0.029 A 
HETATM   28  C18 UNL     1      20.871  -0.651  54.555  1.00  0.00     0.004 A 
HETATM   29  C19 UNL     1      20.325   0.485  54.015  1.00  0.00     0.019 A 
HETATM   30  C20 UNL     1      21.082   1.202  53.112  1.00  0.00     0.013 A 
HETATM   31 BR1  UNL     1      20.367   2.789  52.333  1.00  0.00    -0.051 Br
HETATM   32  C21 UNL     1      22.349   0.774  52.774  1.00  0.00     0.048 A 
ENDBRANCH  24  26
ENDBRANCH  12  24
TORSDOF 5
ENDMDL
MODEL 5
REMARK VINA RESULT:      -9.5      4.508     10.744
REMARK  5 active torsions:
REMARK  status: ('A' for Active; 'I' for Inactive)
REMARK    1  A    between atoms: O1_2  and  C2_3 
REMARK    2  A    between atoms: C6_7  and  C7_8 
REMARK    3  A    between atoms: C8_9  and  C9_10 
REMARK       I    between atoms: C9_10  and  N1_12 
REMARK    4  A    between atoms: C15_21  and  N4_22 
REMARK    5  A    between atoms: N4_22  and  C16_23 
ROOT
HETATM    1  C9  UNL     1      24.761   2.779  50.904  1.00  0.00     0.233 C 
HETATM    2  O2  UNL     1      25.860   2.266  51.252  1.00  0.00    -0.272 OA
HETATM    3  N1  UNL     1      24.839   3.924  50.090  1.00  0.00    -0.323 N 
HETATM    4  C10 UNL     1      26.125   4.383  49.743  1.00  0.00     0.112 A 
HETATM    5  C11 UNL     1      26.097   5.478  48.964  1.00  0.00     0.056 A 
HETATM    6  C12 UNL     1      24.889   6.154  48.502  1.00  0.00     0.070 A 
HETATM    7  C13 UNL     1      23.716   5.662  48.870  1.00  0.00     0.026 A 
HETATM    8  C14 UNL     1      23.563   4.459  49.729  1.00  0.00     0.161 A 
HETATM    9  N2  UNL     1      25.011   7.315  47.676  1.00  0.00    -0.239 N 
HETATM   10  O3  UNL     1      26.292   7.754  47.345  1.00  0.00    -0.130 OA
HETATM   11  N3  UNL     1      27.412   7.100  47.792  1.00  0.00    -0.088 NA
HETATM   12  C15 UNL     1      27.370   6.052  48.537  1.00  0.00     0.171 A 
HETATM   13  H13 UNL     1      24.136   7.768  47.368  1.00  0.00     0.197 HD
ENDROOT
BRANCH   1  14
HETATM   14  C8  UNL     1      23.997   1.793  51.618  1.00  0.00     0.118 C 
HETATM   15  C7  UNL     1      22.931   1.073  51.761  1.00  0.00    -0.000 C 
BRANCH  15  16
HETATM   16  C6  UNL     1      23.154   0.267  52.976  1.00  0.00    -0.036 A 
HETATM   17  C5  UNL     1      22.206  -0.383  53.755  1.00  0.00     0.011 A 
HETATM   18  C4  UNL     1      22.462  -1.124  54.880  1.00  0.00     0.004 A 
HETATM   19  C3  UNL     1      23.746  -1.261  55.309  1.00  0.00     0.037 A 
HETATM   20  C2  UNL     1      24.772  -0.658  54.614  1.00  0.00     0.069 A 
HETATM   21  C22 UNL     1      24.428   0.059  53.507  1.00  0.00     0.047 A 
BRANCH  20  22
HETATM   22  O1  UNL     1      26.088  -0.771  55.012  1.00  0.00    -0.356 OA
HETATM   23  C1  UNL     1      27.034   0.164  54.544  1.00  0.00     0.210 C 
ENDBRANCH  20  22
ENDBRANCH  15  16
ENDBRANCH   1  14
BRANCH  12  24
HETATM   24  N4  UNL     1      28.610   5.485  48.925  1.00  0.00    -0.338 N 
HETATM   25  H14 UNL     1      28.567   4.707  49.619  1.00  0.00     0.167 HD
BRANCH  24  26
HETATM   26  C16 UNL     1      29.877   5.901  48.432  1.00  0.00     0.035 A 
HETATM   27  C17 UNL     1      30.507   7.101  48.651  1.00  0.00     0.029 A 
HETATM   28  C18 UNL     1      31.732   7.437  48.150  1.00  0.00     0.004 A 
HETATM   29  C19 UNL     1      32.421   6.547  47.366  1.00  0.00     0.019 A 
HETATM   30  C20 UNL     1      31.839   5.324  47.110  1.00  0.00     0.013 A 
HETATM   31 BR1  UNL     1      32.758   4.052  46.024  1.00  0.00    -0.051 Br
HETATM   32  C21 UNL     1      30.600   5.020  47.633  1.00  0.00     0.048 A 
ENDBRANCH  24  26
ENDBRANCH  12  24
TORSDOF 5
ENDMDL
MODEL 6
REMARK VINA RESULT:      -9.4      5.193     11.536
REMARK  5 active torsions:
REMARK  status: ('A' for Active; 'I' for Inactive)
REMARK    1  A    between atoms: O1_2  and  C2_3 
REMARK    2  A    between atoms: C6_7  and  C7_8 
REMARK    3  A    between atoms: C8_9  and  C9_10 
REMARK       I    between atoms: C9_10  and  N1_12 
REMARK    4  A    between atoms: C15_21  and  N4_22 
REMARK    5  A    between atoms: N4_22  and  C16_23 
ROOT
HETATM    1  C9  UNL     1      26.006   3.705  49.722  1.00  0.00     0.233 C 
HETATM    2  O2  UNL     1      26.824   2.750  49.834  1.00  0.00    -0.272 OA
HETATM    3  N1  UNL     1      26.499   4.880  49.125  1.00  0.00    -0.323 N 
HETATM    4  C10 UNL     1      27.846   4.879  48.714  1.00  0.00     0.112 A 
HETATM    5  C11 UNL     1      28.224   6.042  48.157  1.00  0.00     0.056 A 
HETATM    6  C12 UNL     1      27.366   7.208  47.975  1.00  0.00     0.070 A 
HETATM    7  C13 UNL     1      26.109   7.133  48.387  1.00  0.00     0.026 A 
HETATM    8  C14 UNL     1      25.526   5.923  49.026  1.00  0.00     0.161 A 
HETATM    9  N2  UNL     1      27.904   8.384  47.365  1.00  0.00    -0.239 N 
HETATM   10  O3  UNL     1      29.240   8.364  46.966  1.00  0.00    -0.130 OA
HETATM   11  N3  UNL     1      30.026   7.254  47.148  1.00  0.00    -0.088 NA
HETATM   12  C15 UNL     1      29.601   6.166  47.690  1.00  0.00     0.171 A 
HETATM   13  H13 UNL     1      27.269   9.190  47.254  1.00  0.00     0.197 HD
ENDROOT
BRANCH   1  14
HETATM   14  C8  UNL     1      24.942   2.955  50.332  1.00  0.00     0.118 C 
HETATM   15  C7  UNL     1      23.688   2.656  50.445  1.00  0.00    -0.000 C 
BRANCH  15  16
HETATM   16  C6  UNL     1      23.617   1.626  51.499  1.00  0.00    -0.036 A 
HETATM   17  C5  UNL     1      22.483   1.026  52.030  1.00  0.00     0.011 A 
HETATM   18  C4  UNL     1      22.465   0.070  53.013  1.00  0.00     0.004 A 
HETATM   19  C3  UNL     1      23.642  -0.359  53.544  1.00  0.00     0.037 A 
HETATM   20  C2  UNL     1      24.834   0.167  53.095  1.00  0.00     0.069 A 
HETATM   21  C22 UNL     1      24.758   1.112  52.116  1.00  0.00     0.047 A 
BRANCH  20  22
HETATM   22  O1  UNL     1      26.050  -0.238  53.606  1.00  0.00    -0.356 OA
HETATM   23  C1  UNL     1      26.510   0.316  54.818  1.00  0.00     0.210 C 
ENDBRANCH  20  22
ENDBRANCH  15  16
ENDBRANCH   1  14
BRANCH  12  24
HETATM   24  N4  UNL     1      30.529   5.102  47.814  1.00  0.00    -0.338 N 
HETATM   25  H14 UNL     1      30.126   4.141  47.877  1.00  0.00     0.167 HD
BRANCH  24  26
HETATM   26  C16 UNL     1      31.941   5.263  47.854  1.00  0.00     0.035 A 
HETATM   27  C17 UNL     1      32.677   5.970  48.772  1.00  0.00     0.029 A 
HETATM   28  C18 UNL     1      34.038   6.080  48.756  1.00  0.00     0.004 A 
HETATM   29  C19 UNL     1      34.766   5.460  47.773  1.00  0.00     0.019 A 
HETATM   30  C20 UNL     1      34.082   4.734  46.821  1.00  0.00     0.013 A 
HETATM   31 BR1  UNL     1      35.050   3.852  45.433  1.00  0.00    -0.051 Br
HETATM   32  C21 UNL     1      32.707   4.645  46.870  1.00  0.00     0.048 A 
ENDBRANCH  24  26
ENDBRANCH  12  24
TORSDOF 5
ENDMDL
MODEL 7
REMARK VINA RESULT:      -9.4      3.647      9.780
REMARK  5 active torsions:
REMARK  status: ('A' for Active; 'I' for Inactive)
REMARK    1  A    between atoms: O1_2  and  C2_3 
REMARK    2  A    between atoms: C6_7  and  C7_8 
REMARK    3  A    between atoms: C8_9  and  C9_10 
REMARK       I    between atoms: C9_10  and  N1_12 
REMARK    4  A    between atoms: C15_21  and  N4_22 
REMARK    5  A    between atoms: N4_22  and  C16_23 
ROOT
HETATM    1  C9  UNL     1      20.615  -0.619  53.058  1.00  0.00     0.233 C 
HETATM    2  O2  UNL     1      20.539   0.080  52.009  1.00  0.00    -0.272 OA
HETATM    3  N1  UNL     1      21.880  -0.689  53.669  1.00  0.00    -0.323 N 
HETATM    4  C10 UNL     1      22.933   0.020  53.059  1.00  0.00     0.112 A 
HETATM    5  C11 UNL     1      24.099  -0.107  53.714  1.00  0.00     0.056 A 
HETATM    6  C12 UNL     1      24.302  -0.886  54.932  1.00  0.00     0.070 A 
HETATM    7  C13 UNL     1      23.263  -1.526  55.447  1.00  0.00     0.026 A 
HETATM    8  C14 UNL     1      21.901  -1.494  54.851  1.00  0.00     0.161 A 
HETATM    9  N2  UNL     1      25.603  -0.933  55.522  1.00  0.00    -0.239 N 
HETATM   10  O3  UNL     1      26.632  -0.225  54.902  1.00  0.00    -0.130 OA
HETATM   11  N3  UNL     1      26.414   0.500  53.757  1.00  0.00    -0.088 NA
HETATM   12  C15 UNL     1      25.268   0.582  53.178  1.00  0.00     0.171 A 
HETATM   13  H13 UNL     1      25.710  -1.494  56.382  1.00  0.00     0.197 HD
ENDROOT
BRANCH   1  14
HETATM   14  C8  UNL     1      19.221  -0.969  53.006  1.00  0.00     0.118 C 
HETATM   15  C7  UNL     1      17.976  -0.640  52.878  1.00  0.00    -0.000 C 
BRANCH  15  16
HETATM   16  C6  UNL     1      17.218  -1.902  52.985  1.00  0.00    -0.036 A 
HETATM   17  C5  UNL     1      17.595  -3.072  53.630  1.00  0.00     0.011 A 
HETATM   18  C4  UNL     1      16.855  -4.224  53.703  1.00  0.00     0.004 A 
HETATM   19  C3  UNL     1      15.636  -4.270  53.102  1.00  0.00     0.037 A 
HETATM   20  C2  UNL     1      15.156  -3.166  52.429  1.00  0.00     0.069 A 
HETATM   21  C22 UNL     1      15.958  -2.064  52.407  1.00  0.00     0.047 A 
BRANCH  20  22
HETATM   22  O1  UNL     1      13.926  -3.168  51.806  1.00  0.00    -0.356 OA
HETATM   23  C1  UNL     1      13.786  -3.804  50.555  1.00  0.00     0.210 C 
ENDBRANCH  20  22
ENDBRANCH  15  16
ENDBRANCH   1  14
BRANCH  12  24
HETATM   24  N4  UNL     1      25.196   1.366  52.000  1.00  0.00    -0.338 N 
HETATM   25  H14 UNL     1      25.570   0.930  51.129  1.00  0.00     0.167 HD
BRANCH  24  26
HETATM   26  C16 UNL     1      24.655   2.679  51.936  1.00  0.00     0.035 A 
HETATM   27  C17 UNL     1      24.100   3.407  52.960  1.00  0.00     0.029 A 
HETATM   28  C18 UNL     1      23.601   4.671  52.831  1.00  0.00     0.004 A 
HETATM   29  C19 UNL     1      23.633   5.302  51.613  1.00  0.00     0.019 A 
HETATM   30  C20 UNL     1      24.179   4.622  50.545  1.00  0.00     0.013 A 
HETATM   31 BR1  UNL     1      24.246   5.457  48.831  1.00  0.00    -0.051 Br
HETATM   32  C21 UNL     1      24.673   3.346  50.714  1.00  0.00     0.048 A 
ENDBRANCH  24  26
ENDBRANCH  12  24
TORSDOF 5
ENDMDL
MODEL 8
REMARK VINA RESULT:      -9.3      4.083      6.144
REMARK  5 active torsions:
REMARK  status: ('A' for Active; 'I' for Inactive)
REMARK    1  A    between atoms: O1_2  and  C2_3 
REMARK    2  A    between atoms: C6_7  and  C7_8 
REMARK    3  A    between atoms: C8_9  and  C9_10 
REMARK       I    between atoms: C9_10  and  N1_12 
REMARK    4  A    between atoms: C15_21  and  N4_22 
REMARK    5  A    between atoms: N4_22  and  C16_23 
ROOT
HETATM    1  C9  UNL     1      21.827  -0.075  52.799  1.00  0.00     0.233 C 
HETATM    2  O2  UNL     1      21.432  -0.636  53.858  1.00  0.00    -0.272 OA
HETATM    3  N1  UNL     1      20.829   0.275  51.870  1.00  0.00    -0.323 N 
HETATM    4  C10 UNL     1      19.497  -0.030  52.208  1.00  0.00     0.112 A 
HETATM    5  C11 UNL     1      18.618   0.343  51.262  1.00  0.00     0.056 A 
HETATM    6  C12 UNL     1      18.961   0.996  50.004  1.00  0.00     0.070 A 
HETATM    7  C13 UNL     1      20.236   1.252  49.757  1.00  0.00     0.026 A 
HETATM    8  C14 UNL     1      21.339   0.907  50.693  1.00  0.00     0.161 A 
HETATM    9  N2  UNL     1      17.918   1.336  49.087  1.00  0.00    -0.239 N 
HETATM   10  O3  UNL     1      16.605   1.024  49.439  1.00  0.00    -0.130 OA
HETATM   11  N3  UNL     1      16.310   0.409  50.630  1.00  0.00    -0.088 NA
HETATM   12  C15 UNL     1      17.202   0.079  51.496  1.00  0.00     0.171 A 
HETATM   13  H13 UNL     1      18.196   1.797  48.206  1.00  0.00     0.197 HD
ENDROOT
BRANCH   1  14
HETATM   14  C8  UNL     1      23.206  -0.130  53.203  1.00  0.00     0.118 C 
HETATM   15  C7  UNL     1      24.145  -0.598  53.960  1.00  0.00    -0.000 C 
BRANCH  15  16
HETATM   16  C6  UNL     1      25.384   0.071  53.517  1.00  0.00    -0.036 A 
HETATM   17  C5  UNL     1      25.524   1.047  52.540  1.00  0.00     0.011 A 
HETATM   18  C4  UNL     1      26.700   1.641  52.161  1.00  0.00     0.004 A 
HETATM   19  C3  UNL     1      27.859   1.271  52.771  1.00  0.00     0.037 A 
HETATM   20  C2  UNL     1      27.842   0.309  53.757  1.00  0.00     0.069 A 
HETATM   21  C22 UNL     1      26.630  -0.229  54.071  1.00  0.00     0.047 A 
BRANCH  20  22
HETATM   22  O1  UNL     1      28.993  -0.097  54.402  1.00  0.00    -0.356 OA
HETATM   23  C1  UNL     1      29.888  -0.961  53.739  1.00  0.00     0.210 C 
ENDBRANCH  20  22
ENDBRANCH  15  16
ENDBRANCH   1  14
BRANCH  12  24
HETATM   24  N4  UNL     1      16.747  -0.554  52.681  1.00  0.00    -0.338 N 
HETATM   25  H14 UNL     1      16.518   0.074  53.482  1.00  0.00     0.167 HD
BRANCH  24  26
HETATM   26  C16 UNL     1      16.586  -1.958  52.836  1.00  0.00     0.035 A 
HETATM   27  C17 UNL     1      17.413  -2.826  53.504  1.00  0.00     0.029 A 
HETATM   28  C18 UNL     1      17.196  -4.169  53.620  1.00  0.00     0.004 A 
HETATM   29  C19 UNL     1      16.089  -4.739  53.044  1.00  0.00     0.019 A 
HETATM   30  C20 UNL     1      15.220  -3.917  52.358  1.00  0.00     0.013 A 
HETATM   31 BR1  UNL     1      13.666  -4.662  51.540  1.00  0.00    -0.051 Br
HETATM   32  C21 UNL     1      15.472  -2.565  52.263  1.00  0.00     0.048 A 
ENDBRANCH  24  26
ENDBRANCH  12  24
TORSDOF 5
ENDMDL
MODEL 9
REMARK VINA RESULT:      -9.1      2.005      2.668
REMARK  5 active torsions:
REMARK  status: ('A' for Active; 'I' for Inactive)
REMARK    1  A    between atoms: O1_2  and  C2_3 
REMARK    2  A    between atoms: C6_7  and  C7_8 
REMARK    3  A    between atoms: C8_9  and  C9_10 
REMARK       I    between atoms: C9_10  and  N1_12 
REMARK    4  A    between atoms: C15_21  and  N4_22 
REMARK    5  A    between atoms: N4_22  and  C16_23 
ROOT
HETATM    1  C9  UNL     1      26.260   2.943  50.686  1.00  0.00     0.233 C 
HETATM    2  O2  UNL     1      25.273   2.623  49.968  1.00  0.00    -0.272 OA
HETATM    3  N1  UNL     1      26.421   2.219  51.882  1.00  0.00    -0.323 N 
HETATM    4  C10 UNL     1      25.474   1.214  52.161  1.00  0.00     0.112 A 
HETATM    5  C11 UNL     1      25.712   0.579  53.321  1.00  0.00     0.056 A 
HETATM    6  C12 UNL     1      26.819   0.865  54.228  1.00  0.00     0.070 A 
HETATM    7  C13 UNL     1      27.668   1.825  53.897  1.00  0.00     0.026 A 
HETATM    8  C14 UNL     1      27.555   2.628  52.651  1.00  0.00     0.161 A 
HETATM    9  N2  UNL     1      26.947   0.107  55.433  1.00  0.00    -0.239 N 
HETATM   10  O3  UNL     1      26.000  -0.882  55.692  1.00  0.00    -0.130 OA
HETATM   11  N3  UNL     1      24.968  -1.131  54.822  1.00  0.00    -0.088 NA
HETATM   12  C15 UNL     1      24.797  -0.485  53.723  1.00  0.00     0.171 A 
HETATM   13  H13 UNL     1      27.742   0.337  56.052  1.00  0.00     0.197 HD
ENDROOT
BRANCH   1  14
HETATM   14  C8  UNL     1      26.682   3.965  49.768  1.00  0.00     0.118 C 
HETATM   15  C7  UNL     1      27.476   4.396  48.840  1.00  0.00    -0.000 C 
BRANCH  15  16
HETATM   16  C6  UNL     1      27.010   5.758  48.517  1.00  0.00    -0.036 A 
HETATM   17  C5  UNL     1      25.712   6.249  48.565  1.00  0.00     0.011 A 
HETATM   18  C4  UNL     1      25.325   7.527  48.254  1.00  0.00     0.004 A 
HETATM   19  C3  UNL     1      26.264   8.428  47.859  1.00  0.00     0.037 A 
HETATM   20  C2  UNL     1      27.587   8.054  47.773  1.00  0.00     0.069 A 
HETATM   21  C22 UNL     1      27.883   6.764  48.101  1.00  0.00     0.047 A 
BRANCH  20  22
HETATM   22  O1  UNL     1      28.573   8.934  47.377  1.00  0.00    -0.356 OA
HETATM   23  C1  UNL     1      28.281   9.899  46.391  1.00  0.00     0.210 C 
ENDBRANCH  20  22
ENDBRANCH  15  16
ENDBRANCH   1  14
BRANCH  12  24
HETATM   24  N4  UNL     1      23.684  -0.852  52.926  1.00  0.00    -0.338 N 
HETATM   25  H14 UNL     1      23.843  -1.613  52.230  1.00  0.00     0.167 HD
BRANCH  24  26
HETATM   26  C16 UNL     1      22.395  -0.259  53.018  1.00  0.00     0.035 A 
HETATM   27  C17 UNL     1      21.672  -0.002  54.157  1.00  0.00     0.029 A 
HETATM   28  C18 UNL     1      20.435   0.577  54.176  1.00  0.00     0.004 A 
HETATM   29  C19 UNL     1      19.831   0.946  53.000  1.00  0.00     0.019 A 
HETATM   30  C20 UNL     1      20.508   0.713  51.823  1.00  0.00     0.013 A 
HETATM   31 BR1  UNL     1      19.709   1.207  50.162  1.00  0.00    -0.051 Br
HETATM   32  C21 UNL     1      21.756   0.126  51.843  1.00  0.00     0.048 A 
ENDBRANCH  24  26
ENDBRANCH  12  24
TORSDOF 5
ENDMDL
