MODEL 1
REMARK VINA RESULT:      -9.2      0.000      0.000
REMARK  2 active torsions:
REMARK  status: ('A' for Active; 'I' for Inactive)
REMARK    1  A    between atoms: C1_2  and  C2_3 
REMARK    2  A    between atoms: C13_14  and  C15_16 
ROOT
HETATM    1  C2  UNL     1      20.073   2.059  50.359  1.00  0.00     0.079 C 
HETATM    2  C3  UNL     1      21.377   1.780  49.697  1.00  0.00    -0.003 C 
HETATM    3  C4  UNL     1      22.558   1.589  50.333  1.00  0.00     0.010 C 
HETATM    4  C5  UNL     1      23.069   1.102  51.653  1.00  0.00    -0.018 A 
HETATM    5  C6  UNL     1      24.375   1.450  51.724  1.00  0.00    -0.043 A 
HETATM    6  C7  UNL     1      25.115   0.932  52.764  1.00  0.00     0.009 A 
HETATM    7  C8  UNL     1      24.496   0.088  53.696  1.00  0.00     0.013 A 
HETATM    8  C9  UNL     1      23.144  -0.276  53.650  1.00  0.00    -0.024 A 
HETATM    9  C10 UNL     1      22.685  -1.048  54.687  1.00  0.00     0.012 A 
HETATM   10  C11 UNL     1      21.333  -1.306  54.663  1.00  0.00     0.002 A 
HETATM   11  C12 UNL     1      20.511  -0.820  53.672  1.00  0.00     0.013 A 
HETATM   12  C13 UNL     1      21.065  -0.065  52.687  1.00  0.00    -0.012 A 
HETATM   13  C14 UNL     1      22.456   0.263  52.601  1.00  0.00    -0.004 A 
HETATM   14  C15 UNL     1      19.960   0.496  51.815  1.00  0.00    -0.002 C 
HETATM   15  C16 UNL     1      18.958   0.125  51.094  1.00  0.00    -0.011 C 
HETATM   16  C17 UNL     1      18.960   1.134  50.016  1.00  0.00     0.055 C 
HETATM   17  C18 UNL     1      20.172   1.980  51.812  1.00  0.00     0.066 C 
HETATM   18  N1  UNL     1      20.483   2.898  52.626  1.00  0.00    -0.244 NA
HETATM   19  C19 UNL     1      20.819   4.216  52.308  1.00  0.00     0.232 C 
HETATM   20  N2  UNL     1      21.855   4.782  51.778  1.00  0.00    -0.254 NA
HETATM   21  C20 UNL     1      23.028   4.161  51.339  1.00  0.00     0.114 C 
HETATM   22  C21 UNL     1      24.168   3.689  50.856  1.00  0.00    -0.003 C 
HETATM   23  C22 UNL     1      25.028   2.460  50.864  1.00  0.00     0.068 C 
ENDROOT
BRANCH   1  24
HETATM   24  C1  UNL     1      19.620   3.440  49.932  1.00  0.00     0.251 C 
HETATM   25  O1  UNL     1      19.837   4.109  48.948  1.00  0.00    -0.305 OA
ENDBRANCH   1  24
TORSDOF 2
ENDMDL
MODEL 2
REMARK VINA RESULT:      -9.2      1.477      4.031
REMARK  2 active torsions:
REMARK  status: ('A' for Active; 'I' for Inactive)
REMARK    1  A    between atoms: C1_2  and  C2_3 
REMARK    2  A    between atoms: C13_14  and  C15_16 
ROOT
HETATM    1  C2  UNL     1      21.648   3.743  51.359  1.00  0.00     0.079 C 
HETATM    2  C3  UNL     1      20.603   3.276  52.311  1.00  0.00    -0.003 C 
HETATM    3  C4  UNL     1      20.494   2.019  52.806  1.00  0.00     0.010 C 
HETATM    4  C5  UNL     1      21.366   0.841  53.109  1.00  0.00    -0.018 A 
HETATM    5  C6  UNL     1      20.544  -0.212  53.328  1.00  0.00    -0.043 A 
HETATM    6  C7  UNL     1      21.109  -1.367  53.823  1.00  0.00     0.009 A 
HETATM    7  C8  UNL     1      22.488  -1.408  54.069  1.00  0.00     0.013 A 
HETATM    8  C9  UNL     1      23.360  -0.335  53.839  1.00  0.00    -0.024 A 
HETATM    9  C10 UNL     1      24.692  -0.575  54.062  1.00  0.00     0.012 A 
HETATM   10  C11 UNL     1      25.531   0.467  53.734  1.00  0.00     0.002 A 
HETATM   11  C12 UNL     1      25.058   1.654  53.220  1.00  0.00     0.013 A 
HETATM   12  C13 UNL     1      23.719   1.791  53.038  1.00  0.00    -0.012 A 
HETATM   13  C14 UNL     1      22.751   0.784  53.349  1.00  0.00    -0.004 A 
HETATM   14  C15 UNL     1      23.451   3.093  52.311  1.00  0.00    -0.002 C 
HETATM   15  C16 UNL     1      23.662   4.361  52.402  1.00  0.00    -0.011 C 
HETATM   16  C17 UNL     1      22.440   4.925  51.795  1.00  0.00     0.055 C 
HETATM   17  C18 UNL     1      22.649   2.714  51.102  1.00  0.00     0.066 C 
HETATM   18  N1  UNL     1      22.627   1.805  50.221  1.00  0.00    -0.244 NA
HETATM   19  C19 UNL     1      21.615   1.571  49.289  1.00  0.00     0.232 C 
HETATM   20  N2  UNL     1      20.419   1.082  49.358  1.00  0.00    -0.254 NA
HETATM   21  C20 UNL     1      19.759   0.613  50.497  1.00  0.00     0.114 C 
HETATM   22  C21 UNL     1      19.016   0.176  51.504  1.00  0.00    -0.003 C 
HETATM   23  C22 UNL     1      19.121  -0.270  52.932  1.00  0.00     0.068 C 
ENDROOT
BRANCH   1  24
HETATM   24  C1  UNL     1      20.960   4.148  50.073  1.00  0.00     0.251 C 
HETATM   25  O1  UNL     1      19.850   4.565  49.829  1.00  0.00    -0.305 OA
ENDBRANCH   1  24
TORSDOF 2
ENDMDL
MODEL 3
REMARK VINA RESULT:      -8.9      1.357      2.425
REMARK  2 active torsions:
REMARK  status: ('A' for Active; 'I' for Inactive)
REMARK    1  A    between atoms: C1_2  and  C2_3 
REMARK    2  A    between atoms: C13_14  and  C15_16 
ROOT
HETATM    1  C2  UNL     1      22.013   2.980  49.761  1.00  0.00     0.079 C 
HETATM    2  C3  UNL     1      23.186   2.091  49.981  1.00  0.00    -0.003 C 
HETATM    3  C4  UNL     1      23.420   1.358  51.096  1.00  0.00     0.010 C 
HETATM    4  C5  UNL     1      22.653   0.700  52.201  1.00  0.00    -0.018 A 
HETATM    5  C6  UNL     1      23.549   0.368  53.160  1.00  0.00    -0.043 A 
HETATM    6  C7  UNL     1      23.108  -0.431  54.192  1.00  0.00     0.009 A 
HETATM    7  C8  UNL     1      21.772  -0.854  54.213  1.00  0.00     0.013 A 
HETATM    8  C9  UNL     1      20.824  -0.513  53.239  1.00  0.00    -0.024 A 
HETATM    9  C10 UNL     1      19.543  -0.950  53.458  1.00  0.00     0.012 A 
HETATM   10  C11 UNL     1      18.617  -0.516  52.534  1.00  0.00     0.002 A 
HETATM   11  C12 UNL     1      18.962   0.296  51.478  1.00  0.00     0.013 A 
HETATM   12  C13 UNL     1      20.261   0.673  51.350  1.00  0.00    -0.012 A 
HETATM   13  C14 UNL     1      21.311   0.279  52.239  1.00  0.00    -0.004 A 
HETATM   14  C15 UNL     1      20.372   1.689  50.232  1.00  0.00    -0.002 C 
HETATM   15  C16 UNL     1      20.108   1.845  48.980  1.00  0.00    -0.011 C 
HETATM   16  C17 UNL     1      21.218   2.710  48.532  1.00  0.00     0.055 C 
HETATM   17  C18 UNL     1      21.043   2.881  50.845  1.00  0.00     0.066 C 
HETATM   18  N1  UNL     1      21.008   3.542  51.925  1.00  0.00    -0.244 NA
HETATM   19  C19 UNL     1      21.913   4.524  52.331  1.00  0.00     0.232 C 
HETATM   20  N2  UNL     1      23.133   4.506  52.763  1.00  0.00    -0.254 NA
HETATM   21  C20 UNL     1      23.947   3.386  52.954  1.00  0.00     0.114 C 
HETATM   22  C21 UNL     1      24.826   2.412  53.142  1.00  0.00    -0.003 C 
HETATM   23  C22 UNL     1      24.916   0.920  53.266  1.00  0.00     0.068 C 
ENDROOT
BRANCH   1  24
HETATM   24  C1  UNL     1      22.521   4.400  49.630  1.00  0.00     0.251 C 
HETATM   25  O1  UNL     1      23.557   4.868  49.216  1.00  0.00    -0.305 OA
ENDBRANCH   1  24
TORSDOF 2
ENDMDL
MODEL 4
REMARK VINA RESULT:      -8.9      1.361      2.054
REMARK  2 active torsions:
REMARK  status: ('A' for Active; 'I' for Inactive)
REMARK    1  A    between atoms: C1_2  and  C2_3 
REMARK    2  A    between atoms: C13_14  and  C15_16 
ROOT
HETATM    1  C2  UNL     1      21.369   3.004  49.957  1.00  0.00     0.079 C 
HETATM    2  C3  UNL     1      22.591   2.931  49.109  1.00  0.00    -0.003 C 
HETATM    3  C4  UNL     1      23.863   2.848  49.568  1.00  0.00     0.010 C 
HETATM    4  C5  UNL     1      24.606   2.345  50.766  1.00  0.00    -0.018 A 
HETATM    5  C6  UNL     1      25.861   2.847  50.693  1.00  0.00    -0.043 A 
HETATM    6  C7  UNL     1      26.792   2.360  51.582  1.00  0.00     0.009 A 
HETATM    7  C8  UNL     1      26.411   1.387  52.517  1.00  0.00     0.013 A 
HETATM    8  C9  UNL     1      25.116   0.862  52.620  1.00  0.00    -0.024 A 
HETATM    9  C10 UNL     1      24.898  -0.025  53.642  1.00  0.00     0.012 A 
HETATM   10  C11 UNL     1      23.593  -0.447  53.776  1.00  0.00     0.002 A 
HETATM   11  C12 UNL     1      22.592  -0.004  52.942  1.00  0.00     0.013 A 
HETATM   12  C13 UNL     1      22.912   0.875  51.957  1.00  0.00    -0.012 A 
HETATM   13  C14 UNL     1      24.231   1.377  51.716  1.00  0.00    -0.004 A 
HETATM   14  C15 UNL     1      21.640   1.349  51.285  1.00  0.00    -0.002 C 
HETATM   15  C16 UNL     1      20.596   0.904  50.674  1.00  0.00    -0.011 C 
HETATM   16  C17 UNL     1      20.332   1.972  49.689  1.00  0.00     0.055 C 
HETATM   17  C18 UNL     1      21.678   2.845  51.373  1.00  0.00     0.066 C 
HETATM   18  N1  UNL     1      21.993   3.741  52.210  1.00  0.00    -0.244 NA
HETATM   19  C19 UNL     1      22.129   5.107  51.957  1.00  0.00     0.232 C 
HETATM   20  N2  UNL     1      23.009   5.830  51.343  1.00  0.00    -0.254 NA
HETATM   21  C20 UNL     1      24.173   5.389  50.706  1.00  0.00     0.114 C 
HETATM   22  C21 UNL     1      25.280   5.094  50.042  1.00  0.00    -0.003 C 
HETATM   23  C22 UNL     1      26.267   3.983  49.839  1.00  0.00     0.068 C 
ENDROOT
BRANCH   1  24
HETATM   24  C1  UNL     1      20.706   4.342  49.705  1.00  0.00     0.251 C 
HETATM   25  O1  UNL     1      20.705   5.094  48.757  1.00  0.00    -0.305 OA
ENDBRANCH   1  24
TORSDOF 2
ENDMDL
MODEL 5
REMARK VINA RESULT:      -8.3      1.988      5.014
REMARK  2 active torsions:
REMARK  status: ('A' for Active; 'I' for Inactive)
REMARK    1  A    between atoms: C1_2  and  C2_3 
REMARK    2  A    between atoms: C13_14  and  C15_16 
ROOT
HETATM    1  C2  UNL     1      21.282   4.637  50.832  1.00  0.00     0.079 C 
HETATM    2  C3  UNL     1      21.775   4.089  52.125  1.00  0.00    -0.003 C 
HETATM    3  C4  UNL     1      22.833   3.256  52.275  1.00  0.00     0.010 C 
HETATM    4  C5  UNL     1      24.122   2.926  51.588  1.00  0.00    -0.018 A 
HETATM    5  C6  UNL     1      24.575   1.772  52.131  1.00  0.00    -0.043 A 
HETATM    6  C7  UNL     1      25.850   1.371  51.799  1.00  0.00     0.009 A 
HETATM    7  C8  UNL     1      26.613   2.155  50.923  1.00  0.00     0.013 A 
HETATM    8  C9  UNL     1      26.161   3.346  50.339  1.00  0.00    -0.024 A 
HETATM    9  C10 UNL     1      27.010   3.945  49.444  1.00  0.00     0.012 A 
HETATM   10  C11 UNL     1      26.497   5.059  48.815  1.00  0.00     0.002 A 
HETATM   11  C12 UNL     1      25.228   5.526  49.072  1.00  0.00     0.013 A 
HETATM   12  C13 UNL     1      24.466   4.860  49.979  1.00  0.00    -0.012 A 
HETATM   13  C14 UNL     1      24.892   3.699  50.700  1.00  0.00    -0.004 A 
HETATM   14  C15 UNL     1      23.068   5.443  49.971  1.00  0.00    -0.002 C 
HETATM   15  C16 UNL     1      22.438   6.557  50.123  1.00  0.00    -0.011 C 
HETATM   16  C17 UNL     1      21.177   6.119  50.754  1.00  0.00     0.055 C 
HETATM   17  C18 UNL     1      22.155   4.280  49.720  1.00  0.00     0.066 C 
HETATM   18  N1  UNL     1      22.113   3.243  48.995  1.00  0.00    -0.244 NA
HETATM   19  C19 UNL     1      21.211   2.183  49.107  1.00  0.00     0.232 C 
HETATM   20  N2  UNL     1      21.060   1.208  49.943  1.00  0.00    -0.254 NA
HETATM   21  C20 UNL     1      21.840   0.931  51.070  1.00  0.00     0.114 C 
HETATM   22  C21 UNL     1      22.478   0.584  52.179  1.00  0.00    -0.003 C 
HETATM   23  C22 UNL     1      23.754   0.834  52.926  1.00  0.00     0.068 C 
ENDROOT
BRANCH   1  24
HETATM   24  C1  UNL     1      19.884   4.104  50.602  1.00  0.00     0.251 C 
HETATM   25  O1  UNL     1      18.999   3.763  51.354  1.00  0.00    -0.305 OA
ENDBRANCH   1  24
TORSDOF 2
ENDMDL
MODEL 6
REMARK VINA RESULT:      -8.1      1.901      4.844
REMARK  2 active torsions:
REMARK  status: ('A' for Active; 'I' for Inactive)
REMARK    1  A    between atoms: C1_2  and  C2_3 
REMARK    2  A    between atoms: C13_14  and  C15_16 
ROOT
HETATM    1  C2  UNL     1      21.669   0.432  52.443  1.00  0.00     0.079 C 
HETATM    2  C3  UNL     1      21.265   0.081  51.054  1.00  0.00    -0.003 C 
HETATM    3  C4  UNL     1      21.313   0.914  49.986  1.00  0.00     0.010 C 
HETATM    4  C5  UNL     1      22.083   2.107  49.513  1.00  0.00    -0.018 A 
HETATM    5  C6  UNL     1      21.408   2.621  48.458  1.00  0.00    -0.043 A 
HETATM    6  C7  UNL     1      22.029   3.609  47.726  1.00  0.00     0.009 A 
HETATM    7  C8  UNL     1      23.308   4.042  48.100  1.00  0.00     0.013 A 
HETATM    8  C9  UNL     1      24.021   3.535  49.194  1.00  0.00    -0.024 A 
HETATM    9  C10 UNL     1      25.228   4.128  49.463  1.00  0.00     0.012 A 
HETATM   10  C11 UNL     1      25.857   3.673  50.601  1.00  0.00     0.002 A 
HETATM   11  C12 UNL     1      25.307   2.699  51.402  1.00  0.00     0.013 A 
HETATM   12  C13 UNL     1      24.105   2.174  51.047  1.00  0.00    -0.012 A 
HETATM   13  C14 UNL     1      23.363   2.559  49.886  1.00  0.00    -0.004 A 
HETATM   14  C15 UNL     1      23.622   1.257  52.153  1.00  0.00    -0.002 C 
HETATM   15  C16 UNL     1      23.978   0.222  52.833  1.00  0.00    -0.011 C 
HETATM   16  C17 UNL     1      22.687  -0.457  53.066  1.00  0.00     0.055 C 
HETATM   17  C18 UNL     1      22.259   1.763  52.519  1.00  0.00     0.066 C 
HETATM   18  N1  UNL     1      21.670   2.871  52.692  1.00  0.00    -0.244 NA
HETATM   19  C19 UNL     1      20.296   3.070  52.839  1.00  0.00     0.232 C 
HETATM   20  N2  UNL     1      19.285   3.029  52.033  1.00  0.00    -0.254 NA
HETATM   21  C20 UNL     1      19.304   2.745  50.664  1.00  0.00     0.114 C 
HETATM   22  C21 UNL     1      19.185   2.456  49.377  1.00  0.00    -0.003 C 
HETATM   23  C22 UNL     1      20.001   2.314  48.126  1.00  0.00     0.068 C 
ENDROOT
BRANCH   1  24
HETATM   24  C1  UNL     1      20.439   0.344  53.322  1.00  0.00     0.251 C 
HETATM   25  O1  UNL     1      19.440  -0.337  53.274  1.00  0.00    -0.305 OA
ENDBRANCH   1  24
TORSDOF 2
ENDMDL
MODEL 7
REMARK VINA RESULT:      -7.6      2.774      6.456
REMARK  2 active torsions:
REMARK  status: ('A' for Active; 'I' for Inactive)
REMARK    1  A    between atoms: C1_2  and  C2_3 
REMARK    2  A    between atoms: C13_14  and  C15_16 
ROOT
HETATM    1  C2  UNL     1      24.176   2.471  51.333  1.00  0.00     0.079 C 
HETATM    2  C3  UNL     1      23.307   2.104  50.182  1.00  0.00    -0.003 C 
HETATM    3  C4  UNL     1      22.713   2.979  49.334  1.00  0.00     0.010 C 
HETATM    4  C5  UNL     1      22.930   4.359  48.795  1.00  0.00    -0.018 A 
HETATM    5  C6  UNL     1      21.776   4.733  48.193  1.00  0.00    -0.043 A 
HETATM    6  C7  UNL     1      21.796   5.890  47.446  1.00  0.00     0.009 A 
HETATM    7  C8  UNL     1      22.985   6.625  47.346  1.00  0.00     0.013 A 
HETATM    8  C9  UNL     1      24.187   6.264  47.969  1.00  0.00    -0.024 A 
HETATM    9  C10 UNL     1      25.233   7.140  47.828  1.00  0.00     0.012 A 
HETATM   10  C11 UNL     1      26.368   6.805  48.532  1.00  0.00     0.002 A 
HETATM   11  C12 UNL     1      26.437   5.676  49.317  1.00  0.00     0.013 A 
HETATM   12  C13 UNL     1      25.344   4.872  49.388  1.00  0.00    -0.012 A 
HETATM   13  C14 UNL     1      24.114   5.111  48.696  1.00  0.00    -0.004 A 
HETATM   14  C15 UNL     1      25.589   3.799  50.430  1.00  0.00    -0.002 C 
HETATM   15  C16 UNL     1      26.416   2.858  50.734  1.00  0.00    -0.011 C 
HETATM   16  C17 UNL     1      25.528   1.850  51.347  1.00  0.00     0.055 C 
HETATM   17  C18 UNL     1      24.438   3.904  51.384  1.00  0.00     0.066 C 
HETATM   18  N1  UNL     1      23.753   4.804  51.954  1.00  0.00    -0.244 NA
HETATM   19  C19 UNL     1      22.565   4.623  52.665  1.00  0.00     0.232 C 
HETATM   20  N2  UNL     1      21.343   4.361  52.332  1.00  0.00    -0.254 NA
HETATM   21  C20 UNL     1      20.839   4.170  51.042  1.00  0.00     0.114 C 
HETATM   22  C21 UNL     1      20.250   3.933  49.879  1.00  0.00    -0.003 C 
HETATM   23  C22 UNL     1      20.465   4.083  48.402  1.00  0.00     0.068 C 
ENDROOT
BRANCH   1  24
HETATM   24  C1  UNL     1      23.489   2.010  52.601  1.00  0.00     0.251 C 
HETATM   25  O1  UNL     1      22.777   1.065  52.855  1.00  0.00    -0.305 OA
ENDBRANCH   1  24
TORSDOF 2
ENDMDL
MODEL 8
REMARK VINA RESULT:      -7.5      8.396     11.372
REMARK  2 active torsions:
REMARK  status: ('A' for Active; 'I' for Inactive)
REMARK    1  A    between atoms: C1_2  and  C2_3 
REMARK    2  A    between atoms: C13_14  and  C15_16 
ROOT
HETATM    1  C2  UNL     1      30.204   9.981  46.742  1.00  0.00     0.079 C 
HETATM    2  C3  UNL     1      30.471   8.614  46.216  1.00  0.00    -0.003 C 
HETATM    3  C4  UNL     1      29.992   7.461  46.742  1.00  0.00     0.010 C 
HETATM    4  C5  UNL     1      28.818   6.980  47.536  1.00  0.00    -0.018 A 
HETATM    5  C6  UNL     1      29.118   5.732  47.967  1.00  0.00    -0.043 A 
HETATM    6  C7  UNL     1      28.107   5.002  48.553  1.00  0.00     0.009 A 
HETATM    7  C8  UNL     1      26.834   5.572  48.685  1.00  0.00     0.013 A 
HETATM    8  C9  UNL     1      26.503   6.865  48.258  1.00  0.00    -0.024 A 
HETATM    9  C10 UNL     1      25.229   7.291  48.536  1.00  0.00     0.012 A 
HETATM   10  C11 UNL     1      24.967   8.598  48.191  1.00  0.00     0.002 A 
HETATM   11  C12 UNL     1      25.919   9.408  47.614  1.00  0.00     0.013 A 
HETATM   12  C13 UNL     1      27.152   8.889  47.378  1.00  0.00    -0.012 A 
HETATM   13  C14 UNL     1      27.539   7.545  47.685  1.00  0.00    -0.004 A 
HETATM   14  C15 UNL     1      28.071   9.996  46.904  1.00  0.00    -0.002 C 
HETATM   15  C16 UNL     1      28.175  10.899  45.990  1.00  0.00    -0.011 C 
HETATM   16  C17 UNL     1      29.634  10.950  45.767  1.00  0.00     0.055 C 
HETATM   17  C18 UNL     1      29.243   9.965  47.838  1.00  0.00     0.066 C 
HETATM   18  N1  UNL     1      29.471   9.820  49.075  1.00  0.00    -0.244 NA
HETATM   19  C19 UNL     1      30.715   9.625  49.677  1.00  0.00     0.232 C 
HETATM   20  N2  UNL     1      31.545   8.635  49.740  1.00  0.00    -0.254 NA
HETATM   21  C20 UNL     1      31.398   7.370  49.163  1.00  0.00     0.114 C 
HETATM   22  C21 UNL     1      31.395   6.153  48.638  1.00  0.00    -0.003 C 
HETATM   23  C22 UNL     1      30.478   5.153  47.998  1.00  0.00     0.068 C 
ENDROOT
BRANCH   1  24
HETATM   24  C1  UNL     1      31.522  10.570  47.199  1.00  0.00     0.251 C 
HETATM   25  O1  UNL     1      32.108  11.592  46.920  1.00  0.00    -0.305 OA
ENDBRANCH   1  24
TORSDOF 2
ENDMDL
MODEL 9
REMARK VINA RESULT:      -7.5      2.095      4.473
REMARK  2 active torsions:
REMARK  status: ('A' for Active; 'I' for Inactive)
REMARK    1  A    between atoms: C1_2  and  C2_3 
REMARK    2  A    between atoms: C13_14  and  C15_16 
ROOT
HETATM    1  C2  UNL     1      23.913   4.875  49.644  1.00  0.00     0.079 C 
HETATM    2  C3  UNL     1      24.632   3.584  49.823  1.00  0.00    -0.003 C 
HETATM    3  C4  UNL     1      24.146   2.495  50.466  1.00  0.00     0.010 C 
HETATM    4  C5  UNL     1      22.827   1.861  50.784  1.00  0.00    -0.018 A 
HETATM    5  C6  UNL     1      23.061   0.914  51.723  1.00  0.00    -0.043 A 
HETATM    6  C7  UNL     1      22.028   0.057  52.031  1.00  0.00     0.009 A 
HETATM    7  C8  UNL     1      20.796   0.200  51.379  1.00  0.00     0.013 A 
HETATM    8  C9  UNL     1      20.527   1.180  50.414  1.00  0.00    -0.024 A 
HETATM    9  C10 UNL     1      19.243   1.226  49.934  1.00  0.00     0.012 A 
HETATM   10  C11 UNL     1      18.987   2.261  49.061  1.00  0.00     0.002 A 
HETATM   11  C12 UNL     1      19.953   3.174  48.706  1.00  0.00     0.013 A 
HETATM   12  C13 UNL     1      21.196   3.040  49.237  1.00  0.00    -0.012 A 
HETATM   13  C14 UNL     1      21.582   2.003  50.145  1.00  0.00    -0.004 A 
HETATM   14  C15 UNL     1      22.033   4.240  48.844  1.00  0.00    -0.002 C 
HETATM   15  C16 UNL     1      22.445   4.888  47.808  1.00  0.00    -0.011 C 
HETATM   16  C17 UNL     1      23.778   5.353  48.242  1.00  0.00     0.055 C 
HETATM   17  C18 UNL     1      22.542   4.808  50.135  1.00  0.00     0.066 C 
HETATM   18  N1  UNL     1      22.118   5.037  51.306  1.00  0.00    -0.244 NA
HETATM   19  C19 UNL     1      22.886   5.400  52.414  1.00  0.00     0.232 C 
HETATM   20  N2  UNL     1      23.713   4.772  53.186  1.00  0.00    -0.254 NA
HETATM   21  C20 UNL     1      24.094   3.430  53.106  1.00  0.00     0.114 C 
HETATM   22  C21 UNL     1      24.561   2.190  53.114  1.00  0.00    -0.003 C 
HETATM   23  C22 UNL     1      24.283   0.828  52.550  1.00  0.00     0.068 C 
ENDROOT
BRANCH   1  24
HETATM   24  C1  UNL     1      24.689   5.946  50.381  1.00  0.00     0.251 C 
HETATM   25  O1  UNL     1      25.669   6.596  50.094  1.00  0.00    -0.305 OA
ENDBRANCH   1  24
TORSDOF 2
ENDMDL
