MODEL 1
REMARK VINA RESULT:      -6.5      0.000      0.000
REMARK  7 active torsions:
REMARK  status: ('A' for Active; 'I' for Inactive)
REMARK    1  A    between atoms: C1_2  and  C2_3 
REMARK    2  A    between atoms: C2_3  and  N1_4 
REMARK    3  A    between atoms: N1_4  and  C3_5 
REMARK    4  A    between atoms: N1_4  and  C5_8 
REMARK    5  A    between atoms: C3_5  and  C4_6 
REMARK    6  A    between atoms: C8_11  and  C9_12 
REMARK    7  A    between atoms: C9_12  and  N2_13 
ROOT
HETATM    1  C5  UNL     1      22.095   1.329  50.997  1.00  0.00     0.030 A 
HETATM    2  C6  UNL     1      23.355   1.684  51.414  1.00  0.00     0.030 A 
HETATM    3  C7  UNL     1      24.025   1.066  52.423  1.00  0.00     0.011 A 
HETATM    4  C8  UNL     1      23.467   0.009  53.111  1.00  0.00    -0.040 A 
HETATM    5  C15 UNL     1      22.205  -0.407  52.750  1.00  0.00     0.011 A 
HETATM    6  C16 UNL     1      21.596   0.272  51.720  1.00  0.00     0.030 A 
ENDROOT
BRANCH   4   7
HETATM    7  C9  UNL     1      24.213  -0.658  54.216  1.00  0.00     0.161 C 
BRANCH   7   8
HETATM    8  N2  UNL     1      25.638  -0.571  54.056  1.00  0.00    -0.382 N 
HETATM    9  C10 UNL     1      26.289  -1.306  53.022  1.00  0.00     0.088 A 
HETATM   10  C11 UNL     1      27.597  -1.286  52.817  1.00  0.00     0.040 A 
HETATM   11  C12 UNL     1      28.462  -0.479  53.669  1.00  0.00     0.033 A 
HETATM   12 CL3  UNL     1      30.198  -0.399  53.461  1.00  0.00    -0.085 Cl
HETATM   13  C13 UNL     1      27.866   0.205  54.627  1.00  0.00     0.016 A 
HETATM   14  C14 UNL     1      26.428   0.259  54.947  1.00  0.00     0.151 A 
ENDBRANCH   7   8
ENDBRANCH   4   7
BRANCH   1  15
HETATM   15  N1  UNL     1      21.418   1.999  49.946  1.00  0.00    -0.379 N 
BRANCH  15  16
HETATM   16  C2  UNL     1      21.302   1.872  48.546  1.00  0.00     0.138 C 
BRANCH  16  17
HETATM   17  C1  UNL     1      22.522   2.041  47.695  1.00  0.00     0.134 C 
HETATM   18 CL1  UNL     1      22.043   3.281  46.450  1.00  0.00    -0.129 Cl
ENDBRANCH  16  17
ENDBRANCH  15  16
BRANCH  15  19
HETATM   19  C3  UNL     1      20.586   3.145  50.306  1.00  0.00     0.138 C 
BRANCH  19  20
HETATM   20  C4  UNL     1      21.273   4.467  50.174  1.00  0.00     0.134 C 
HETATM   21 CL2  UNL     1      21.787   4.928  51.842  1.00  0.00    -0.129 Cl
ENDBRANCH  19  20
ENDBRANCH  15  19
ENDBRANCH   1  15
TORSDOF 7
ENDMDL
MODEL 2
REMARK VINA RESULT:      -6.5      2.356      3.389
REMARK  7 active torsions:
REMARK  status: ('A' for Active; 'I' for Inactive)
REMARK    1  A    between atoms: C1_2  and  C2_3 
REMARK    2  A    between atoms: C2_3  and  N1_4 
REMARK    3  A    between atoms: N1_4  and  C3_5 
REMARK    4  A    between atoms: N1_4  and  C5_8 
REMARK    5  A    between atoms: C3_5  and  C4_6 
REMARK    6  A    between atoms: C8_11  and  C9_12 
REMARK    7  A    between atoms: C9_12  and  N2_13 
ROOT
HETATM    1  C5  UNL     1      23.496   3.702  50.954  1.00  0.00     0.030 A 
HETATM    2  C6  UNL     1      23.257   2.392  50.616  1.00  0.00     0.030 A 
HETATM    3  C7  UNL     1      23.512   1.337  51.435  1.00  0.00     0.011 A 
HETATM    4  C8  UNL     1      24.040   1.521  52.696  1.00  0.00    -0.040 A 
HETATM    5  C15 UNL     1      24.306   2.808  53.107  1.00  0.00     0.011 A 
HETATM    6  C16 UNL     1      24.020   3.817  52.218  1.00  0.00     0.030 A 
ENDROOT
BRANCH   4   7
HETATM    7  C9  UNL     1      24.316   0.354  53.582  1.00  0.00     0.161 C 
BRANCH   7   8
HETATM    8  N2  UNL     1      25.709   0.003  53.621  1.00  0.00    -0.382 N 
HETATM    9  C10 UNL     1      26.539   0.479  54.678  1.00  0.00     0.088 A 
HETATM   10  C11 UNL     1      27.831   0.208  54.778  1.00  0.00     0.040 A 
HETATM   11  C12 UNL     1      28.487  -0.625  53.776  1.00  0.00     0.033 A 
HETATM   12 CL3  UNL     1      30.188  -1.030  53.839  1.00  0.00    -0.085 Cl
HETATM   13  C13 UNL     1      27.724  -1.070  52.797  1.00  0.00     0.016 A 
HETATM   14  C14 UNL     1      26.285  -0.834  52.584  1.00  0.00     0.151 A 
ENDBRANCH   7   8
ENDBRANCH   4   7
BRANCH   1  15
HETATM   15  N1  UNL     1      23.226   4.782  50.073  1.00  0.00    -0.379 N 
BRANCH  15  16
HETATM   16  C2  UNL     1      22.261   5.804  49.957  1.00  0.00     0.138 C 
BRANCH  16  17
HETATM   17  C1  UNL     1      22.382   7.023  50.816  1.00  0.00     0.134 C 
HETATM   18 CL1  UNL     1      22.742   8.372  49.647  1.00  0.00    -0.129 Cl
ENDBRANCH  16  17
ENDBRANCH  15  16
BRANCH  15  19
HETATM   19  C3  UNL     1      24.139   4.975  48.949  1.00  0.00     0.138 C 
BRANCH  19  20
HETATM   20  C4  UNL     1      25.480   5.513  49.333  1.00  0.00     0.134 C 
HETATM   21 CL2  UNL     1      26.609   4.106  49.295  1.00  0.00    -0.129 Cl
ENDBRANCH  19  20
ENDBRANCH  15  19
ENDBRANCH   1  15
TORSDOF 7
ENDMDL
MODEL 3
REMARK VINA RESULT:      -6.4      1.549      2.699
REMARK  7 active torsions:
REMARK  status: ('A' for Active; 'I' for Inactive)
REMARK    1  A    between atoms: C1_2  and  C2_3 
REMARK    2  A    between atoms: C2_3  and  N1_4 
REMARK    3  A    between atoms: N1_4  and  C3_5 
REMARK    4  A    between atoms: N1_4  and  C5_8 
REMARK    5  A    between atoms: C3_5  and  C4_6 
REMARK    6  A    between atoms: C8_11  and  C9_12 
REMARK    7  A    between atoms: C9_12  and  N2_13 
ROOT
HETATM    1  C5  UNL     1      22.670   3.253  51.709  1.00  0.00     0.030 A 
HETATM    2  C6  UNL     1      23.832   3.246  52.441  1.00  0.00     0.030 A 
HETATM    3  C7  UNL     1      24.299   2.162  53.117  1.00  0.00     0.011 A 
HETATM    4  C8  UNL     1      23.615   0.964  53.109  1.00  0.00    -0.040 A 
HETATM    5  C15 UNL     1      22.439   0.893  52.396  1.00  0.00     0.011 A 
HETATM    6  C16 UNL     1      22.038   2.033  51.741  1.00  0.00     0.030 A 
ENDROOT
BRANCH   4   7
HETATM    7  C9  UNL     1      24.137  -0.215  53.857  1.00  0.00     0.161 C 
BRANCH   7   8
HETATM    8  N2  UNL     1      25.571  -0.308  53.817  1.00  0.00    -0.382 N 
HETATM    9  C10 UNL     1      26.216  -0.968  52.730  1.00  0.00     0.088 A 
HETATM   10  C11 UNL     1      27.530  -1.103  52.627  1.00  0.00     0.040 A 
HETATM   11  C12 UNL     1      28.407  -0.559  53.657  1.00  0.00     0.033 A 
HETATM   12 CL3  UNL     1      30.150  -0.694  53.591  1.00  0.00    -0.085 Cl
HETATM   13  C13 UNL     1      27.816   0.055  54.663  1.00  0.00     0.016 A 
HETATM   14  C14 UNL     1      26.374   0.264  54.882  1.00  0.00     0.151 A 
ENDBRANCH   7   8
ENDBRANCH   4   7
BRANCH   1  15
HETATM   15  N1  UNL     1      22.204   4.403  51.020  1.00  0.00    -0.379 N 
BRANCH  15  16
HETATM   16  C2  UNL     1      21.823   5.720  51.351  1.00  0.00     0.138 C 
BRANCH  16  17
HETATM   17  C1  UNL     1      22.541   6.869  50.715  1.00  0.00     0.134 C 
HETATM   18 CL1  UNL     1      24.255   6.722  51.310  1.00  0.00    -0.129 Cl
ENDBRANCH  16  17
ENDBRANCH  15  16
BRANCH  15  19
HETATM   19  C3  UNL     1      22.044   4.300  49.572  1.00  0.00     0.138 C 
BRANCH  19  20
HETATM   20  C4  UNL     1      23.244   3.764  48.859  1.00  0.00     0.134 C 
HETATM   21 CL2  UNL     1      22.690   2.273  48.005  1.00  0.00    -0.129 Cl
ENDBRANCH  19  20
ENDBRANCH  15  19
ENDBRANCH   1  15
TORSDOF 7
ENDMDL
MODEL 4
REMARK VINA RESULT:      -6.4      1.548      1.910
REMARK  7 active torsions:
REMARK  status: ('A' for Active; 'I' for Inactive)
REMARK    1  A    between atoms: C1_2  and  C2_3 
REMARK    2  A    between atoms: C2_3  and  N1_4 
REMARK    3  A    between atoms: N1_4  and  C3_5 
REMARK    4  A    between atoms: N1_4  and  C5_8 
REMARK    5  A    between atoms: C3_5  and  C4_6 
REMARK    6  A    between atoms: C8_11  and  C9_12 
REMARK    7  A    between atoms: C9_12  and  N2_13 
ROOT
HETATM    1  C5  UNL     1      21.868   1.556  51.334  1.00  0.00     0.030 A 
HETATM    2  C6  UNL     1      21.622   0.243  51.656  1.00  0.00     0.030 A 
HETATM    3  C7  UNL     1      22.323  -0.456  52.587  1.00  0.00     0.011 A 
HETATM    4  C8  UNL     1      23.358   0.126  53.292  1.00  0.00    -0.040 A 
HETATM    5  C15 UNL     1      23.664   1.442  53.024  1.00  0.00     0.011 A 
HETATM    6  C16 UNL     1      22.907   2.076  52.068  1.00  0.00     0.030 A 
ENDROOT
BRANCH   4   7
HETATM    7  C9  UNL     1      24.119  -0.654  54.308  1.00  0.00     0.161 C 
BRANCH   7   8
HETATM    8  N2  UNL     1      25.542  -0.559  54.131  1.00  0.00    -0.382 N 
HETATM    9  C10 UNL     1      26.168  -1.183  53.012  1.00  0.00     0.088 A 
HETATM   10  C11 UNL     1      27.472  -1.148  52.785  1.00  0.00     0.040 A 
HETATM   11  C12 UNL     1      28.359  -0.441  53.703  1.00  0.00     0.033 A 
HETATM   12 CL3  UNL     1      30.091  -0.348  53.471  1.00  0.00    -0.085 Cl
HETATM   13  C13 UNL     1      27.785   0.140  54.739  1.00  0.00     0.016 A 
HETATM   14  C14 UNL     1      26.354   0.167  55.090  1.00  0.00     0.151 A 
ENDBRANCH   7   8
ENDBRANCH   4   7
BRANCH   1  15
HETATM   15  N1  UNL     1      21.123   2.257  50.350  1.00  0.00    -0.379 N 
BRANCH  15  16
HETATM   16  C2  UNL     1      21.280   2.610  48.994  1.00  0.00     0.138 C 
BRANCH  16  17
HETATM   17  C1  UNL     1      22.597   2.369  48.325  1.00  0.00     0.134 C 
HETATM   18 CL1  UNL     1      23.676   3.696  48.950  1.00  0.00    -0.129 Cl
ENDBRANCH  16  17
ENDBRANCH  15  16
BRANCH  15  19
HETATM   19  C3  UNL     1      19.827   2.799  50.750  1.00  0.00     0.138 C 
BRANCH  19  20
HETATM   20  C4  UNL     1      18.699   2.423  49.843  1.00  0.00     0.134 C 
HETATM   21 CL2  UNL     1      18.351   0.684  50.177  1.00  0.00    -0.129 Cl
ENDBRANCH  19  20
ENDBRANCH  15  19
ENDBRANCH   1  15
TORSDOF 7
ENDMDL
MODEL 5
REMARK VINA RESULT:      -6.4      3.673      6.417
REMARK  7 active torsions:
REMARK  status: ('A' for Active; 'I' for Inactive)
REMARK    1  A    between atoms: C1_2  and  C2_3 
REMARK    2  A    between atoms: C2_3  and  N1_4 
REMARK    3  A    between atoms: N1_4  and  C3_5 
REMARK    4  A    between atoms: N1_4  and  C5_8 
REMARK    5  A    between atoms: C3_5  and  C4_6 
REMARK    6  A    between atoms: C8_11  and  C9_12 
REMARK    7  A    between atoms: C9_12  and  N2_13 
ROOT
HETATM    1  C5  UNL     1      23.845   1.168  52.728  1.00  0.00     0.030 A 
HETATM    2  C6  UNL     1      23.353   1.152  51.446  1.00  0.00     0.030 A 
HETATM    3  C7  UNL     1      23.264   2.251  50.651  1.00  0.00     0.011 A 
HETATM    4  C8  UNL     1      23.677   3.491  51.095  1.00  0.00    -0.040 A 
HETATM    5  C15 UNL     1      24.184   3.587  52.371  1.00  0.00     0.011 A 
HETATM    6  C16 UNL     1      24.239   2.428  53.109  1.00  0.00     0.030 A 
ENDROOT
BRANCH   4   7
HETATM    7  C9  UNL     1      23.572   4.688  50.213  1.00  0.00     0.161 C 
BRANCH   7   8
HETATM    8  N2  UNL     1      24.834   5.070  49.641  1.00  0.00    -0.382 N 
HETATM    9  C10 UNL     1      25.890   4.119  49.535  1.00  0.00     0.088 A 
HETATM   10  C11 UNL     1      27.082   4.397  49.029  1.00  0.00     0.040 A 
HETATM   11  C12 UNL     1      27.377   5.738  48.538  1.00  0.00     0.033 A 
HETATM   12 CL3  UNL     1      28.926   6.183  47.855  1.00  0.00    -0.085 Cl
HETATM   13  C13 UNL     1      26.403   6.622  48.632  1.00  0.00     0.016 A 
HETATM   14  C14 UNL     1      25.046   6.427  49.172  1.00  0.00     0.151 A 
ENDBRANCH   7   8
ENDBRANCH   4   7
BRANCH   1  15
HETATM   15  N1  UNL     1      23.917   0.004  53.537  1.00  0.00    -0.379 N 
BRANCH  15  16
HETATM   16  C2  UNL     1      24.849  -0.586  54.417  1.00  0.00     0.138 C 
BRANCH  16  17
HETATM   17  C1  UNL     1      26.312  -0.421  54.148  1.00  0.00     0.134 C 
HETATM   18 CL1  UNL     1      26.543  -1.068  52.462  1.00  0.00    -0.129 Cl
ENDBRANCH  16  17
ENDBRANCH  15  16
BRANCH  15  19
HETATM   19  C3  UNL     1      22.765  -0.893  53.527  1.00  0.00     0.138 C 
BRANCH  19  20
HETATM   20  C4  UNL     1      21.936  -0.841  54.770  1.00  0.00     0.134 C 
HETATM   21 CL2  UNL     1      20.731   0.478  54.509  1.00  0.00    -0.129 Cl
ENDBRANCH  19  20
ENDBRANCH  15  19
ENDBRANCH   1  15
TORSDOF 7
ENDMDL
MODEL 6
REMARK VINA RESULT:      -6.4      1.338      2.369
REMARK  7 active torsions:
REMARK  status: ('A' for Active; 'I' for Inactive)
REMARK    1  A    between atoms: C1_2  and  C2_3 
REMARK    2  A    between atoms: C2_3  and  N1_4 
REMARK    3  A    between atoms: N1_4  and  C3_5 
REMARK    4  A    between atoms: N1_4  and  C5_8 
REMARK    5  A    between atoms: C3_5  and  C4_6 
REMARK    6  A    between atoms: C8_11  and  C9_12 
REMARK    7  A    between atoms: C9_12  and  N2_13 
ROOT
HETATM    1  C5  UNL     1      22.159   2.177  51.405  1.00  0.00     0.030 A 
HETATM    2  C6  UNL     1      23.201   2.541  52.223  1.00  0.00     0.030 A 
HETATM    3  C7  UNL     1      23.824   1.694  53.084  1.00  0.00     0.011 A 
HETATM    4  C8  UNL     1      23.439   0.373  53.193  1.00  0.00    -0.040 A 
HETATM    5  C15 UNL     1      22.401  -0.067  52.404  1.00  0.00     0.011 A 
HETATM    6  C16 UNL     1      21.825   0.854  51.561  1.00  0.00     0.030 A 
ENDROOT
BRANCH   4   7
HETATM    7  C9  UNL     1      24.131  -0.544  54.143  1.00  0.00     0.161 C 
BRANCH   7   8
HETATM    8  N2  UNL     1      25.562  -0.502  54.015  1.00  0.00    -0.382 N 
HETATM    9  C10 UNL     1      26.201  -1.127  52.905  1.00  0.00     0.088 A 
HETATM   10  C11 UNL     1      27.512  -1.139  52.722  1.00  0.00     0.040 A 
HETATM   11  C12 UNL     1      28.394  -0.487  53.684  1.00  0.00     0.033 A 
HETATM   12 CL3  UNL     1      30.135  -0.459  53.512  1.00  0.00    -0.085 Cl
HETATM   13  C13 UNL     1      27.808   0.094  54.712  1.00  0.00     0.016 A 
HETATM   14  C14 UNL     1      26.368   0.171  55.017  1.00  0.00     0.151 A 
ENDBRANCH   7   8
ENDBRANCH   4   7
BRANCH   1  15
HETATM   15  N1  UNL     1      21.523   3.089  50.522  1.00  0.00    -0.379 N 
BRANCH  15  16
HETATM   16  C2  UNL     1      20.218   3.583  50.313  1.00  0.00     0.138 C 
BRANCH  16  17
HETATM   17  C1  UNL     1      19.297   3.730  51.483  1.00  0.00     0.134 C 
HETATM   18 CL1  UNL     1      18.429   2.133  51.584  1.00  0.00    -0.129 Cl
ENDBRANCH  16  17
ENDBRANCH  15  16
BRANCH  15  19
HETATM   19  C3  UNL     1      22.358   3.748  49.522  1.00  0.00     0.138 C 
BRANCH  19  20
HETATM   20  C4  UNL     1      21.955   3.474  48.109  1.00  0.00     0.134 C 
HETATM   21 CL2  UNL     1      22.326   1.732  47.815  1.00  0.00    -0.129 Cl
ENDBRANCH  19  20
ENDBRANCH  15  19
ENDBRANCH   1  15
TORSDOF 7
ENDMDL
MODEL 7
REMARK VINA RESULT:      -6.4      3.709      6.397
REMARK  7 active torsions:
REMARK  status: ('A' for Active; 'I' for Inactive)
REMARK    1  A    between atoms: C1_2  and  C2_3 
REMARK    2  A    between atoms: C2_3  and  N1_4 
REMARK    3  A    between atoms: N1_4  and  C3_5 
REMARK    4  A    between atoms: N1_4  and  C5_8 
REMARK    5  A    between atoms: C3_5  and  C4_6 
REMARK    6  A    between atoms: C8_11  and  C9_12 
REMARK    7  A    between atoms: C9_12  and  N2_13 
ROOT
HETATM    1  C5  UNL     1      23.678   1.229  52.630  1.00  0.00     0.030 A 
HETATM    2  C6  UNL     1      24.132   2.463  53.027  1.00  0.00     0.030 A 
HETATM    3  C7  UNL     1      24.117   3.569  52.237  1.00  0.00     0.011 A 
HETATM    4  C8  UNL     1      23.629   3.522  50.947  1.00  0.00    -0.040 A 
HETATM    5  C15 UNL     1      23.155   2.317  50.477  1.00  0.00     0.011 A 
HETATM    6  C16 UNL     1      23.206   1.248  51.340  1.00  0.00     0.030 A 
ENDROOT
BRANCH   4   7
HETATM    7  C9  UNL     1      23.621   4.742  50.092  1.00  0.00     0.161 C 
BRANCH   7   8
HETATM    8  N2  UNL     1      24.919   5.057  49.560  1.00  0.00    -0.382 N 
HETATM    9  C10 UNL     1      25.934   4.056  49.507  1.00  0.00     0.088 A 
HETATM   10  C11 UNL     1      27.154   4.271  49.041  1.00  0.00     0.040 A 
HETATM   11  C12 UNL     1      27.528   5.589  48.540  1.00  0.00     0.033 A 
HETATM   12 CL3  UNL     1      29.119   5.950  47.907  1.00  0.00    -0.085 Cl
HETATM   13  C13 UNL     1      26.594   6.518  48.585  1.00  0.00     0.016 A 
HETATM   14  C14 UNL     1      25.211   6.395  49.079  1.00  0.00     0.151 A 
ENDBRANCH   7   8
ENDBRANCH   4   7
BRANCH   1  15
HETATM   15  N1  UNL     1      23.714   0.089  53.476  1.00  0.00    -0.379 N 
BRANCH  15  16
HETATM   16  C2  UNL     1      22.796  -0.864  53.964  1.00  0.00     0.138 C 
BRANCH  16  17
HETATM   17  C1  UNL     1      21.632  -0.403  54.784  1.00  0.00     0.134 C 
HETATM   18 CL1  UNL     1      20.359   0.043  53.561  1.00  0.00    -0.129 Cl
ENDBRANCH  16  17
ENDBRANCH  15  16
BRANCH  15  19
HETATM   19  C3  UNL     1      25.006  -0.282  54.048  1.00  0.00     0.138 C 
BRANCH  19  20
HETATM   20  C4  UNL     1      25.885  -1.060  53.122  1.00  0.00     0.134 C 
HETATM   21 CL2  UNL     1      26.927   0.154  52.288  1.00  0.00    -0.129 Cl
ENDBRANCH  19  20
ENDBRANCH  15  19
ENDBRANCH   1  15
TORSDOF 7
ENDMDL
MODEL 8
REMARK VINA RESULT:      -6.3      3.894      7.451
REMARK  7 active torsions:
REMARK  status: ('A' for Active; 'I' for Inactive)
REMARK    1  A    between atoms: C1_2  and  C2_3 
REMARK    2  A    between atoms: C2_3  and  N1_4 
REMARK    3  A    between atoms: N1_4  and  C3_5 
REMARK    4  A    between atoms: N1_4  and  C5_8 
REMARK    5  A    between atoms: C3_5  and  C4_6 
REMARK    6  A    between atoms: C8_11  and  C9_12 
REMARK    7  A    between atoms: C9_12  and  N2_13 
ROOT
HETATM    1  C5  UNL     1      25.909   1.211  52.652  1.00  0.00     0.030 A 
HETATM    2  C6  UNL     1      24.634   1.691  52.479  1.00  0.00     0.030 A 
HETATM    3  C7  UNL     1      24.267   2.530  51.475  1.00  0.00     0.011 A 
HETATM    4  C8  UNL     1      25.179   2.965  50.535  1.00  0.00    -0.040 A 
HETATM    5  C15 UNL     1      26.479   2.525  50.641  1.00  0.00     0.011 A 
HETATM    6  C16 UNL     1      26.767   1.679  51.687  1.00  0.00     0.030 A 
ENDROOT
BRANCH   4   7
HETATM    7  C9  UNL     1      24.762   3.886  49.440  1.00  0.00     0.161 C 
BRANCH   7   8
HETATM    8  N2  UNL     1      25.308   5.208  49.588  1.00  0.00    -0.382 N 
HETATM    9  C10 UNL     1      26.419   5.617  48.792  1.00  0.00     0.088 A 
HETATM   10  C11 UNL     1      26.983   6.812  48.877  1.00  0.00     0.040 A 
HETATM   11  C12 UNL     1      26.472   7.801  49.820  1.00  0.00     0.033 A 
HETATM   12 CL3  UNL     1      27.161   9.400  49.989  1.00  0.00    -0.085 Cl
HETATM   13  C13 UNL     1      25.444   7.428  50.557  1.00  0.00     0.016 A 
HETATM   14  C14 UNL     1      24.739   6.134  50.549  1.00  0.00     0.151 A 
ENDBRANCH   7   8
ENDBRANCH   4   7
BRANCH   1  15
HETATM   15  N1  UNL     1      26.264   0.342  53.717  1.00  0.00    -0.379 N 
BRANCH  15  16
HETATM   16  C2  UNL     1      27.198   0.331  54.774  1.00  0.00     0.138 C 
BRANCH  16  17
HETATM   17  C1  UNL     1      28.642   0.583  54.473  1.00  0.00     0.134 C 
HETATM   18 CL1  UNL     1      29.182  -0.893  53.554  1.00  0.00    -0.129 Cl
ENDBRANCH  16  17
ENDBRANCH  15  16
BRANCH  15  19
HETATM   19  C3  UNL     1      25.517  -0.908  53.840  1.00  0.00     0.138 C 
BRANCH  19  20
HETATM   20  C4  UNL     1      24.708  -1.018  55.093  1.00  0.00     0.134 C 
HETATM   21 CL2  UNL     1      22.980  -0.973  54.575  1.00  0.00    -0.129 Cl
ENDBRANCH  19  20
ENDBRANCH  15  19
ENDBRANCH   1  15
TORSDOF 7
ENDMDL
MODEL 9
REMARK VINA RESULT:      -6.2      2.550      3.241
REMARK  7 active torsions:
REMARK  status: ('A' for Active; 'I' for Inactive)
REMARK    1  A    between atoms: C1_2  and  C2_3 
REMARK    2  A    between atoms: C2_3  and  N1_4 
REMARK    3  A    between atoms: N1_4  and  C3_5 
REMARK    4  A    between atoms: N1_4  and  C5_8 
REMARK    5  A    between atoms: C3_5  and  C4_6 
REMARK    6  A    between atoms: C8_11  and  C9_12 
REMARK    7  A    between atoms: C9_12  and  N2_13 
ROOT
HETATM    1  C5  UNL     1      23.735   4.130  50.987  1.00  0.00     0.030 A 
HETATM    2  C6  UNL     1      23.832   4.142  52.358  1.00  0.00     0.030 A 
HETATM    3  C7  UNL     1      24.007   3.028  53.117  1.00  0.00     0.011 A 
HETATM    4  C8  UNL     1      24.104   1.777  52.542  1.00  0.00    -0.040 A 
HETATM    5  C15 UNL     1      24.017   1.685  51.171  1.00  0.00     0.011 A 
HETATM    6  C16 UNL     1      23.839   2.859  50.478  1.00  0.00     0.030 A 
ENDROOT
BRANCH   4   7
HETATM    7  C9  UNL     1      24.294   0.564  53.388  1.00  0.00     0.161 C 
BRANCH   7   8
HETATM    8  N2  UNL     1      25.669   0.152  53.468  1.00  0.00    -0.382 N 
HETATM    9  C10 UNL     1      26.572   0.833  54.336  1.00  0.00     0.088 A 
HETATM   10  C11 UNL     1      27.853   0.518  54.458  1.00  0.00     0.040 A 
HETATM   11  C12 UNL     1      28.416  -0.581  53.682  1.00  0.00     0.033 A 
HETATM   12 CL3  UNL     1      30.097  -1.057  53.788  1.00  0.00    -0.085 Cl
HETATM   13  C13 UNL     1      27.585  -1.216  52.878  1.00  0.00     0.016 A 
HETATM   14  C14 UNL     1      26.151  -0.956  52.663  1.00  0.00     0.151 A 
ENDBRANCH   7   8
ENDBRANCH   4   7
BRANCH   1  15
HETATM   15  N1  UNL     1      23.543   5.311  50.222  1.00  0.00    -0.379 N 
BRANCH  15  16
HETATM   16  C2  UNL     1      24.318   6.127  49.373  1.00  0.00     0.138 C 
BRANCH  16  17
HETATM   17  C1  UNL     1      25.761   6.357  49.698  1.00  0.00     0.134 C 
HETATM   18 CL1  UNL     1      26.633   4.961  48.920  1.00  0.00    -0.129 Cl
ENDBRANCH  16  17
ENDBRANCH  15  16
BRANCH  15  19
HETATM   19  C3  UNL     1      22.218   5.924  50.255  1.00  0.00     0.138 C 
BRANCH  19  20
HETATM   20  C4  UNL     1      22.214   7.353  50.692  1.00  0.00     0.134 C 
HETATM   21 CL2  UNL     1      21.216   8.242  49.479  1.00  0.00    -0.129 Cl
ENDBRANCH  19  20
ENDBRANCH  15  19
ENDBRANCH   1  15
TORSDOF 7
ENDMDL
