MODEL 1
REMARK VINA RESULT:      -7.8      0.000      0.000
REMARK  5 active torsions:
REMARK  status: ('A' for Active; 'I' for Inactive)
REMARK    1  A    between atoms: O1_2  and  C2_3 
REMARK    2  A    between atoms: C2_3  and  C3_4 
REMARK    3  A    between atoms: C13_16  and  C14_17 
REMARK    4  A    between atoms: C14_17  and  C15_18 
REMARK    5  A    between atoms: C15_18  and  C16_19 
ROOT
HETATM    1  C3  UNL     1      24.629   1.247  52.746  1.00  0.00     0.056 C 
HETATM    2  C4  UNL     1      24.105   0.342  53.517  1.00  0.00     0.046 A 
HETATM    3  C5  UNL     1      24.719  -0.468  54.558  1.00  0.00     0.257 A 
HETATM    4  O2  UNL     1      25.908  -0.480  54.956  1.00  0.00    -0.267 OA
HETATM    5  N1  UNL     1      23.749  -1.359  55.168  1.00  0.00    -0.322 N 
HETATM    6  C6  UNL     1      22.575  -1.029  54.444  1.00  0.00     0.046 A 
HETATM    7  C7  UNL     1      21.308  -1.559  54.579  1.00  0.00     0.030 A 
HETATM    8  C8  UNL     1      20.203  -1.180  53.821  1.00  0.00     0.002 A 
HETATM    9  C9  UNL     1      20.360  -0.206  52.861  1.00  0.00     0.001 A 
HETATM   10  C10 UNL     1      21.618   0.337  52.711  1.00  0.00     0.015 A 
HETATM   11  C11 UNL     1      22.707  -0.060  53.481  1.00  0.00     0.006 A 
HETATM   12  H5  UNL     1      23.865  -2.052  55.927  1.00  0.00     0.169 HD
ENDROOT
BRANCH   1  13
HETATM   13  C2  UNL     1      25.869   1.958  52.408  1.00  0.00     0.175 A 
HETATM   14  C12 UNL     1      26.990   1.064  52.013  1.00  0.00     0.062 A 
HETATM   15  C13 UNL     1      27.772   1.372  53.042  1.00  0.00     0.009 A 
HETATM   16  N2  UNL     1      26.763   2.291  53.503  1.00  0.00    -0.355 N 
HETATM   17  H16 UNL     1      26.736   2.939  54.321  1.00  0.00     0.163 HD
BRANCH  13  18
HETATM   18  O1  UNL     1      25.586   3.020  51.551  1.00  0.00    -0.358 OA
HETATM   19  C1  UNL     1      24.433   2.772  50.787  1.00  0.00     0.205 C 
ENDBRANCH  13  18
BRANCH  15  20
HETATM   20  C14 UNL     1      29.123   1.013  53.573  1.00  0.00     0.063 C 
BRANCH  20  21
HETATM   21  C15 UNL     1      29.045  -0.329  54.271  1.00  0.00     0.075 C 
BRANCH  21  22
HETATM   22  C16 UNL     1      29.538  -1.423  53.396  1.00  0.00     0.231 C 
HETATM   23  O3  UNL     1      28.796  -2.418  53.453  1.00  0.00    -0.307 OA
ENDBRANCH  21  22
ENDBRANCH  20  21
ENDBRANCH  15  20
ENDBRANCH   1  13
TORSDOF 5
ENDMDL
MODEL 2
REMARK VINA RESULT:      -7.8      1.823      2.384
REMARK  5 active torsions:
REMARK  status: ('A' for Active; 'I' for Inactive)
REMARK    1  A    between atoms: O1_2  and  C2_3 
REMARK    2  A    between atoms: C2_3  and  C3_4 
REMARK    3  A    between atoms: C13_16  and  C14_17 
REMARK    4  A    between atoms: C14_17  and  C15_18 
REMARK    5  A    between atoms: C15_18  and  C16_19 
ROOT
HETATM    1  C3  UNL     1      23.003   0.745  52.908  1.00  0.00     0.056 C 
HETATM    2  C4  UNL     1      21.980   0.064  53.332  1.00  0.00     0.046 A 
HETATM    3  C5  UNL     1      21.856  -0.813  54.486  1.00  0.00     0.257 A 
HETATM    4  O2  UNL     1      22.715  -1.118  55.347  1.00  0.00    -0.267 OA
HETATM    5  N1  UNL     1      20.519  -1.370  54.577  1.00  0.00    -0.322 N 
HETATM    6  C6  UNL     1      19.895  -0.784  53.447  1.00  0.00     0.046 A 
HETATM    7  C7  UNL     1      18.597  -0.945  53.005  1.00  0.00     0.030 A 
HETATM    8  C8  UNL     1      18.062  -0.332  51.875  1.00  0.00     0.002 A 
HETATM    9  C9  UNL     1      18.864   0.501  51.128  1.00  0.00     0.001 A 
HETATM   10  C10 UNL     1      20.163   0.675  51.554  1.00  0.00     0.015 A 
HETATM   11  C11 UNL     1      20.676   0.050  52.687  1.00  0.00     0.006 A 
HETATM   12  H5  UNL     1      20.113  -2.019  55.274  1.00  0.00     0.169 HD
ENDROOT
BRANCH   1  13
HETATM   13  C2  UNL     1      24.411   1.074  53.165  1.00  0.00     0.175 A 
HETATM   14  C12 UNL     1      25.344   0.605  52.106  1.00  0.00     0.062 A 
HETATM   15  C13 UNL     1      26.000  -0.252  52.879  1.00  0.00     0.009 A 
HETATM   16  N2  UNL     1      25.169   0.147  53.986  1.00  0.00    -0.355 N 
HETATM   17  H16 UNL     1      25.161  -0.145  54.989  1.00  0.00     0.163 HD
BRANCH  13  18
HETATM   18  O1  UNL     1      24.521   2.409  53.548  1.00  0.00    -0.358 OA
HETATM   19  C1  UNL     1      23.847   3.259  52.655  1.00  0.00     0.205 C 
ENDBRANCH  13  18
BRANCH  15  20
HETATM   20  C14 UNL     1      27.128  -1.227  52.769  1.00  0.00     0.063 C 
BRANCH  20  21
HETATM   21  C15 UNL     1      28.351  -0.657  53.457  1.00  0.00     0.075 C 
BRANCH  21  22
HETATM   22  C16 UNL     1      29.480  -1.624  53.440  1.00  0.00     0.231 C 
HETATM   23  O3  UNL     1      29.071  -2.797  53.449  1.00  0.00    -0.307 OA
ENDBRANCH  21  22
ENDBRANCH  20  21
ENDBRANCH  15  20
ENDBRANCH   1  13
TORSDOF 5
ENDMDL
MODEL 3
REMARK VINA RESULT:      -7.5      2.243      6.328
REMARK  5 active torsions:
REMARK  status: ('A' for Active; 'I' for Inactive)
REMARK    1  A    between atoms: O1_2  and  C2_3 
REMARK    2  A    between atoms: C2_3  and  C3_4 
REMARK    3  A    between atoms: C13_16  and  C14_17 
REMARK    4  A    between atoms: C14_17  and  C15_18 
REMARK    5  A    between atoms: C15_18  and  C16_19 
ROOT
HETATM    1  C3  UNL     1      24.551   0.133  52.938  1.00  0.00     0.056 C 
HETATM    2  C4  UNL     1      25.610   0.807  53.275  1.00  0.00     0.046 A 
HETATM    3  C5  UNL     1      25.746   2.205  53.653  1.00  0.00     0.257 A 
HETATM    4  O2  UNL     1      24.865   3.092  53.744  1.00  0.00    -0.267 OA
HETATM    5  N1  UNL     1      27.129   2.532  53.950  1.00  0.00    -0.322 N 
HETATM    6  C6  UNL     1      27.765   1.285  53.729  1.00  0.00     0.046 A 
HETATM    7  C7  UNL     1      29.103   0.972  53.853  1.00  0.00     0.030 A 
HETATM    8  C8  UNL     1      29.650  -0.285  53.611  1.00  0.00     0.002 A 
HETATM    9  C9  UNL     1      28.816  -1.309  53.221  1.00  0.00     0.001 A 
HETATM   10  C10 UNL     1      27.476  -1.016  53.093  1.00  0.00     0.015 A 
HETATM   11  C11 UNL     1      26.953   0.250  53.339  1.00  0.00     0.006 A 
HETATM   12  H5  UNL     1      27.553   3.429  54.246  1.00  0.00     0.169 HD
ENDROOT
BRANCH   1  13
HETATM   13  C2  UNL     1      23.098   0.211  52.732  1.00  0.00     0.175 A 
HETATM   14  C12 UNL     1      22.701   0.953  51.506  1.00  0.00     0.062 A 
HETATM   15  C13 UNL     1      22.085   1.941  52.144  1.00  0.00     0.009 A 
HETATM   16  N2  UNL     1      22.393   1.295  53.394  1.00  0.00    -0.355 N 
HETATM   17  H16 UNL     1      22.162   1.546  54.381  1.00  0.00     0.163 HD
BRANCH  13  18
HETATM   18  O1  UNL     1      22.527  -1.046  52.914  1.00  0.00    -0.358 OA
HETATM   19  C1  UNL     1      22.147  -1.250  54.252  1.00  0.00     0.205 C 
ENDBRANCH  13  18
BRANCH  15  20
HETATM   20  C14 UNL     1      21.346   3.199  51.818  1.00  0.00     0.063 C 
BRANCH  20  21
HETATM   21  C15 UNL     1      22.174   4.392  52.249  1.00  0.00     0.075 C 
BRANCH  21  22
HETATM   22  C16 UNL     1      23.141   4.788  51.193  1.00  0.00     0.231 C 
HETATM   23  O3  UNL     1      23.791   5.793  51.528  1.00  0.00    -0.307 OA
ENDBRANCH  21  22
ENDBRANCH  20  21
ENDBRANCH  15  20
ENDBRANCH   1  13
TORSDOF 5
ENDMDL
MODEL 4
REMARK VINA RESULT:      -7.5      2.010      5.824
REMARK  5 active torsions:
REMARK  status: ('A' for Active; 'I' for Inactive)
REMARK    1  A    between atoms: O1_2  and  C2_3 
REMARK    2  A    between atoms: C2_3  and  C3_4 
REMARK    3  A    between atoms: C13_16  and  C14_17 
REMARK    4  A    between atoms: C14_17  and  C15_18 
REMARK    5  A    between atoms: C15_18  and  C16_19 
ROOT
HETATM    1  C3  UNL     1      24.848   1.842  52.248  1.00  0.00     0.056 C 
HETATM    2  C4  UNL     1      25.545   1.047  53.004  1.00  0.00     0.046 A 
HETATM    3  C5  UNL     1      25.198  -0.247  53.570  1.00  0.00     0.257 A 
HETATM    4  O2  UNL     1      24.135  -0.902  53.459  1.00  0.00    -0.267 OA
HETATM    5  N1  UNL     1      26.292  -0.781  54.360  1.00  0.00    -0.322 N 
HETATM    6  C6  UNL     1      27.262   0.244  54.223  1.00  0.00     0.046 A 
HETATM    7  C7  UNL     1      28.531   0.302  54.764  1.00  0.00     0.030 A 
HETATM    8  C8  UNL     1      29.424   1.354  54.583  1.00  0.00     0.002 A 
HETATM    9  C9  UNL     1      29.039   2.426  53.810  1.00  0.00     0.001 A 
HETATM   10  C10 UNL     1      27.776   2.388  53.261  1.00  0.00     0.015 A 
HETATM   11  C11 UNL     1      26.900   1.323  53.458  1.00  0.00     0.006 A 
HETATM   12  H5  UNL     1      26.363  -1.670  54.887  1.00  0.00     0.169 HD
ENDROOT
BRANCH   1  13
HETATM   13  C2  UNL     1      23.556   2.020  51.570  1.00  0.00     0.175 A 
HETATM   14  C12 UNL     1      22.473   2.520  52.457  1.00  0.00     0.062 A 
HETATM   15  C13 UNL     1      21.718   1.432  52.369  1.00  0.00     0.009 A 
HETATM   16  N2  UNL     1      22.691   0.857  51.476  1.00  0.00    -0.355 N 
HETATM   17  H16 UNL     1      22.715  -0.055  50.968  1.00  0.00     0.163 HD
BRANCH  13  18
HETATM   18  O1  UNL     1      23.744   2.699  50.369  1.00  0.00    -0.358 OA
HETATM   19  C1  UNL     1      24.946   3.427  50.370  1.00  0.00     0.205 C 
ENDBRANCH  13  18
BRANCH  15  20
HETATM   20  C14 UNL     1      20.413   0.925  52.894  1.00  0.00     0.063 C 
BRANCH  20  21
HETATM   21  C15 UNL     1      20.638   0.254  54.233  1.00  0.00     0.075 C 
BRANCH  21  22
HETATM   22  C16 UNL     1      20.677  -1.226  54.096  1.00  0.00     0.231 C 
HETATM   23  O3  UNL     1      21.409  -1.741  54.957  1.00  0.00    -0.307 OA
ENDBRANCH  21  22
ENDBRANCH  20  21
ENDBRANCH  15  20
ENDBRANCH   1  13
TORSDOF 5
ENDMDL
MODEL 5
REMARK VINA RESULT:      -7.3      2.120      5.791
REMARK  5 active torsions:
REMARK  status: ('A' for Active; 'I' for Inactive)
REMARK    1  A    between atoms: O1_2  and  C2_3 
REMARK    2  A    between atoms: C2_3  and  C3_4 
REMARK    3  A    between atoms: C13_16  and  C14_17 
REMARK    4  A    between atoms: C14_17  and  C15_18 
REMARK    5  A    between atoms: C15_18  and  C16_19 
ROOT
HETATM    1  C3  UNL     1      25.261   0.521  52.335  1.00  0.00     0.056 C 
HETATM    2  C4  UNL     1      26.397   0.581  52.963  1.00  0.00     0.046 A 
HETATM    3  C5  UNL     1      26.996   1.676  53.710  1.00  0.00     0.257 A 
HETATM    4  O2  UNL     1      26.550   2.828  53.923  1.00  0.00    -0.267 OA
HETATM    5  N1  UNL     1      28.289   1.296  54.248  1.00  0.00    -0.322 N 
HETATM    6  C6  UNL     1      28.402  -0.040  53.785  1.00  0.00     0.046 A 
HETATM    7  C7  UNL     1      29.437  -0.931  53.984  1.00  0.00     0.030 A 
HETATM    8  C8  UNL     1      29.472  -2.231  53.488  1.00  0.00     0.002 A 
HETATM    9  C9  UNL     1      28.407  -2.687  52.745  1.00  0.00     0.001 A 
HETATM   10  C10 UNL     1      27.362  -1.812  52.536  1.00  0.00     0.015 A 
HETATM   11  C11 UNL     1      27.352  -0.515  53.042  1.00  0.00     0.006 A 
HETATM   12  H5  UNL     1      28.961   1.840  54.818  1.00  0.00     0.169 HD
ENDROOT
BRANCH   1  13
HETATM   13  C2  UNL     1      24.049   1.272  51.983  1.00  0.00     0.175 A 
HETATM   14  C12 UNL     1      23.294   1.787  53.156  1.00  0.00     0.062 A 
HETATM   15  C13 UNL     1      22.208   1.053  52.946  1.00  0.00     0.009 A 
HETATM   16  N2  UNL     1      22.833   0.506  51.770  1.00  0.00    -0.355 N 
HETATM   17  H16 UNL     1      22.494  -0.177  51.056  1.00  0.00     0.163 HD
BRANCH  13  18
HETATM   18  O1  UNL     1      24.337   2.188  50.974  1.00  0.00    -0.358 OA
HETATM   19  C1  UNL     1      24.266   3.511  51.444  1.00  0.00     0.205 C 
ENDBRANCH  13  18
BRANCH  15  20
HETATM   20  C14 UNL     1      20.866   0.830  53.568  1.00  0.00     0.063 C 
BRANCH  20  21
HETATM   21  C15 UNL     1      21.023  -0.041  54.797  1.00  0.00     0.075 C 
BRANCH  21  22
HETATM   22  C16 UNL     1      21.283  -1.456  54.427  1.00  0.00     0.231 C 
HETATM   23  O3  UNL     1      22.085  -1.989  55.213  1.00  0.00    -0.307 OA
ENDBRANCH  21  22
ENDBRANCH  20  21
ENDBRANCH  15  20
ENDBRANCH   1  13
TORSDOF 5
ENDMDL
MODEL 6
REMARK VINA RESULT:      -7.3      2.222      4.610
REMARK  5 active torsions:
REMARK  status: ('A' for Active; 'I' for Inactive)
REMARK    1  A    between atoms: O1_2  and  C2_3 
REMARK    2  A    between atoms: C2_3  and  C3_4 
REMARK    3  A    between atoms: C13_16  and  C14_17 
REMARK    4  A    between atoms: C14_17  and  C15_18 
REMARK    5  A    between atoms: C15_18  and  C16_19 
ROOT
HETATM    1  C3  UNL     1      24.500   1.285  52.679  1.00  0.00     0.056 C 
HETATM    2  C4  UNL     1      24.775   2.373  52.022  1.00  0.00     0.046 A 
HETATM    3  C5  UNL     1      26.006   2.782  51.365  1.00  0.00     0.257 A 
HETATM    4  O2  UNL     1      27.099   2.174  51.279  1.00  0.00    -0.267 OA
HETATM    5  N1  UNL     1      25.860   4.089  50.750  1.00  0.00    -0.322 N 
HETATM    6  C6  UNL     1      24.517   4.403  51.079  1.00  0.00     0.046 A 
HETATM    7  C7  UNL     1      23.801   5.540  50.761  1.00  0.00     0.030 A 
HETATM    8  C8  UNL     1      22.479   5.773  51.128  1.00  0.00     0.002 A 
HETATM    9  C9  UNL     1      21.813   4.815  51.859  1.00  0.00     0.001 A 
HETATM   10  C10 UNL     1      22.511   3.672  52.185  1.00  0.00     0.015 A 
HETATM   11  C11 UNL     1      23.835   3.462  51.807  1.00  0.00     0.006 A 
HETATM   12  H5  UNL     1      26.542   4.653  50.213  1.00  0.00     0.169 HD
ENDROOT
BRANCH   1  13
HETATM   13  C2  UNL     1      25.039  -0.001  53.142  1.00  0.00     0.175 A 
HETATM   14  C12 UNL     1      25.988   0.117  54.281  1.00  0.00     0.062 A 
HETATM   15  C13 UNL     1      27.046  -0.332  53.617  1.00  0.00     0.009 A 
HETATM   16  N2  UNL     1      26.213  -0.513  52.456  1.00  0.00    -0.355 N 
HETATM   17  H16 UNL     1      26.420  -0.887  51.503  1.00  0.00     0.163 HD
BRANCH  13  18
HETATM   18  O1  UNL     1      24.005  -0.923  53.284  1.00  0.00    -0.358 OA
HETATM   19  C1  UNL     1      22.777  -0.285  53.529  1.00  0.00     0.205 C 
ENDBRANCH  13  18
BRANCH  15  20
HETATM   20  C14 UNL     1      28.497  -0.599  53.864  1.00  0.00     0.063 C 
BRANCH  20  21
HETATM   21  C15 UNL     1      29.305   0.618  53.464  1.00  0.00     0.075 C 
BRANCH  21  22
HETATM   22  C16 UNL     1      29.272   1.660  54.523  1.00  0.00     0.231 C 
HETATM   23  O3  UNL     1      28.694   2.687  54.129  1.00  0.00    -0.307 OA
ENDBRANCH  21  22
ENDBRANCH  20  21
ENDBRANCH  15  20
ENDBRANCH   1  13
TORSDOF 5
ENDMDL
MODEL 7
REMARK VINA RESULT:      -7.3      2.777      4.485
REMARK  5 active torsions:
REMARK  status: ('A' for Active; 'I' for Inactive)
REMARK    1  A    between atoms: O1_2  and  C2_3 
REMARK    2  A    between atoms: C2_3  and  C3_4 
REMARK    3  A    between atoms: C13_16  and  C14_17 
REMARK    4  A    between atoms: C14_17  and  C15_18 
REMARK    5  A    between atoms: C15_18  and  C16_19 
ROOT
HETATM    1  C3  UNL     1      23.546   2.868  51.567  1.00  0.00     0.056 C 
HETATM    2  C4  UNL     1      23.991   1.827  52.206  1.00  0.00     0.046 A 
HETATM    3  C5  UNL     1      25.344   1.303  52.312  1.00  0.00     0.257 A 
HETATM    4  O2  UNL     1      26.405   1.739  51.806  1.00  0.00    -0.267 OA
HETATM    5  N1  UNL     1      25.378   0.109  53.136  1.00  0.00    -0.322 N 
HETATM    6  C6  UNL     1      24.012  -0.025  53.490  1.00  0.00     0.046 A 
HETATM    7  C7  UNL     1      23.421  -0.995  54.274  1.00  0.00     0.030 A 
HETATM    8  C8  UNL     1      22.063  -1.057  54.572  1.00  0.00     0.002 A 
HETATM    9  C9  UNL     1      21.226  -0.090  54.061  1.00  0.00     0.001 A 
HETATM   10  C10 UNL     1      21.797   0.888  53.275  1.00  0.00     0.015 A 
HETATM   11  C11 UNL     1      23.159   0.927  52.991  1.00  0.00     0.006 A 
HETATM   12  H5  UNL     1      26.176  -0.494  53.403  1.00  0.00     0.169 HD
ENDROOT
BRANCH   1  13
HETATM   13  C2  UNL     1      23.927   3.996  50.707  1.00  0.00     0.175 A 
HETATM   14  C12 UNL     1      24.587   3.593  49.437  1.00  0.00     0.062 A 
HETATM   15  C13 UNL     1      25.759   4.153  49.714  1.00  0.00     0.009 A 
HETATM   16  N2  UNL     1      25.214   4.620  50.963  1.00  0.00    -0.355 N 
HETATM   17  H16 UNL     1      25.627   5.197  51.729  1.00  0.00     0.163 HD
BRANCH  13  18
HETATM   18  O1  UNL     1      22.863   4.889  50.601  1.00  0.00    -0.358 OA
HETATM   19  C1  UNL     1      22.147   4.982  51.807  1.00  0.00     0.205 C 
ENDBRANCH  13  18
BRANCH  15  20
HETATM   20  C14 UNL     1      27.104   4.315  49.081  1.00  0.00     0.063 C 
BRANCH  20  21
HETATM   21  C15 UNL     1      27.233   5.721  48.532  1.00  0.00     0.075 C 
BRANCH  21  22
HETATM   22  C16 UNL     1      28.630   6.014  48.122  1.00  0.00     0.231 C 
HETATM   23  O3  UNL     1      29.396   5.084  48.425  1.00  0.00    -0.307 OA
ENDBRANCH  21  22
ENDBRANCH  20  21
ENDBRANCH  15  20
ENDBRANCH   1  13
TORSDOF 5
ENDMDL
MODEL 8
REMARK VINA RESULT:      -7.1      1.581      1.963
REMARK  5 active torsions:
REMARK  status: ('A' for Active; 'I' for Inactive)
REMARK    1  A    between atoms: O1_2  and  C2_3 
REMARK    2  A    between atoms: C2_3  and  C3_4 
REMARK    3  A    between atoms: C13_16  and  C14_17 
REMARK    4  A    between atoms: C14_17  and  C15_18 
REMARK    5  A    between atoms: C15_18  and  C16_19 
ROOT
HETATM    1  C3  UNL     1      24.017   1.058  52.117  1.00  0.00     0.056 C 
HETATM    2  C4  UNL     1      23.118   0.368  52.753  1.00  0.00     0.046 A 
HETATM    3  C5  UNL     1      23.247  -0.471  53.934  1.00  0.00     0.257 A 
HETATM    4  O2  UNL     1      24.266  -0.727  54.618  1.00  0.00    -0.267 OA
HETATM    5  N1  UNL     1      21.970  -1.055  54.301  1.00  0.00    -0.322 N 
HETATM    6  C6  UNL     1      21.121  -0.523  53.298  1.00  0.00     0.046 A 
HETATM    7  C7  UNL     1      19.767  -0.729  53.124  1.00  0.00     0.030 A 
HETATM    8  C8  UNL     1      19.004  -0.168  52.104  1.00  0.00     0.002 A 
HETATM    9  C9  UNL     1      19.620   0.658  51.191  1.00  0.00     0.001 A 
HETATM   10  C10 UNL     1      20.971   0.877  51.348  1.00  0.00     0.015 A 
HETATM   11  C11 UNL     1      21.714   0.303  52.377  1.00  0.00     0.006 A 
HETATM   12  H5  UNL     1      21.727  -1.690  55.082  1.00  0.00     0.169 HD
ENDROOT
BRANCH   1  13
HETATM   13  C2  UNL     1      25.439   1.428  52.083  1.00  0.00     0.175 A 
HETATM   14  C12 UNL     1      26.361   0.272  51.925  1.00  0.00     0.062 A 
HETATM   15  C13 UNL     1      26.944   0.407  53.110  1.00  0.00     0.009 A 
HETATM   16  N2  UNL     1      26.119   1.561  53.359  1.00  0.00    -0.355 N 
HETATM   17  H16 UNL     1      26.072   2.220  54.168  1.00  0.00     0.163 HD
BRANCH  13  18
HETATM   18  O1  UNL     1      25.627   2.500  51.214  1.00  0.00    -0.358 OA
HETATM   19  C1  UNL     1      24.440   2.828  50.536  1.00  0.00     0.205 C 
ENDBRANCH  13  18
BRANCH  15  20
HETATM   20  C14 UNL     1      28.010  -0.261  53.920  1.00  0.00     0.063 C 
BRANCH  20  21
HETATM   21  C15 UNL     1      29.319   0.478  53.732  1.00  0.00     0.075 C 
BRANCH  21  22
HETATM   22  C16 UNL     1      29.145   1.942  53.918  1.00  0.00     0.231 C 
HETATM   23  O3  UNL     1      29.604   2.316  55.010  1.00  0.00    -0.307 OA
ENDBRANCH  21  22
ENDBRANCH  20  21
ENDBRANCH  15  20
ENDBRANCH   1  13
TORSDOF 5
ENDMDL
MODEL 9
REMARK VINA RESULT:      -6.9      2.351      3.410
REMARK  5 active torsions:
REMARK  status: ('A' for Active; 'I' for Inactive)
REMARK    1  A    between atoms: O1_2  and  C2_3 
REMARK    2  A    between atoms: C2_3  and  C3_4 
REMARK    3  A    between atoms: C13_16  and  C14_17 
REMARK    4  A    between atoms: C14_17  and  C15_18 
REMARK    5  A    between atoms: C15_18  and  C16_19 
ROOT
HETATM    1  C3  UNL     1      21.451   1.423  52.300  1.00  0.00     0.056 C 
HETATM    2  C4  UNL     1      20.907   0.422  52.926  1.00  0.00     0.046 A 
HETATM    3  C5  UNL     1      21.447  -0.427  53.977  1.00  0.00     0.257 A 
HETATM    4  O2  UNL     1      22.572  -0.390  54.527  1.00  0.00    -0.267 OA
HETATM    5  N1  UNL     1      20.481  -1.430  54.385  1.00  0.00    -0.322 N 
HETATM    6  C6  UNL     1      19.386  -1.124  53.538  1.00  0.00     0.046 A 
HETATM    7  C7  UNL     1      18.158  -1.750  53.464  1.00  0.00     0.030 A 
HETATM    8  C8  UNL     1      17.132  -1.387  52.596  1.00  0.00     0.002 A 
HETATM    9  C9  UNL     1      17.331  -0.328  51.739  1.00  0.00     0.001 A 
HETATM   10  C10 UNL     1      18.550   0.311  51.798  1.00  0.00     0.015 A 
HETATM   11  C11 UNL     1      19.562  -0.072  52.675  1.00  0.00     0.006 A 
HETATM   12  H5  UNL     1      20.554  -2.175  55.100  1.00  0.00     0.169 HD
ENDROOT
BRANCH   1  13
HETATM   13  C2  UNL     1      22.663   2.244  52.182  1.00  0.00     0.175 A 
HETATM   14  C12 UNL     1      23.677   1.694  51.243  1.00  0.00     0.062 A 
HETATM   15  C13 UNL     1      24.606   1.477  52.166  1.00  0.00     0.009 A 
HETATM   16  N2  UNL     1      23.714   2.018  53.159  1.00  0.00    -0.355 N 
HETATM   17  H16 UNL     1      23.830   2.177  54.185  1.00  0.00     0.163 HD
BRANCH  13  18
HETATM   18  O1  UNL     1      22.313   3.581  52.010  1.00  0.00    -0.358 OA
HETATM   19  C1  UNL     1      22.231   3.921  50.649  1.00  0.00     0.205 C 
ENDBRANCH  13  18
BRANCH  15  20
HETATM   20  C14 UNL     1      26.000   0.941  52.252  1.00  0.00     0.063 C 
BRANCH  20  21
HETATM   21  C15 UNL     1      26.982   2.095  52.234  1.00  0.00     0.075 C 
BRANCH  21  22
HETATM   22  C16 UNL     1      28.117   1.853  53.162  1.00  0.00     0.231 C 
HETATM   23  O3  UNL     1      28.093   2.641  54.121  1.00  0.00    -0.307 OA
ENDBRANCH  21  22
ENDBRANCH  20  21
ENDBRANCH  15  20
ENDBRANCH   1  13
TORSDOF 5
ENDMDL
