MODEL 1
REMARK VINA RESULT:      -8.0      0.000      0.000
REMARK  2 active torsions:
REMARK  status: ('A' for Active; 'I' for Inactive)
REMARK    1  A    between atoms: N2_6  and  C5_7 
REMARK    2  A    between atoms: C7_10  and  C8_11 
ROOT
HETATM    1  N1  UNL     1      16.071  -0.214  52.070  1.00  0.00    -0.191 NA
HETATM    2  C1  UNL     1      17.219  -0.207  52.220  1.00  0.00     0.099 C 
HETATM    3  C2  UNL     1      18.636  -0.190  52.431  1.00  0.00     0.043 A 
HETATM    4  C3  UNL     1      19.230  -0.778  53.458  1.00  0.00     0.016 A 
HETATM    5  C4  UNL     1      20.670  -0.850  53.812  1.00  0.00     0.158 A 
HETATM    6  N2  UNL     1      21.406  -0.125  52.793  1.00  0.00    -0.337 N 
HETATM    7  C15 UNL     1      20.873   0.542  51.654  1.00  0.00     0.094 A 
HETATM    8  C16 UNL     1      19.556   0.485  51.521  1.00  0.00     0.039 A 
ENDROOT
BRANCH   6   9
HETATM    9  C5  UNL     1      22.828  -0.084  52.967  1.00  0.00     0.147 A 
HETATM   10  C6  UNL     1      23.424  -0.791  53.991  1.00  0.00     0.168 A 
HETATM   11  N3  UNL     1      24.754  -0.781  54.190  1.00  0.00    -0.255 NA
HETATM   12  C7  UNL     1      25.569  -0.059  53.372  1.00  0.00     0.087 A 
HETATM   13  C14 UNL     1      24.962   0.645  52.351  1.00  0.00     0.151 A 
HETATM   14  N4  UNL     1      23.629   0.614  52.179  1.00  0.00    -0.239 NA
BRANCH  12  15
HETATM   15  C8  UNL     1      27.016  -0.024  53.559  1.00  0.00     0.033 A 
HETATM   16  C9  UNL     1      27.728   0.959  54.169  1.00  0.00     0.017 A 
HETATM   17  C10 UNL     1      29.101   0.920  54.307  1.00  0.00     0.001 A 
HETATM   18  C11 UNL     1      29.763  -0.182  53.793  1.00  0.00     0.003 A 
HETATM   19  C12 UNL     1      29.106  -1.225  53.156  1.00  0.00     0.043 A 
HETATM   20  C13 UNL     1      27.749  -1.103  53.065  1.00  0.00     0.129 A 
HETATM   21  F1  UNL     1      27.104  -2.132  52.437  1.00  0.00    -0.205 F 
ENDBRANCH  12  15
ENDBRANCH   6   9
TORSDOF 2
ENDMDL
MODEL 2
REMARK VINA RESULT:      -7.6      4.551      7.944
REMARK  2 active torsions:
REMARK  status: ('A' for Active; 'I' for Inactive)
REMARK    1  A    between atoms: N2_6  and  C5_7 
REMARK    2  A    between atoms: C7_10  and  C8_11 
ROOT
HETATM    1  N1  UNL     1      28.710   7.743  47.261  1.00  0.00    -0.191 NA
HETATM    2  C1  UNL     1      28.028   7.010  47.841  1.00  0.00     0.099 C 
HETATM    3  C2  UNL     1      27.183   6.117  48.578  1.00  0.00     0.043 A 
HETATM    4  C3  UNL     1      26.076   6.501  49.195  1.00  0.00     0.016 A 
HETATM    5  C4  UNL     1      25.105   5.707  49.990  1.00  0.00     0.158 A 
HETATM    6  N2  UNL     1      25.572   4.334  50.002  1.00  0.00    -0.337 N 
HETATM    7  C15 UNL     1      26.741   3.814  49.377  1.00  0.00     0.094 A 
HETATM    8  C16 UNL     1      27.475   4.694  48.713  1.00  0.00     0.039 A 
ENDROOT
BRANCH   6   9
HETATM    9  C5  UNL     1      24.754   3.408  50.730  1.00  0.00     0.147 A 
HETATM   10  C6  UNL     1      24.841   3.335  52.104  1.00  0.00     0.168 A 
HETATM   11  N3  UNL     1      24.092   2.482  52.826  1.00  0.00    -0.255 NA
HETATM   12  C7  UNL     1      23.209   1.648  52.210  1.00  0.00     0.087 A 
HETATM   13  C14 UNL     1      23.130   1.729  50.834  1.00  0.00     0.151 A 
HETATM   14  N4  UNL     1      23.893   2.593  50.142  1.00  0.00    -0.239 NA
BRANCH  12  15
HETATM   15  C8  UNL     1      22.382   0.709  52.961  1.00  0.00     0.033 A 
HETATM   16  C9  UNL     1      21.063   0.853  53.257  1.00  0.00     0.017 A 
HETATM   17  C10 UNL     1      20.346  -0.084  53.976  1.00  0.00     0.001 A 
HETATM   18  C11 UNL     1      21.022  -1.214  54.405  1.00  0.00     0.003 A 
HETATM   19  C12 UNL     1      22.367  -1.430  54.143  1.00  0.00     0.043 A 
HETATM   20  C13 UNL     1      22.996  -0.453  53.425  1.00  0.00     0.129 A 
HETATM   21  F1  UNL     1      24.322  -0.670  53.168  1.00  0.00    -0.205 F 
ENDBRANCH  12  15
ENDBRANCH   6   9
TORSDOF 2
ENDMDL
MODEL 3
REMARK VINA RESULT:      -7.5      4.454      5.377
REMARK  2 active torsions:
REMARK  status: ('A' for Active; 'I' for Inactive)
REMARK    1  A    between atoms: N2_6  and  C5_7 
REMARK    2  A    between atoms: C7_10  and  C8_11 
ROOT
HETATM    1  N1  UNL     1      20.017   8.779  49.787  1.00  0.00    -0.191 NA
HETATM    2  C1  UNL     1      20.772   7.950  50.076  1.00  0.00     0.099 C 
HETATM    3  C2  UNL     1      21.691   6.916  50.449  1.00  0.00     0.043 A 
HETATM    4  C3  UNL     1      21.367   5.633  50.495  1.00  0.00     0.016 A 
HETATM    5  C4  UNL     1      22.195   4.455  50.858  1.00  0.00     0.158 A 
HETATM    6  N2  UNL     1      23.523   4.939  51.185  1.00  0.00    -0.337 N 
HETATM    7  C15 UNL     1      23.977   6.289  51.170  1.00  0.00     0.094 A 
HETATM    8  C16 UNL     1      23.077   7.192  50.815  1.00  0.00     0.039 A 
ENDROOT
BRANCH   6   9
HETATM    9  C5  UNL     1      24.473   3.935  51.564  1.00  0.00     0.147 A 
HETATM   10  C6  UNL     1      24.396   3.338  52.804  1.00  0.00     0.168 A 
HETATM   11  N3  UNL     1      25.266   2.392  53.201  1.00  0.00    -0.255 NA
HETATM   12  C7  UNL     1      26.269   1.987  52.373  1.00  0.00     0.087 A 
HETATM   13  C14 UNL     1      26.337   2.590  51.134  1.00  0.00     0.151 A 
HETATM   14  N4  UNL     1      25.451   3.534  50.768  1.00  0.00    -0.239 NA
BRANCH  12  15
HETATM   15  C8  UNL     1      27.231   0.963  52.770  1.00  0.00     0.033 A 
HETATM   16  C9  UNL     1      27.108  -0.377  52.582  1.00  0.00     0.017 A 
HETATM   17  C10 UNL     1      28.065  -1.285  52.988  1.00  0.00     0.001 A 
HETATM   18  C11 UNL     1      29.195  -0.786  53.613  1.00  0.00     0.003 A 
HETATM   19  C12 UNL     1      29.392   0.568  53.842  1.00  0.00     0.043 A 
HETATM   20  C13 UNL     1      28.394   1.394  53.407  1.00  0.00     0.129 A 
HETATM   21  F1  UNL     1      28.591   2.728  53.633  1.00  0.00    -0.205 F 
ENDBRANCH  12  15
ENDBRANCH   6   9
TORSDOF 2
ENDMDL
MODEL 4
REMARK VINA RESULT:      -7.5      4.786      8.127
REMARK  2 active torsions:
REMARK  status: ('A' for Active; 'I' for Inactive)
REMARK    1  A    between atoms: N2_6  and  C5_7 
REMARK    2  A    between atoms: C7_10  and  C8_11 
ROOT
HETATM    1  N1  UNL     1      28.459   7.943  47.283  1.00  0.00    -0.191 NA
HETATM    2  C1  UNL     1      27.857   7.158  47.886  1.00  0.00     0.099 C 
HETATM    3  C2  UNL     1      27.113   6.172  48.611  1.00  0.00     0.043 A 
HETATM    4  C3  UNL     1      27.460   4.896  48.677  1.00  0.00     0.016 A 
HETATM    5  C4  UNL     1      26.802   3.766  49.379  1.00  0.00     0.158 A 
HETATM    6  N2  UNL     1      25.622   4.291  50.041  1.00  0.00    -0.337 N 
HETATM    7  C15 UNL     1      25.157   5.637  50.036  1.00  0.00     0.094 A 
HETATM    8  C16 UNL     1      25.894   6.495  49.346  1.00  0.00     0.039 A 
ENDROOT
BRANCH   6   9
HETATM    9  C5  UNL     1      24.849   3.336  50.778  1.00  0.00     0.147 A 
HETATM   10  C6  UNL     1      23.811   2.663  50.169  1.00  0.00     0.168 A 
HETATM   11  N3  UNL     1      23.060   1.759  50.823  1.00  0.00    -0.255 NA
HETATM   12  C7  UNL     1      23.306   1.475  52.132  1.00  0.00     0.087 A 
HETATM   13  C14 UNL     1      24.346   2.154  52.732  1.00  0.00     0.151 A 
HETATM   14  N4  UNL     1      25.079   3.053  52.050  1.00  0.00    -0.239 NA
BRANCH  12  15
HETATM   15  C8  UNL     1      22.511   0.500  52.873  1.00  0.00     0.033 A 
HETATM   16  C9  UNL     1      22.901  -0.750  53.238  1.00  0.00     0.017 A 
HETATM   17  C10 UNL     1      22.088  -1.617  53.941  1.00  0.00     0.001 A 
HETATM   18  C11 UNL     1      20.821  -1.172  54.280  1.00  0.00     0.003 A 
HETATM   19  C12 UNL     1      20.352   0.090  53.942  1.00  0.00     0.043 A 
HETATM   20  C13 UNL     1      21.223   0.880  53.248  1.00  0.00     0.129 A 
HETATM   21  F1  UNL     1      20.758   2.123  52.917  1.00  0.00    -0.205 F 
ENDBRANCH  12  15
ENDBRANCH   6   9
TORSDOF 2
ENDMDL
MODEL 5
REMARK VINA RESULT:      -7.4      1.643      2.018
REMARK  2 active torsions:
REMARK  status: ('A' for Active; 'I' for Inactive)
REMARK    1  A    between atoms: N2_6  and  C5_7 
REMARK    2  A    between atoms: C7_10  and  C8_11 
ROOT
HETATM    1  N1  UNL     1      16.566   2.233  50.399  1.00  0.00    -0.191 NA
HETATM    2  C1  UNL     1      17.661   2.001  50.695  1.00  0.00     0.099 C 
HETATM    3  C2  UNL     1      19.012   1.690  51.056  1.00  0.00     0.043 A 
HETATM    4  C3  UNL     1      19.847   1.034  50.265  1.00  0.00     0.016 A 
HETATM    5  C4  UNL     1      21.261   0.640  50.492  1.00  0.00     0.158 A 
HETATM    6  N2  UNL     1      21.639   1.111  51.811  1.00  0.00    -0.337 N 
HETATM    7  C15 UNL     1      20.826   1.821  52.739  1.00  0.00     0.094 A 
HETATM    8  C16 UNL     1      19.589   2.075  52.340  1.00  0.00     0.039 A 
ENDROOT
BRANCH   6   9
HETATM    9  C5  UNL     1      22.984   0.819  52.210  1.00  0.00     0.147 A 
HETATM   10  C6  UNL     1      24.045   1.451  51.595  1.00  0.00     0.168 A 
HETATM   11  N3  UNL     1      25.322   1.208  51.939  1.00  0.00    -0.255 NA
HETATM   12  C7  UNL     1      25.613   0.313  52.924  1.00  0.00     0.087 A 
HETATM   13  C14 UNL     1      24.545  -0.313  53.533  1.00  0.00     0.151 A 
HETATM   14  N4  UNL     1      23.279  -0.048  53.165  1.00  0.00    -0.239 NA
BRANCH  12  15
HETATM   15  C8  UNL     1      26.987   0.024  53.323  1.00  0.00     0.033 A 
HETATM   16  C9  UNL     1      27.783   0.803  54.102  1.00  0.00     0.017 A 
HETATM   17  C10 UNL     1      29.078   0.460  54.435  1.00  0.00     0.001 A 
HETATM   18  C11 UNL     1      29.569  -0.738  53.943  1.00  0.00     0.003 A 
HETATM   19  C12 UNL     1      28.818  -1.585  53.142  1.00  0.00     0.043 A 
HETATM   20  C13 UNL     1      27.548  -1.167  52.862  1.00  0.00     0.129 A 
HETATM   21  F1  UNL     1      26.810  -2.005  52.073  1.00  0.00    -0.205 F 
ENDBRANCH  12  15
ENDBRANCH   6   9
TORSDOF 2
ENDMDL
MODEL 6
REMARK VINA RESULT:      -7.2      2.428      3.175
REMARK  2 active torsions:
REMARK  status: ('A' for Active; 'I' for Inactive)
REMARK    1  A    between atoms: N2_6  and  C5_7 
REMARK    2  A    between atoms: C7_10  and  C8_11 
ROOT
HETATM    1  N1  UNL     1      17.270   4.273  50.603  1.00  0.00    -0.191 NA
HETATM    2  C1  UNL     1      18.315   3.846  50.859  1.00  0.00     0.099 C 
HETATM    3  C2  UNL     1      19.609   3.306  51.153  1.00  0.00     0.043 A 
HETATM    4  C3  UNL     1      20.643   3.397  50.330  1.00  0.00     0.016 A 
HETATM    5  C4  UNL     1      22.032   2.896  50.488  1.00  0.00     0.158 A 
HETATM    6  N2  UNL     1      22.113   2.235  51.777  1.00  0.00    -0.337 N 
HETATM    7  C15 UNL     1      21.069   2.079  52.734  1.00  0.00     0.094 A 
HETATM    8  C16 UNL     1      19.901   2.602  52.398  1.00  0.00     0.039 A 
ENDROOT
BRANCH   6   9
HETATM    9  C5  UNL     1      23.391   1.680  52.110  1.00  0.00     0.147 A 
HETATM   10  C6  UNL     1      24.508   2.018  51.375  1.00  0.00     0.168 A 
HETATM   11  N3  UNL     1      25.727   1.522  51.653  1.00  0.00    -0.255 NA
HETATM   12  C7  UNL     1      25.899   0.653  52.687  1.00  0.00     0.087 A 
HETATM   13  C14 UNL     1      24.775   0.321  53.416  1.00  0.00     0.151 A 
HETATM   14  N4  UNL     1      23.570   0.835  53.112  1.00  0.00    -0.239 NA
BRANCH  12  15
HETATM   15  C8  UNL     1      27.206   0.094  53.017  1.00  0.00     0.033 A 
HETATM   16  C9  UNL     1      27.605  -1.192  52.833  1.00  0.00     0.017 A 
HETATM   17  C10 UNL     1      28.864  -1.647  53.172  1.00  0.00     0.001 A 
HETATM   18  C11 UNL     1      29.746  -0.733  53.724  1.00  0.00     0.003 A 
HETATM   19  C12 UNL     1      29.412   0.596  53.943  1.00  0.00     0.043 A 
HETATM   20  C13 UNL     1      28.147   0.958  53.578  1.00  0.00     0.129 A 
HETATM   21  F1  UNL     1      27.821   2.268  53.795  1.00  0.00    -0.205 F 
ENDBRANCH  12  15
ENDBRANCH   6   9
TORSDOF 2
ENDMDL
MODEL 7
REMARK VINA RESULT:      -7.2      5.246      6.541
REMARK  2 active torsions:
REMARK  status: ('A' for Active; 'I' for Inactive)
REMARK    1  A    between atoms: N2_6  and  C5_7 
REMARK    2  A    between atoms: C7_10  and  C8_11 
ROOT
HETATM    1  N1  UNL     1      21.388  -2.011  54.738  1.00  0.00    -0.191 NA
HETATM    2  C1  UNL     1      21.956  -1.220  54.114  1.00  0.00     0.099 C 
HETATM    3  C2  UNL     1      22.652  -0.252  53.319  1.00  0.00     0.043 A 
HETATM    4  C3  UNL     1      22.118   0.354  52.270  1.00  0.00     0.016 A 
HETATM    5  C4  UNL     1      22.703   1.368  51.356  1.00  0.00     0.158 A 
HETATM    6  N2  UNL     1      24.058   1.628  51.804  1.00  0.00    -0.337 N 
HETATM    7  C15 UNL     1      24.730   1.036  52.912  1.00  0.00     0.094 A 
HETATM    8  C16 UNL     1      24.026   0.152  53.602  1.00  0.00     0.039 A 
ENDROOT
BRANCH   6   9
HETATM    9  C5  UNL     1      24.790   2.591  51.035  1.00  0.00     0.147 A 
HETATM   10  C6  UNL     1      24.404   3.915  51.029  1.00  0.00     0.168 A 
HETATM   11  N3  UNL     1      25.063   4.851  50.322  1.00  0.00    -0.255 NA
HETATM   12  C7  UNL     1      26.152   4.513  49.577  1.00  0.00     0.087 A 
HETATM   13  C14 UNL     1      26.530   3.186  49.590  1.00  0.00     0.151 A 
HETATM   14  N4  UNL     1      25.849   2.274  50.308  1.00  0.00    -0.239 NA
BRANCH  12  15
HETATM   15  C8  UNL     1      26.890   5.502  48.797  1.00  0.00     0.033 A 
HETATM   16  C9  UNL     1      28.218   5.478  48.511  1.00  0.00     0.017 A 
HETATM   17  C10 UNL     1      28.846   6.455  47.765  1.00  0.00     0.001 A 
HETATM   18  C11 UNL     1      28.067   7.499  47.295  1.00  0.00     0.003 A 
HETATM   19  C12 UNL     1      26.706   7.594  47.546  1.00  0.00     0.043 A 
HETATM   20  C13 UNL     1      26.169   6.584  48.292  1.00  0.00     0.129 A 
HETATM   21  F1  UNL     1      24.827   6.680  48.538  1.00  0.00    -0.205 F 
ENDBRANCH  12  15
ENDBRANCH   6   9
TORSDOF 2
ENDMDL
MODEL 8
REMARK VINA RESULT:      -7.2      5.385      6.836
REMARK  2 active torsions:
REMARK  status: ('A' for Active; 'I' for Inactive)
REMARK    1  A    between atoms: N2_6  and  C5_7 
REMARK    2  A    between atoms: C7_10  and  C8_11 
ROOT
HETATM    1  N1  UNL     1      22.279  -1.746  55.131  1.00  0.00    -0.191 NA
HETATM    2  C1  UNL     1      22.732  -0.935  54.440  1.00  0.00     0.099 C 
HETATM    3  C2  UNL     1      23.307   0.077  53.604  1.00  0.00     0.043 A 
HETATM    4  C3  UNL     1      24.611   0.231  53.435  1.00  0.00     0.016 A 
HETATM    5  C4  UNL     1      25.354   1.219  52.612  1.00  0.00     0.158 A 
HETATM    6  N2  UNL     1      24.375   2.067  51.959  1.00  0.00    -0.337 N 
HETATM    7  C15 UNL     1      22.957   1.991  52.069  1.00  0.00     0.094 A 
HETATM    8  C16 UNL     1      22.494   1.033  52.858  1.00  0.00     0.039 A 
ENDROOT
BRANCH   6   9
HETATM    9  C5  UNL     1      24.909   3.093  51.113  1.00  0.00     0.147 A 
HETATM   10  C6  UNL     1      25.896   2.795  50.198  1.00  0.00     0.168 A 
HETATM   11  N3  UNL     1      26.426   3.726  49.384  1.00  0.00    -0.255 NA
HETATM   12  C7  UNL     1      25.995   5.017  49.441  1.00  0.00     0.087 A 
HETATM   13  C14 UNL     1      25.008   5.305  50.361  1.00  0.00     0.151 A 
HETATM   14  N4  UNL     1      24.499   4.350  51.160  1.00  0.00    -0.239 NA
BRANCH  12  15
HETATM   15  C8  UNL     1      26.547   6.053  48.574  1.00  0.00     0.033 A 
HETATM   16  C9  UNL     1      25.856   7.059  47.977  1.00  0.00     0.017 A 
HETATM   17  C10 UNL     1      26.452   8.005  47.167  1.00  0.00     0.001 A 
HETATM   18  C11 UNL     1      27.819   7.906  46.968  1.00  0.00     0.003 A 
HETATM   19  C12 UNL     1      28.592   6.907  47.543  1.00  0.00     0.043 A 
HETATM   20  C13 UNL     1      27.920   6.015  48.329  1.00  0.00     0.129 A 
HETATM   21  F1  UNL     1      28.684   5.033  48.895  1.00  0.00    -0.205 F 
ENDBRANCH  12  15
ENDBRANCH   6   9
TORSDOF 2
ENDMDL
MODEL 9
REMARK VINA RESULT:      -6.8      5.002      7.535
REMARK  2 active torsions:
REMARK  status: ('A' for Active; 'I' for Inactive)
REMARK    1  A    between atoms: N2_6  and  C5_7 
REMARK    2  A    between atoms: C7_10  and  C8_11 
ROOT
HETATM    1  N1  UNL     1      25.883   8.931  46.286  1.00  0.00    -0.191 NA
HETATM    2  C1  UNL     1      25.540   8.069  46.978  1.00  0.00     0.099 C 
HETATM    3  C2  UNL     1      25.097   7.017  47.845  1.00  0.00     0.043 A 
HETATM    4  C3  UNL     1      23.834   6.636  47.946  1.00  0.00     0.016 A 
HETATM    5  C4  UNL     1      23.223   5.575  48.787  1.00  0.00     0.158 A 
HETATM    6  N2  UNL     1      24.290   4.957  49.552  1.00  0.00    -0.337 N 
HETATM    7  C15 UNL     1      25.676   5.286  49.522  1.00  0.00     0.094 A 
HETATM    8  C16 UNL     1      26.014   6.267  48.699  1.00  0.00     0.039 A 
ENDROOT
BRANCH   6   9
HETATM    9  C5  UNL     1      23.889   3.899  50.432  1.00  0.00     0.147 A 
HETATM   10  C6  UNL     1      23.987   4.056  51.798  1.00  0.00     0.168 A 
HETATM   11  N3  UNL     1      23.622   3.090  52.659  1.00  0.00    -0.255 NA
HETATM   12  C7  UNL     1      23.136   1.904  52.200  1.00  0.00     0.087 A 
HETATM   13  C14 UNL     1      23.042   1.757  50.831  1.00  0.00     0.151 A 
HETATM   14  N4  UNL     1      23.416   2.743  49.996  1.00  0.00    -0.239 NA
BRANCH  12  15
HETATM   15  C8  UNL     1      22.731   0.833  53.105  1.00  0.00     0.033 A 
HETATM   16  C9  UNL     1      21.475   0.598  53.567  1.00  0.00     0.017 A 
HETATM   17  C10 UNL     1      21.170  -0.440  54.426  1.00  0.00     0.001 A 
HETATM   18  C11 UNL     1      22.207  -1.267  54.821  1.00  0.00     0.003 A 
HETATM   19  C12 UNL     1      23.515  -1.091  54.393  1.00  0.00     0.043 A 
HETATM   20  C13 UNL     1      23.725  -0.040  53.546  1.00  0.00     0.129 A 
HETATM   21  F1  UNL     1      25.015   0.131  53.125  1.00  0.00    -0.205 F 
ENDBRANCH  12  15
ENDBRANCH   6   9
TORSDOF 2
ENDMDL
