MODEL 1
REMARK VINA RESULT:      -7.3      0.000      0.000
REMARK  5 active torsions:
REMARK  status: ('A' for Active; 'I' for Inactive)
REMARK    1  A    between atoms: C2_2  and  N1_3 
REMARK    2  A    between atoms: N1_3  and  C3_4 
REMARK    3  A    between atoms: N1_3  and  C16_20 
REMARK    4  A    between atoms: C4_5  and  C5_7 
REMARK       I    between atoms: C5_7  and  N2_9 
REMARK    5  A    between atoms: N2_9  and  C6_10 
ROOT
HETATM    1  C5  UNL     1      25.887   2.425  51.378  1.00  0.00     0.269 C 
HETATM    2  O1  UNL     1      26.802   2.870  50.638  1.00  0.00    -0.266 OA
HETATM    3  N2  UNL     1      25.936   1.668  52.573  1.00  0.00    -0.321 N 
HETATM    4  H7  UNL     1      25.041   1.400  53.031  1.00  0.00     0.169 HD
ENDROOT
BRANCH   3   5
HETATM    5  C6  UNL     1      27.222   1.327  53.067  1.00  0.00     0.046 A 
HETATM    6  C7  UNL     1      28.126   2.246  53.603  1.00  0.00     0.030 A 
HETATM    7  C8  UNL     1      29.370   1.848  54.068  1.00  0.00     0.003 A 
HETATM    8  C9  UNL     1      29.750   0.520  54.014  1.00  0.00     0.012 A 
HETATM    9  C10 UNL     1      28.900  -0.417  53.498  1.00  0.00    -0.024 A 
HETATM   10  C11 UNL     1      29.184  -1.758  53.399  1.00  0.00     0.012 A 
HETATM   11  C15 UNL     1      27.664   0.013  53.041  1.00  0.00     0.001 A 
HETATM   12  C12 UNL     1      28.337  -2.711  52.881  1.00  0.00     0.001 A 
HETATM   13  C13 UNL     1      27.086  -2.290  52.417  1.00  0.00     0.001 A 
HETATM   14  C14 UNL     1      26.807  -0.935  52.520  1.00  0.00     0.014 A 
ENDBRANCH   3   5
BRANCH   1  15
HETATM   15  C4  UNL     1      24.583   2.793  50.840  1.00  0.00     0.117 C 
HETATM   16  C3  UNL     1      23.635   2.660  51.755  1.00  0.00     0.116 C 
HETATM   17 CL1  UNL     1      24.073   3.358  49.262  1.00  0.00    -0.077 Cl
BRANCH  16  18
HETATM   18  N1  UNL     1      22.248   2.855  51.822  1.00  0.00    -0.376 N 
BRANCH  18  19
HETATM   19  C2  UNL     1      21.633   4.172  51.898  1.00  0.00     0.119 C 
HETATM   20  C1  UNL     1      20.334   4.258  51.139  1.00  0.00     0.026 C 
ENDBRANCH  18  19
BRANCH  18  21
HETATM   21  C16 UNL     1      21.221   1.831  51.828  1.00  0.00     0.237 C 
HETATM   22 CL2  UNL     1      21.487   0.614  50.577  1.00  0.00    -0.109 Cl
ENDBRANCH  18  21
ENDBRANCH  16  18
ENDBRANCH   1  15
TORSDOF 5
ENDMDL
MODEL 2
REMARK VINA RESULT:      -7.3      1.185      1.756
REMARK  5 active torsions:
REMARK  status: ('A' for Active; 'I' for Inactive)
REMARK    1  A    between atoms: C2_2  and  N1_3 
REMARK    2  A    between atoms: N1_3  and  C3_4 
REMARK    3  A    between atoms: N1_3  and  C16_20 
REMARK    4  A    between atoms: C4_5  and  C5_7 
REMARK       I    between atoms: C5_7  and  N2_9 
REMARK    5  A    between atoms: N2_9  and  C6_10 
ROOT
HETATM    1  C5  UNL     1      25.196   2.102  51.537  1.00  0.00     0.269 C 
HETATM    2  O1  UNL     1      25.957   2.769  50.790  1.00  0.00    -0.266 OA
HETATM    3  N2  UNL     1      25.466   1.298  52.671  1.00  0.00    -0.321 N 
HETATM    4  H7  UNL     1      24.673   0.826  53.148  1.00  0.00     0.169 HD
ENDROOT
BRANCH   3   5
HETATM    5  C6  UNL     1      26.822   1.194  53.076  1.00  0.00     0.046 A 
HETATM    6  C7  UNL     1      27.596   2.272  53.510  1.00  0.00     0.030 A 
HETATM    7  C8  UNL     1      28.917   2.105  53.894  1.00  0.00     0.003 A 
HETATM    8  C9  UNL     1      29.508   0.856  53.856  1.00  0.00     0.012 A 
HETATM    9  C10 UNL     1      28.792  -0.230  53.440  1.00  0.00    -0.024 A 
HETATM   10  C11 UNL     1      29.288  -1.511  53.367  1.00  0.00     0.012 A 
HETATM   11  C15 UNL     1      27.473  -0.030  53.063  1.00  0.00     0.001 A 
HETATM   12  C12 UNL     1      28.576  -2.612  52.948  1.00  0.00     0.001 A 
HETATM   13  C13 UNL     1      27.244  -2.423  52.566  1.00  0.00     0.001 A 
HETATM   14  C14 UNL     1      26.752  -1.128  52.642  1.00  0.00     0.014 A 
ENDBRANCH   3   5
BRANCH   1  15
HETATM   15  C4  UNL     1      23.814   2.232  51.091  1.00  0.00     0.117 C 
HETATM   16  C3  UNL     1      22.977   2.219  52.117  1.00  0.00     0.116 C 
HETATM   17 CL1  UNL     1      23.097   2.393  49.500  1.00  0.00    -0.077 Cl
BRANCH  16  18
HETATM   18  N1  UNL     1      21.590   2.303  52.302  1.00  0.00    -0.376 N 
BRANCH  18  19
HETATM   19  C2  UNL     1      20.746   1.140  52.534  1.00  0.00     0.119 C 
HETATM   20  C1  UNL     1      21.524  -0.148  52.589  1.00  0.00     0.026 C 
ENDBRANCH  18  19
BRANCH  18  21
HETATM   21  C16 UNL     1      20.779   3.506  52.297  1.00  0.00     0.237 C 
HETATM   22 CL2  UNL     1      21.725   4.944  51.905  1.00  0.00    -0.109 Cl
ENDBRANCH  18  21
ENDBRANCH  16  18
ENDBRANCH   1  15
TORSDOF 5
ENDMDL
MODEL 3
REMARK VINA RESULT:      -7.0      3.001      4.912
REMARK  5 active torsions:
REMARK  status: ('A' for Active; 'I' for Inactive)
REMARK    1  A    between atoms: C2_2  and  N1_3 
REMARK    2  A    between atoms: N1_3  and  C3_4 
REMARK    3  A    between atoms: N1_3  and  C16_20 
REMARK    4  A    between atoms: C4_5  and  C5_7 
REMARK       I    between atoms: C5_7  and  N2_9 
REMARK    5  A    between atoms: N2_9  and  C6_10 
ROOT
HETATM    1  C5  UNL     1      23.631   3.271  50.176  1.00  0.00     0.269 C 
HETATM    2  O1  UNL     1      22.962   2.480  49.462  1.00  0.00    -0.266 OA
HETATM    3  N2  UNL     1      24.074   3.173  51.517  1.00  0.00    -0.321 N 
HETATM    4  H7  UNL     1      24.624   3.959  51.919  1.00  0.00     0.169 HD
ENDROOT
BRANCH   3   5
HETATM    5  C6  UNL     1      23.730   1.992  52.223  1.00  0.00     0.046 A 
HETATM    6  C7  UNL     1      22.449   1.707  52.700  1.00  0.00     0.030 A 
HETATM    7  C8  UNL     1      22.177   0.533  53.384  1.00  0.00     0.003 A 
HETATM    8  C9  UNL     1      23.176  -0.395  53.614  1.00  0.00     0.012 A 
HETATM    9  C10 UNL     1      24.446  -0.162  53.168  1.00  0.00    -0.024 A 
HETATM   10  C11 UNL     1      25.505  -1.020  53.346  1.00  0.00     0.012 A 
HETATM   11  C15 UNL     1      24.685   1.021  52.487  1.00  0.00     0.001 A 
HETATM   12  C12 UNL     1      26.788  -0.796  52.901  1.00  0.00     0.001 A 
HETATM   13  C13 UNL     1      27.043   0.395  52.212  1.00  0.00     0.001 A 
HETATM   14  C14 UNL     1      25.968   1.255  52.036  1.00  0.00     0.014 A 
ENDBRANCH   3   5
BRANCH   1  15
HETATM   15  C4  UNL     1      23.965   4.471  49.419  1.00  0.00     0.117 C 
HETATM   16  C3  UNL     1      25.050   5.055  49.903  1.00  0.00     0.116 C 
HETATM   17 CL1  UNL     1      23.213   5.244  48.038  1.00  0.00    -0.077 Cl
BRANCH  16  18
HETATM   18  N1  UNL     1      25.817   6.190  49.605  1.00  0.00    -0.376 N 
BRANCH  18  19
HETATM   19  C2  UNL     1      26.868   6.197  48.598  1.00  0.00     0.119 C 
HETATM   20  C1  UNL     1      27.703   4.943  48.611  1.00  0.00     0.026 C 
ENDBRANCH  18  19
BRANCH  18  21
HETATM   21  C16 UNL     1      25.711   7.501  50.215  1.00  0.00     0.237 C 
HETATM   22 CL2  UNL     1      24.088   7.819  50.830  1.00  0.00    -0.109 Cl
ENDBRANCH  18  21
ENDBRANCH  16  18
ENDBRANCH   1  15
TORSDOF 5
ENDMDL
MODEL 4
REMARK VINA RESULT:      -6.9      1.767      2.069
REMARK  5 active torsions:
REMARK  status: ('A' for Active; 'I' for Inactive)
REMARK    1  A    between atoms: C2_2  and  N1_3 
REMARK    2  A    between atoms: N1_3  and  C3_4 
REMARK    3  A    between atoms: N1_3  and  C16_20 
REMARK    4  A    between atoms: C4_5  and  C5_7 
REMARK       I    between atoms: C5_7  and  N2_9 
REMARK    5  A    between atoms: N2_9  and  C6_10 
ROOT
HETATM    1  C5  UNL     1      24.764   2.162  52.512  1.00  0.00     0.269 C 
HETATM    2  O1  UNL     1      24.603   2.377  53.740  1.00  0.00    -0.266 OA
HETATM    3  N2  UNL     1      25.886   1.700  51.782  1.00  0.00    -0.321 N 
HETATM    4  H7  UNL     1      25.801   1.592  50.752  1.00  0.00     0.169 HD
ENDROOT
BRANCH   3   5
HETATM    5  C6  UNL     1      27.062   1.414  52.524  1.00  0.00     0.046 A 
HETATM    6  C7  UNL     1      27.870   2.384  53.119  1.00  0.00     0.030 A 
HETATM    7  C8  UNL     1      29.008   2.040  53.832  1.00  0.00     0.003 A 
HETATM    8  C9  UNL     1      29.374   0.714  53.973  1.00  0.00     0.012 A 
HETATM    9  C10 UNL     1      28.616  -0.272  53.409  1.00  0.00    -0.024 A 
HETATM   10  C11 UNL     1      28.896  -1.616  53.492  1.00  0.00     0.012 A 
HETATM   11  C15 UNL     1      27.484   0.106  52.703  1.00  0.00     0.001 A 
HETATM   12  C12 UNL     1      28.140  -2.618  52.928  1.00  0.00     0.001 A 
HETATM   13  C13 UNL     1      26.995  -2.250  52.213  1.00  0.00     0.001 A 
HETATM   14  C14 UNL     1      26.720  -0.892  52.134  1.00  0.00     0.014 A 
ENDBRANCH   3   5
BRANCH   1  15
HETATM   15  C4  UNL     1      23.539   2.467  51.783  1.00  0.00     0.117 C 
HETATM   16  C3  UNL     1      23.785   2.668  50.497  1.00  0.00     0.116 C 
HETATM   17 CL1  UNL     1      21.867   2.608  52.290  1.00  0.00    -0.077 Cl
BRANCH  16  18
HETATM   18  N1  UNL     1      23.038   2.982  49.354  1.00  0.00    -0.376 N 
BRANCH  18  19
HETATM   19  C2  UNL     1      22.828   4.346  48.891  1.00  0.00     0.119 C 
HETATM   20  C1  UNL     1      24.107   5.136  48.793  1.00  0.00     0.026 C 
ENDBRANCH  18  19
BRANCH  18  21
HETATM   21  C16 UNL     1      22.369   2.052  48.464  1.00  0.00     0.237 C 
HETATM   22 CL2  UNL     1      21.475   0.813  49.347  1.00  0.00    -0.109 Cl
ENDBRANCH  18  21
ENDBRANCH  16  18
ENDBRANCH   1  15
TORSDOF 5
ENDMDL
MODEL 5
REMARK VINA RESULT:      -6.9      3.207      4.759
REMARK  5 active torsions:
REMARK  status: ('A' for Active; 'I' for Inactive)
REMARK    1  A    between atoms: C2_2  and  N1_3 
REMARK    2  A    between atoms: N1_3  and  C3_4 
REMARK    3  A    between atoms: N1_3  and  C16_20 
REMARK    4  A    between atoms: C4_5  and  C5_7 
REMARK       I    between atoms: C5_7  and  N2_9 
REMARK    5  A    between atoms: N2_9  and  C6_10 
ROOT
HETATM    1  C5  UNL     1      26.406   3.391  50.181  1.00  0.00     0.269 C 
HETATM    2  O1  UNL     1      26.913   2.548  49.397  1.00  0.00    -0.266 OA
HETATM    3  N2  UNL     1      25.896   3.260  51.495  1.00  0.00    -0.321 N 
HETATM    4  H7  UNL     1      25.514   4.102  51.969  1.00  0.00     0.169 HD
ENDROOT
BRANCH   3   5
HETATM    5  C6  UNL     1      25.944   1.966  52.076  1.00  0.00     0.046 A 
HETATM    6  C7  UNL     1      27.121   1.248  52.296  1.00  0.00     0.030 A 
HETATM    7  C8  UNL     1      27.102  -0.014  52.869  1.00  0.00     0.003 A 
HETATM    8  C9  UNL     1      25.906  -0.599  53.241  1.00  0.00     0.012 A 
HETATM    9  C10 UNL     1      24.727   0.063  53.047  1.00  0.00    -0.024 A 
HETATM   10  C11 UNL     1      23.489  -0.432  53.381  1.00  0.00     0.012 A 
HETATM   11  C15 UNL     1      24.781   1.324  52.471  1.00  0.00     0.001 A 
HETATM   12  C12 UNL     1      22.295   0.226  53.190  1.00  0.00     0.001 A 
HETATM   13  C13 UNL     1      22.336   1.499  52.610  1.00  0.00     0.001 A 
HETATM   14  C14 UNL     1      23.589   1.991  52.276  1.00  0.00     0.014 A 
ENDBRANCH   3   5
BRANCH   1  15
HETATM   15  C4  UNL     1      26.372   4.706  49.550  1.00  0.00     0.117 C 
HETATM   16  C3  UNL     1      25.285   5.376  49.903  1.00  0.00     0.116 C 
HETATM   17 CL1  UNL     1      27.470   5.519  48.454  1.00  0.00    -0.077 Cl
BRANCH  16  18
HETATM   18  N1  UNL     1      24.730   6.634  49.628  1.00  0.00    -0.376 N 
BRANCH  18  19
HETATM   19  C2  UNL     1      23.832   6.880  48.509  1.00  0.00     0.119 C 
HETATM   20  C1  UNL     1      24.525   7.513  47.330  1.00  0.00     0.026 C 
ENDBRANCH  18  19
BRANCH  18  21
HETATM   21  C16 UNL     1      24.937   7.862  50.372  1.00  0.00     0.237 C 
HETATM   22 CL2  UNL     1      26.588   8.465  50.215  1.00  0.00    -0.109 Cl
ENDBRANCH  18  21
ENDBRANCH  16  18
ENDBRANCH   1  15
TORSDOF 5
ENDMDL
MODEL 6
REMARK VINA RESULT:      -6.8      2.915      4.495
REMARK  5 active torsions:
REMARK  status: ('A' for Active; 'I' for Inactive)
REMARK    1  A    between atoms: C2_2  and  N1_3 
REMARK    2  A    between atoms: N1_3  and  C3_4 
REMARK    3  A    between atoms: N1_3  and  C16_20 
REMARK    4  A    between atoms: C4_5  and  C5_7 
REMARK       I    between atoms: C5_7  and  N2_9 
REMARK    5  A    between atoms: N2_9  and  C6_10 
ROOT
HETATM    1  C5  UNL     1      24.375   3.358  51.372  1.00  0.00     0.269 C 
HETATM    2  O1  UNL     1      23.560   3.676  52.276  1.00  0.00    -0.266 OA
HETATM    3  N2  UNL     1      25.249   2.251  51.247  1.00  0.00    -0.321 N 
HETATM    4  H7  UNL     1      25.849   2.182  50.401  1.00  0.00     0.169 HD
ENDROOT
BRANCH   3   5
HETATM    5  C6  UNL     1      25.242   1.304  52.303  1.00  0.00     0.046 A 
HETATM    6  C7  UNL     1      24.144   0.508  52.636  1.00  0.00     0.030 A 
HETATM    7  C8  UNL     1      24.200  -0.401  53.681  1.00  0.00     0.003 A 
HETATM    8  C9  UNL     1      25.355  -0.544  54.427  1.00  0.00     0.012 A 
HETATM    9  C10 UNL     1      26.456   0.212  54.141  1.00  0.00    -0.024 A 
HETATM   10  C11 UNL     1      27.648   0.145  54.822  1.00  0.00     0.012 A 
HETATM   11  C15 UNL     1      26.367   1.111  53.089  1.00  0.00     0.001 A 
HETATM   12  C12 UNL     1      28.763   0.901  54.543  1.00  0.00     0.001 A 
HETATM   13  C13 UNL     1      28.687   1.812  53.484  1.00  0.00     0.001 A 
HETATM   14  C14 UNL     1      27.481   1.874  52.802  1.00  0.00     0.014 A 
ENDBRANCH   3   5
BRANCH   1  15
HETATM   15  C4  UNL     1      24.356   4.353  50.306  1.00  0.00     0.117 C 
HETATM   16  C3  UNL     1      25.359   5.208  50.434  1.00  0.00     0.116 C 
HETATM   17 CL1  UNL     1      23.282   4.605  48.945  1.00  0.00    -0.077 Cl
BRANCH  16  18
HETATM   18  N1  UNL     1      25.836   6.330  49.742  1.00  0.00    -0.376 N 
BRANCH  18  19
HETATM   19  C2  UNL     1      26.645   6.237  48.536  1.00  0.00     0.119 C 
HETATM   20  C1  UNL     1      27.606   5.077  48.562  1.00  0.00     0.026 C 
ENDBRANCH  18  19
BRANCH  18  21
HETATM   21  C16 UNL     1      25.622   7.723  50.084  1.00  0.00     0.237 C 
HETATM   22 CL2  UNL     1      23.922   8.077  50.401  1.00  0.00    -0.109 Cl
ENDBRANCH  18  21
ENDBRANCH  16  18
ENDBRANCH   1  15
TORSDOF 5
ENDMDL
MODEL 7
REMARK VINA RESULT:      -6.8      3.721      5.311
REMARK  5 active torsions:
REMARK  status: ('A' for Active; 'I' for Inactive)
REMARK    1  A    between atoms: C2_2  and  N1_3 
REMARK    2  A    between atoms: N1_3  and  C3_4 
REMARK    3  A    between atoms: N1_3  and  C16_20 
REMARK    4  A    between atoms: C4_5  and  C5_7 
REMARK       I    between atoms: C5_7  and  N2_9 
REMARK    5  A    between atoms: N2_9  and  C6_10 
ROOT
HETATM    1  C5  UNL     1      25.442   3.852  50.019  1.00  0.00     0.269 C 
HETATM    2  O1  UNL     1      24.652   3.382  49.160  1.00  0.00    -0.266 OA
HETATM    3  N2  UNL     1      25.599   3.575  51.398  1.00  0.00    -0.321 N 
HETATM    4  H7  UNL     1      26.328   4.090  51.931  1.00  0.00     0.169 HD
ENDROOT
BRANCH   3   5
HETATM    5  C6  UNL     1      24.734   2.600  51.960  1.00  0.00     0.046 A 
HETATM    6  C7  UNL     1      23.368   2.791  52.171  1.00  0.00     0.030 A 
HETATM    7  C8  UNL     1      22.576   1.797  52.725  1.00  0.00     0.003 A 
HETATM    8  C9  UNL     1      23.125   0.580  53.085  1.00  0.00     0.012 A 
HETATM    9  C10 UNL     1      24.457   0.345  52.899  1.00  0.00    -0.024 A 
HETATM   10  C11 UNL     1      25.096  -0.828  53.224  1.00  0.00     0.012 A 
HETATM   11  C15 UNL     1      25.221   1.359  52.342  1.00  0.00     0.001 A 
HETATM   12  C12 UNL     1      26.437  -1.076  53.041  1.00  0.00     0.001 A 
HETATM   13  C13 UNL     1      27.220  -0.060  52.480  1.00  0.00     0.001 A 
HETATM   14  C14 UNL     1      26.567   1.120  52.154  1.00  0.00     0.014 A 
ENDBRANCH   3   5
BRANCH   1  15
HETATM   15  C4  UNL     1      26.313   4.849  49.407  1.00  0.00     0.117 C 
HETATM   16  C3  UNL     1      25.815   6.068  49.547  1.00  0.00     0.116 C 
HETATM   17 CL1  UNL     1      27.838   4.722  48.554  1.00  0.00    -0.077 Cl
BRANCH  16  18
HETATM   18  N1  UNL     1      26.187   7.370  49.182  1.00  0.00    -0.376 N 
BRANCH  18  19
HETATM   19  C2  UNL     1      26.243   7.823  47.800  1.00  0.00     0.119 C 
HETATM   20  C1  UNL     1      24.921   8.343  47.298  1.00  0.00     0.026 C 
ENDBRANCH  18  19
BRANCH  18  21
HETATM   21  C16 UNL     1      26.566   8.452  50.070  1.00  0.00     0.237 C 
HETATM   22 CL2  UNL     1      28.128   9.151  49.637  1.00  0.00    -0.109 Cl
ENDBRANCH  18  21
ENDBRANCH  16  18
ENDBRANCH   1  15
TORSDOF 5
ENDMDL
MODEL 8
REMARK VINA RESULT:      -6.6      3.228      5.014
REMARK  5 active torsions:
REMARK  status: ('A' for Active; 'I' for Inactive)
REMARK    1  A    between atoms: C2_2  and  N1_3 
REMARK    2  A    between atoms: N1_3  and  C3_4 
REMARK    3  A    between atoms: N1_3  and  C16_20 
REMARK    4  A    between atoms: C4_5  and  C5_7 
REMARK       I    between atoms: C5_7  and  N2_9 
REMARK    5  A    between atoms: N2_9  and  C6_10 
ROOT
HETATM    1  C5  UNL     1      24.120   2.747  51.795  1.00  0.00     0.269 C 
HETATM    2  O1  UNL     1      24.082   3.440  52.844  1.00  0.00    -0.266 OA
HETATM    3  N2  UNL     1      24.243   1.350  51.600  1.00  0.00    -0.321 N 
HETATM    4  H7  UNL     1      24.254   0.980  50.629  1.00  0.00     0.169 HD
ENDROOT
BRANCH   3   5
HETATM    5  C6  UNL     1      24.344   0.545  52.765  1.00  0.00     0.046 A 
HETATM    6  C7  UNL     1      25.531   0.322  53.464  1.00  0.00     0.030 A 
HETATM    7  C8  UNL     1      25.563  -0.476  54.597  1.00  0.00     0.003 A 
HETATM    8  C9  UNL     1      24.411  -1.076  55.068  1.00  0.00     0.012 A 
HETATM    9  C10 UNL     1      23.224  -0.888  54.419  1.00  0.00    -0.024 A 
HETATM   10  C11 UNL     1      22.025  -1.440  54.806  1.00  0.00     0.012 A 
HETATM   11  C15 UNL     1      23.225  -0.084  53.289  1.00  0.00     0.001 A 
HETATM   12  C12 UNL     1      20.824  -1.257  54.160  1.00  0.00     0.001 A 
HETATM   13  C13 UNL     1      20.812  -0.448  53.019  1.00  0.00     0.001 A 
HETATM   14  C14 UNL     1      22.025   0.105  52.634  1.00  0.00     0.014 A 
ENDBRANCH   3   5
BRANCH   1  15
HETATM   15  C4  UNL     1      24.015   3.605  50.621  1.00  0.00     0.117 C 
HETATM   16  C3  UNL     1      24.357   4.852  50.909  1.00  0.00     0.116 C 
HETATM   17 CL1  UNL     1      23.534   3.289  48.966  1.00  0.00    -0.077 Cl
BRANCH  16  18
HETATM   18  N1  UNL     1      24.449   6.069  50.219  1.00  0.00    -0.376 N 
BRANCH  18  19
HETATM   19  C2  UNL     1      25.718   6.689  49.867  1.00  0.00     0.119 C 
HETATM   20  C1  UNL     1      26.435   5.968  48.756  1.00  0.00     0.026 C 
ENDBRANCH  18  19
BRANCH  18  21
HETATM   21  C16 UNL     1      23.351   6.895  49.753  1.00  0.00     0.237 C 
HETATM   22 CL2  UNL     1      23.830   8.580  49.541  1.00  0.00    -0.109 Cl
ENDBRANCH  18  21
ENDBRANCH  16  18
ENDBRANCH   1  15
TORSDOF 5
ENDMDL
MODEL 9
REMARK VINA RESULT:      -6.6      6.482      9.331
REMARK  5 active torsions:
REMARK  status: ('A' for Active; 'I' for Inactive)
REMARK    1  A    between atoms: C2_2  and  N1_3 
REMARK    2  A    between atoms: N1_3  and  C3_4 
REMARK    3  A    between atoms: N1_3  and  C16_20 
REMARK    4  A    between atoms: C4_5  and  C5_7 
REMARK       I    between atoms: C5_7  and  N2_9 
REMARK    5  A    between atoms: N2_9  and  C6_10 
ROOT
HETATM    1  C5  UNL     1      30.069   5.991  47.867  1.00  0.00     0.269 C 
HETATM    2  O1  UNL     1      30.041   6.783  46.890  1.00  0.00    -0.266 OA
HETATM    3  N2  UNL     1      29.055   5.570  48.760  1.00  0.00    -0.321 N 
HETATM    4  H7  UNL     1      29.300   4.896  49.513  1.00  0.00     0.169 HD
ENDROOT
BRANCH   3   5
HETATM    5  C6  UNL     1      27.757   6.108  48.558  1.00  0.00     0.046 A 
HETATM    6  C7  UNL     1      27.507   7.385  48.054  1.00  0.00     0.030 A 
HETATM    7  C8  UNL     1      26.213   7.853  47.880  1.00  0.00     0.003 A 
HETATM    8  C9  UNL     1      25.129   7.059  48.204  1.00  0.00     0.012 A 
HETATM    9  C10 UNL     1      25.322   5.802  48.701  1.00  0.00    -0.024 A 
HETATM   10  C11 UNL     1      24.312   4.938  49.054  1.00  0.00     0.012 A 
HETATM   11  C15 UNL     1      26.627   5.364  48.863  1.00  0.00     0.001 A 
HETATM   12  C12 UNL     1      24.495   3.670  49.555  1.00  0.00     0.001 A 
HETATM   13  C13 UNL     1      25.807   3.216  49.724  1.00  0.00     0.001 A 
HETATM   14  C14 UNL     1      26.821   4.093  49.366  1.00  0.00     0.014 A 
ENDBRANCH   3   5
BRANCH   1  15
HETATM   15  C4  UNL     1      31.416   5.460  48.044  1.00  0.00     0.117 C 
HETATM   16  C3  UNL     1      31.629   4.425  47.246  1.00  0.00     0.116 C 
HETATM   17 CL1  UNL     1      32.743   5.931  49.086  1.00  0.00    -0.077 Cl
BRANCH  16  18
HETATM   18  N1  UNL     1      32.686   3.543  46.981  1.00  0.00    -0.376 N 
BRANCH  18  19
HETATM   19  C2  UNL     1      33.618   3.727  45.878  1.00  0.00     0.119 C 
HETATM   20  C1  UNL     1      35.054   3.506  46.280  1.00  0.00     0.026 C 
ENDBRANCH  18  19
BRANCH  18  21
HETATM   21  C16 UNL     1      33.030   2.344  47.721  1.00  0.00     0.237 C 
HETATM   22 CL2  UNL     1      32.390   0.886  46.958  1.00  0.00    -0.109 Cl
ENDBRANCH  18  21
ENDBRANCH  16  18
ENDBRANCH   1  15
TORSDOF 5
ENDMDL
