MODEL 1
REMARK VINA RESULT:      -9.0      0.000      0.000
REMARK  4 active torsions:
REMARK  status: ('A' for Active; 'I' for Inactive)
REMARK    1  A    between atoms: N1_1  and  C1_2 
REMARK    2  A    between atoms: C4_5  and  O1_6 
REMARK    3  A    between atoms: C9_12  and  N3_13 
REMARK    4  A    between atoms: N3_13  and  C10_14 
ROOT
HETATM    1  C1  UNL     1      21.973   2.343  48.827  1.00  0.00     0.453 C 
HETATM    2  C2  UNL     1      21.595   0.953  49.317  1.00  0.00     0.106 C 
HETATM    3  C3  UNL     1      20.950   1.011  50.674  1.00  0.00    -0.028 C 
HETATM    4  C4  UNL     1      19.800   0.931  51.315  1.00  0.00     0.059 C 
HETATM    5  C5  UNL     1      19.766   2.339  51.815  1.00  0.00     0.097 C 
HETATM    6  C6  UNL     1      19.484   3.233  50.626  1.00  0.00     0.000 C 
HETATM    7  C7  UNL     1      20.493   4.120  50.431  1.00  0.00    -0.005 C 
HETATM    8  C8  UNL     1      20.817   4.429  49.024  1.00  0.00     0.313 C 
HETATM    9  N2  UNL     1      20.807   3.101  48.363  1.00  0.00     0.121 N 
HETATM   10  C9  UNL     1      21.196   4.689  51.581  1.00  0.00     0.052 C 
HETATM   11  C16 UNL     1      21.047   3.887  52.640  1.00  0.00     0.009 C 
HETATM   12  C17 UNL     1      21.168   2.613  52.252  1.00  0.00    -0.035 C 
HETATM   13  C18 UNL     1      21.685   1.248  51.919  1.00  0.00     0.043 A 
HETATM   14  C19 UNL     1      21.586   0.307  53.056  1.00  0.00     0.063 A 
HETATM   15  C20 UNL     1      23.084   0.344  53.027  1.00  0.00    -0.049 A 
HETATM   16  C21 UNL     1      24.197  -0.175  53.690  1.00  0.00     0.007 A 
HETATM   17  C22 UNL     1      25.420   0.186  53.092  1.00  0.00     0.001 A 
HETATM   18  C23 UNL     1      25.489   0.978  51.956  1.00  0.00     0.001 A 
HETATM   19  C24 UNL     1      24.350   1.450  51.363  1.00  0.00     0.009 A 
HETATM   20  C25 UNL     1      23.136   1.129  51.910  1.00  0.00    -0.034 A 
HETATM   21  H11 UNL     1      20.889   3.352  47.343  1.00  0.00     0.319 HD
ENDROOT
BRANCH  10  22
HETATM   22  N3  UNL     1      21.918   5.882  51.533  1.00  0.00    -0.355 N 
HETATM   23  H12 UNL     1      21.359   6.666  51.988  1.00  0.00     0.166 HD
BRANCH  22  24
HETATM   24  C10 UNL     1      23.162   6.241  51.021  1.00  0.00     0.033 A 
HETATM   25  C11 UNL     1      23.587   7.540  50.854  1.00  0.00     0.029 A 
HETATM   26  C12 UNL     1      24.827   7.734  50.317  1.00  0.00     0.004 A 
HETATM   27  C13 UNL     1      25.613   6.664  49.961  1.00  0.00     0.019 A 
HETATM   28  C14 UNL     1      25.241   5.348  50.108  1.00  0.00     0.013 A 
HETATM   29 BR1  UNL     1      26.354   3.885  49.612  1.00  0.00    -0.051 Br
HETATM   30  C15 UNL     1      23.982   5.167  50.650  1.00  0.00     0.048 A 
ENDBRANCH  22  24
ENDBRANCH  10  22
BRANCH   4  31
HETATM   31  O1  UNL     1      18.892  -0.128  51.481  1.00  0.00    -0.364 OA
HETATM   32  H6  UNL     1      17.977   0.033  51.882  1.00  0.00     0.217 HD
ENDBRANCH   4  31
BRANCH   1  33
HETATM   33  N1  UNL     1      22.746   2.072  47.585  1.00  0.00     0.112 N 
HETATM   34  H1  UNL     1      22.945   3.015  47.153  1.00  0.00     0.315 HD
HETATM   35  H2  UNL     1      22.162   1.473  46.984  1.00  0.00     0.315 HD
ENDBRANCH   1  33
TORSDOF 4
ENDMDL
MODEL 2
REMARK VINA RESULT:      -8.6      1.649      2.171
REMARK  4 active torsions:
REMARK  status: ('A' for Active; 'I' for Inactive)
REMARK    1  A    between atoms: N1_1  and  C1_2 
REMARK    2  A    between atoms: C4_5  and  O1_6 
REMARK    3  A    between atoms: C9_12  and  N3_13 
REMARK    4  A    between atoms: N3_13  and  C10_14 
ROOT
HETATM    1  C1  UNL     1      22.668   2.684  48.969  1.00  0.00     0.453 C 
HETATM    2  C2  UNL     1      22.078   1.507  49.730  1.00  0.00     0.106 C 
HETATM    3  C3  UNL     1      21.813   1.864  51.166  1.00  0.00    -0.028 C 
HETATM    4  C4  UNL     1      20.869   2.170  52.035  1.00  0.00     0.059 C 
HETATM    5  C5  UNL     1      21.314   3.570  52.312  1.00  0.00     0.097 C 
HETATM    6  C6  UNL     1      20.992   4.397  51.085  1.00  0.00     0.000 C 
HETATM    7  C7  UNL     1      22.116   4.942  50.555  1.00  0.00    -0.005 C 
HETATM    8  C8  UNL     1      22.162   5.020  49.081  1.00  0.00     0.313 C 
HETATM    9  N2  UNL     1      21.657   3.695  48.645  1.00  0.00     0.121 N 
HETATM   10  C9  UNL     1      23.194   5.390  51.436  1.00  0.00     0.052 C 
HETATM   11  C16 UNL     1      23.105   4.761  52.612  1.00  0.00     0.009 C 
HETATM   12  C17 UNL     1      22.802   3.476  52.404  1.00  0.00    -0.035 C 
HETATM   13  C18 UNL     1      22.860   1.996  52.183  1.00  0.00     0.043 A 
HETATM   14  C19 UNL     1      22.801   1.227  53.445  1.00  0.00     0.063 A 
HETATM   15  C20 UNL     1      24.206   0.838  53.103  1.00  0.00    -0.049 A 
HETATM   16  C21 UNL     1      25.277   0.087  53.593  1.00  0.00     0.007 A 
HETATM   17  C22 UNL     1      26.372   0.034  52.709  1.00  0.00     0.001 A 
HETATM   18  C23 UNL     1      26.365   0.670  51.476  1.00  0.00     0.001 A 
HETATM   19  C24 UNL     1      25.276   1.388  51.066  1.00  0.00     0.009 A 
HETATM   20  C25 UNL     1      24.187   1.472  51.893  1.00  0.00    -0.034 A 
HETATM   21  H11 UNL     1      21.553   3.821  47.604  1.00  0.00     0.319 HD
ENDROOT
BRANCH  10  22
HETATM   22  N3  UNL     1      24.163   6.323  51.060  1.00  0.00    -0.355 N 
HETATM   23  H12 UNL     1      23.984   7.251  51.549  1.00  0.00     0.166 HD
BRANCH  22  24
HETATM   24  C10 UNL     1      25.260   6.287  50.203  1.00  0.00     0.033 A 
HETATM   25  C11 UNL     1      25.751   5.140  49.620  1.00  0.00     0.029 A 
HETATM   26  C12 UNL     1      26.851   5.261  48.820  1.00  0.00     0.004 A 
HETATM   27  C13 UNL     1      27.435   6.487  48.611  1.00  0.00     0.019 A 
HETATM   28  C14 UNL     1      26.986   7.663  49.165  1.00  0.00     0.013 A 
HETATM   29 BR1  UNL     1      27.813   9.350  48.852  1.00  0.00    -0.051 Br
HETATM   30  C15 UNL     1      25.874   7.525  49.975  1.00  0.00     0.048 A 
ENDBRANCH  22  24
ENDBRANCH  10  22
BRANCH   4  31
HETATM   31  O1  UNL     1      19.788   1.429  52.543  1.00  0.00    -0.364 OA
HETATM   32  H6  UNL     1      19.798   1.087  53.495  1.00  0.00     0.217 HD
ENDBRANCH   4  31
BRANCH   1  33
HETATM   33  N1  UNL     1      23.026   2.096  47.650  1.00  0.00     0.112 N 
HETATM   34  H1  UNL     1      23.855   2.648  47.299  1.00  0.00     0.315 HD
HETATM   35  H2  UNL     1      22.200   2.184  47.039  1.00  0.00     0.315 HD
ENDBRANCH   1  33
TORSDOF 4
ENDMDL
MODEL 3
REMARK VINA RESULT:      -8.6      2.698      5.566
REMARK  4 active torsions:
REMARK  status: ('A' for Active; 'I' for Inactive)
REMARK    1  A    between atoms: N1_1  and  C1_2 
REMARK    2  A    between atoms: C4_5  and  O1_6 
REMARK    3  A    between atoms: C9_12  and  N3_13 
REMARK    4  A    between atoms: N3_13  and  C10_14 
ROOT
HETATM    1  C1  UNL     1      22.331   4.788  51.907  1.00  0.00     0.453 C 
HETATM    2  C2  UNL     1      23.782   5.244  51.886  1.00  0.00     0.106 C 
HETATM    3  C3  UNL     1      24.463   4.834  50.610  1.00  0.00    -0.028 C 
HETATM    4  C4  UNL     1      24.901   5.269  49.444  1.00  0.00     0.059 C 
HETATM    5  C5  UNL     1      23.965   4.481  48.586  1.00  0.00     0.097 C 
HETATM    6  C6  UNL     1      22.589   5.097  48.736  1.00  0.00     0.000 C 
HETATM    7  C7  UNL     1      21.702   4.197  49.229  1.00  0.00    -0.005 C 
HETATM    8  C8  UNL     1      20.692   4.732  50.165  1.00  0.00     0.313 C 
HETATM    9  N2  UNL     1      21.478   5.621  51.055  1.00  0.00     0.121 N 
HETATM   10  C9  UNL     1      21.798   2.790  48.840  1.00  0.00     0.052 C 
HETATM   11  C16 UNL     1      23.040   2.523  48.423  1.00  0.00     0.009 C 
HETATM   12  C17 UNL     1      23.917   3.133  49.226  1.00  0.00    -0.035 C 
HETATM   13  C18 UNL     1      24.890   3.464  50.315  1.00  0.00     0.043 A 
HETATM   14  C19 UNL     1      26.290   3.163  49.941  1.00  0.00     0.063 A 
HETATM   15  C20 UNL     1      26.198   2.121  51.014  1.00  0.00    -0.049 A 
HETATM   16  C21 UNL     1      26.954   1.116  51.621  1.00  0.00     0.007 A 
HETATM   17  C22 UNL     1      26.296   0.502  52.705  1.00  0.00     0.001 A 
HETATM   18  C23 UNL     1      25.025   0.877  53.114  1.00  0.00     0.001 A 
HETATM   19  C24 UNL     1      24.347   1.872  52.466  1.00  0.00     0.009 A 
HETATM   20  C25 UNL     1      24.944   2.497  51.403  1.00  0.00    -0.034 A 
HETATM   21  H11 UNL     1      20.727   6.107  51.613  1.00  0.00     0.319 HD
ENDROOT
BRANCH  10  22
HETATM   22  N3  UNL     1      20.735   1.889  48.925  1.00  0.00    -0.355 N 
HETATM   23  H12 UNL     1      20.340   1.699  47.955  1.00  0.00     0.166 HD
BRANCH  22  24
HETATM   24  C10 UNL     1      20.107   1.229  49.978  1.00  0.00     0.033 A 
HETATM   25  C11 UNL     1      18.744   1.067  50.090  1.00  0.00     0.029 A 
HETATM   26  C12 UNL     1      18.274   0.416  51.194  1.00  0.00     0.004 A 
HETATM   27  C13 UNL     1      19.141  -0.056  52.151  1.00  0.00     0.019 A 
HETATM   28  C14 UNL     1      20.508   0.075  52.089  1.00  0.00     0.013 A 
HETATM   29 BR1  UNL     1      21.685  -0.596  53.428  1.00  0.00    -0.051 Br
HETATM   30  C15 UNL     1      20.969   0.738  50.967  1.00  0.00     0.048 A 
ENDBRANCH  22  24
ENDBRANCH  10  22
BRANCH   4  31
HETATM   31  O1  UNL     1      25.917   6.178  49.105  1.00  0.00    -0.364 OA
HETATM   32  H6  UNL     1      25.746   7.175  49.122  1.00  0.00     0.217 HD
ENDBRANCH   4  31
BRANCH   1  33
HETATM   33  N1  UNL     1      21.889   5.114  53.290  1.00  0.00     0.112 N 
HETATM   34  H1  UNL     1      22.699   4.870  53.921  1.00  0.00     0.315 HD
HETATM   35  H2  UNL     1      21.048   4.551  53.485  1.00  0.00     0.315 HD
ENDBRANCH   1  33
TORSDOF 4
ENDMDL
MODEL 4
REMARK VINA RESULT:      -8.5      2.839      5.402
REMARK  4 active torsions:
REMARK  status: ('A' for Active; 'I' for Inactive)
REMARK    1  A    between atoms: N1_1  and  C1_2 
REMARK    2  A    between atoms: C4_5  and  O1_6 
REMARK    3  A    between atoms: C9_12  and  N3_13 
REMARK    4  A    between atoms: N3_13  and  C10_14 
ROOT
HETATM    1  C1  UNL     1      22.096   6.155  50.595  1.00  0.00     0.453 C 
HETATM    2  C2  UNL     1      20.991   5.193  50.186  1.00  0.00     0.106 C 
HETATM    3  C3  UNL     1      21.550   3.847  49.816  1.00  0.00    -0.028 C 
HETATM    4  C4  UNL     1      21.704   2.604  50.228  1.00  0.00     0.059 C 
HETATM    5  C5  UNL     1      23.195   2.618  50.319  1.00  0.00     0.097 C 
HETATM    6  C6  UNL     1      23.566   3.469  51.515  1.00  0.00     0.000 C 
HETATM    7  C7  UNL     1      24.327   4.529  51.143  1.00  0.00    -0.005 C 
HETATM    8  C8  UNL     1      24.083   5.788  51.877  1.00  0.00     0.313 C 
HETATM    9  N2  UNL     1      22.603   5.873  51.941  1.00  0.00     0.121 N 
HETATM   10  C9  UNL     1      25.301   4.384  50.061  1.00  0.00     0.052 C 
HETATM   11  C16 UNL     1      24.959   3.350  49.285  1.00  0.00     0.009 C 
HETATM   12  C17 UNL     1      23.636   3.356  49.098  1.00  0.00    -0.035 C 
HETATM   13  C18 UNL     1      22.254   3.570  48.562  1.00  0.00     0.043 A 
HETATM   14  C19 UNL     1      21.815   2.481  47.662  1.00  0.00     0.063 A 
HETATM   15  C20 UNL     1      21.860   3.537  46.600  1.00  0.00    -0.049 A 
HETATM   16  C21 UNL     1      21.649   3.711  45.232  1.00  0.00     0.007 A 
HETATM   17  C22 UNL     1      21.774   5.051  44.815  1.00  0.00     0.001 A 
HETATM   18  C23 UNL     1      22.075   6.080  45.695  1.00  0.00     0.001 A 
HETATM   19  C24 UNL     1      22.270   5.827  47.025  1.00  0.00     0.009 A 
HETATM   20  C25 UNL     1      22.162   4.539  47.478  1.00  0.00    -0.034 A 
HETATM   21  H11 UNL     1      22.449   6.688  52.592  1.00  0.00     0.319 HD
ENDROOT
BRANCH  10  22
HETATM   22  N3  UNL     1      26.397   5.231  49.888  1.00  0.00    -0.355 N 
HETATM   23  H12 UNL     1      27.042   5.169  50.733  1.00  0.00     0.166 HD
BRANCH  22  24
HETATM   24  C10 UNL     1      26.792   6.110  48.884  1.00  0.00     0.033 A 
HETATM   25  C11 UNL     1      28.087   6.243  48.434  1.00  0.00     0.029 A 
HETATM   26  C12 UNL     1      28.324   7.166  47.457  1.00  0.00     0.004 A 
HETATM   27  C13 UNL     1      27.299   7.929  46.949  1.00  0.00     0.019 A 
HETATM   28  C14 UNL     1      25.990   7.836  47.359  1.00  0.00     0.013 A 
HETATM   29 BR1  UNL     1      24.589   8.902  46.631  1.00  0.00    -0.051 Br
HETATM   30  C15 UNL     1      25.765   6.900  48.350  1.00  0.00     0.048 A 
ENDBRANCH  22  24
ENDBRANCH  10  22
BRANCH   4  31
HETATM   31  O1  UNL     1      20.774   1.585  50.499  1.00  0.00    -0.364 OA
HETATM   32  H6  UNL     1      20.654   1.230  51.438  1.00  0.00     0.217 HD
ENDBRANCH   4  31
BRANCH   1  33
HETATM   33  N1  UNL     1      21.385   7.454  50.741  1.00  0.00     0.112 N 
HETATM   34  H1  UNL     1      21.544   7.977  49.838  1.00  0.00     0.315 HD
HETATM   35  H2  UNL     1      21.788   7.935  51.558  1.00  0.00     0.315 HD
ENDBRANCH   1  33
TORSDOF 4
ENDMDL
MODEL 5
REMARK VINA RESULT:      -8.3      4.328      7.637
REMARK  4 active torsions:
REMARK  status: ('A' for Active; 'I' for Inactive)
REMARK    1  A    between atoms: N1_1  and  C1_2 
REMARK    2  A    between atoms: C4_5  and  O1_6 
REMARK    3  A    between atoms: C9_12  and  N3_13 
REMARK    4  A    between atoms: N3_13  and  C10_14 
ROOT
HETATM    1  C1  UNL     1      24.233   7.468  50.567  1.00  0.00     0.453 C 
HETATM    2  C2  UNL     1      25.415   8.425  50.583  1.00  0.00     0.106 C 
HETATM    3  C3  UNL     1      25.645   9.029  49.225  1.00  0.00    -0.028 C 
HETATM    4  C4  UNL     1      25.495  10.122  48.502  1.00  0.00     0.059 C 
HETATM    5  C5  UNL     1      24.524   9.563  47.513  1.00  0.00     0.097 C 
HETATM    6  C6  UNL     1      23.201   9.390  48.229  1.00  0.00     0.000 C 
HETATM    7  C7  UNL     1      22.808   8.092  48.222  1.00  0.00    -0.005 C 
HETATM    8  C8  UNL     1      22.125   7.616  49.443  1.00  0.00     0.313 C 
HETATM    9  N2  UNL     1      22.950   8.176  50.542  1.00  0.00     0.121 N 
HETATM   10  C9  UNL     1      23.085   7.252  47.056  1.00  0.00     0.052 C 
HETATM   11  C16 UNL     1      24.105   7.769  46.363  1.00  0.00     0.009 C 
HETATM   12  C17 UNL     1      25.046   8.196  47.212  1.00  0.00    -0.035 C 
HETATM   13  C18 UNL     1      26.245   8.308  48.100  1.00  0.00     0.043 A 
HETATM   14  C19 UNL     1      27.431   8.842  47.395  1.00  0.00     0.063 A 
HETATM   15  C20 UNL     1      28.001   7.475  47.622  1.00  0.00    -0.049 A 
HETATM   16  C21 UNL     1      29.146   6.719  47.368  1.00  0.00     0.007 A 
HETATM   17  C22 UNL     1      29.111   5.439  47.956  1.00  0.00     0.001 A 
HETATM   18  C23 UNL     1      28.036   4.996  48.712  1.00  0.00     0.001 A 
HETATM   19  C24 UNL     1      26.947   5.798  48.916  1.00  0.00     0.009 A 
HETATM   20  C25 UNL     1      26.933   7.051  48.361  1.00  0.00    -0.034 A 
HETATM   21  H11 UNL     1      22.370   7.958  51.395  1.00  0.00     0.319 HD
ENDROOT
BRANCH  10  22
HETATM   22  N3  UNL     1      22.381   6.084  46.758  1.00  0.00    -0.355 N 
HETATM   23  H12 UNL     1      21.673   6.273  45.986  1.00  0.00     0.166 HD
BRANCH  22  24
HETATM   24  C10 UNL     1      22.409   4.784  47.254  1.00  0.00     0.033 A 
HETATM   25  C11 UNL     1      21.631   3.753  46.775  1.00  0.00     0.029 A 
HETATM   26  C12 UNL     1      21.753   2.536  47.380  1.00  0.00     0.004 A 
HETATM   27  C13 UNL     1      22.625   2.358  48.428  1.00  0.00     0.019 A 
HETATM   28  C14 UNL     1      23.426   3.349  48.944  1.00  0.00     0.013 A 
HETATM   29 BR1  UNL     1      24.631   3.071  50.394  1.00  0.00    -0.051 Br
HETATM   30  C15 UNL     1      23.290   4.576  48.324  1.00  0.00     0.048 A 
ENDBRANCH  22  24
ENDBRANCH  10  22
BRANCH   4  31
HETATM   31  O1  UNL     1      26.060  11.404  48.615  1.00  0.00    -0.364 OA
HETATM   32  H6  UNL     1      25.990  11.926  49.478  1.00  0.00     0.217 HD
ENDBRANCH   4  31
BRANCH   1  33
HETATM   33  N1  UNL     1      24.277   6.845  51.917  1.00  0.00     0.112 N 
HETATM   34  H1  UNL     1      23.333   7.028  52.354  1.00  0.00     0.315 HD
HETATM   35  H2  UNL     1      25.049   7.288  52.436  1.00  0.00     0.315 HD
ENDBRANCH   1  33
TORSDOF 4
ENDMDL
MODEL 6
REMARK VINA RESULT:      -8.1      7.266     10.901
REMARK  4 active torsions:
REMARK  status: ('A' for Active; 'I' for Inactive)
REMARK    1  A    between atoms: N1_1  and  C1_2 
REMARK    2  A    between atoms: C4_5  and  O1_6 
REMARK    3  A    between atoms: C9_12  and  N3_13 
REMARK    4  A    between atoms: N3_13  and  C10_14 
ROOT
HETATM    1  C1  UNL     1      29.475   9.294  45.791  1.00  0.00     0.453 C 
HETATM    2  C2  UNL     1      28.324  10.095  46.381  1.00  0.00     0.106 C 
HETATM    3  C3  UNL     1      28.569  10.415  47.829  1.00  0.00    -0.028 C 
HETATM    4  C4  UNL     1      28.918  11.371  48.668  1.00  0.00     0.059 C 
HETATM    5  C5  UNL     1      30.204  10.761  49.125  1.00  0.00     0.097 C 
HETATM    6  C6  UNL     1      31.188  10.875  47.980  1.00  0.00     0.000 C 
HETATM    7  C7  UNL     1      31.617   9.651  47.581  1.00  0.00    -0.005 C 
HETATM    8  C8  UNL     1      31.837   9.484  46.130  1.00  0.00     0.313 C 
HETATM    9  N2  UNL     1      30.648  10.131  45.521  1.00  0.00     0.121 N 
HETATM   10  C9  UNL     1      31.814   8.590  48.569  1.00  0.00     0.052 C 
HETATM   11  C16 UNL     1      31.089   8.852  49.661  1.00  0.00     0.009 C 
HETATM   12  C17 UNL     1      29.888   9.312  49.295  1.00  0.00    -0.035 C 
HETATM   13  C18 UNL     1      28.446   9.439  48.915  1.00  0.00     0.043 A 
HETATM   14  C19 UNL     1      27.569   9.697  50.078  1.00  0.00     0.063 A 
HETATM   15  C20 UNL     1      27.019   8.336  49.780  1.00  0.00    -0.049 A 
HETATM   16  C21 UNL     1      26.077   7.418  50.248  1.00  0.00     0.007 A 
HETATM   17  C22 UNL     1      25.957   6.277  49.430  1.00  0.00     0.001 A 
HETATM   18  C23 UNL     1      26.708   6.105  48.277  1.00  0.00     0.001 A 
HETATM   19  C24 UNL     1      27.613   7.052  47.885  1.00  0.00     0.009 A 
HETATM   20  C25 UNL     1      27.768   8.178  48.649  1.00  0.00    -0.034 A 
HETATM   21  H11 UNL     1      30.892  10.138  44.496  1.00  0.00     0.319 HD
ENDROOT
BRANCH  10  22
HETATM   22  N3  UNL     1      32.631   7.478  48.358  1.00  0.00    -0.355 N 
HETATM   23  H12 UNL     1      33.613   7.672  48.723  1.00  0.00     0.166 HD
BRANCH  22  24
HETATM   24  C10 UNL     1      32.432   6.227  47.780  1.00  0.00     0.033 A 
HETATM   25  C11 UNL     1      31.246   5.529  47.831  1.00  0.00     0.029 A 
HETATM   26  C12 UNL     1      31.211   4.300  47.237  1.00  0.00     0.004 A 
HETATM   27  C13 UNL     1      32.326   3.790  46.614  1.00  0.00     0.019 A 
HETATM   28  C14 UNL     1      33.533   4.444  46.532  1.00  0.00     0.013 A 
HETATM   29 BR1  UNL     1      35.058   3.714  45.656  1.00  0.00    -0.051 Br
HETATM   30  C15 UNL     1      33.554   5.685  47.140  1.00  0.00     0.048 A 
ENDBRANCH  22  24
ENDBRANCH  10  22
BRANCH   4  31
HETATM   31  O1  UNL     1      28.292  12.578  49.025  1.00  0.00    -0.364 OA
HETATM   32  H6  UNL     1      28.640  13.463  48.681  1.00  0.00     0.217 HD
ENDBRANCH   4  31
BRANCH   1  33
HETATM   33  N1  UNL     1      28.978   8.922  44.439  1.00  0.00     0.112 N 
HETATM   34  H1  UNL     1      28.018   9.353  44.351  1.00  0.00     0.315 HD
HETATM   35  H2  UNL     1      28.960   7.892  44.391  1.00  0.00     0.315 HD
ENDBRANCH   1  33
TORSDOF 4
ENDMDL
MODEL 7
REMARK VINA RESULT:      -7.9      2.394      4.704
REMARK  4 active torsions:
REMARK  status: ('A' for Active; 'I' for Inactive)
REMARK    1  A    between atoms: N1_1  and  C1_2 
REMARK    2  A    between atoms: C4_5  and  O1_6 
REMARK    3  A    between atoms: C9_12  and  N3_13 
REMARK    4  A    between atoms: N3_13  and  C10_14 
ROOT
HETATM    1  C1  UNL     1      22.345   3.149  48.483  1.00  0.00     0.453 C 
HETATM    2  C2  UNL     1      20.879   3.483  48.250  1.00  0.00     0.106 C 
HETATM    3  C3  UNL     1      20.327   4.321  49.370  1.00  0.00    -0.028 C 
HETATM    4  C4  UNL     1      19.965   5.542  49.712  1.00  0.00     0.059 C 
HETATM    5  C5  UNL     1      21.007   5.760  50.761  1.00  0.00     0.097 C 
HETATM    6  C6  UNL     1      22.332   5.936  50.050  1.00  0.00     0.000 C 
HETATM    7  C7  UNL     1      23.220   4.983  50.430  1.00  0.00    -0.005 C 
HETATM    8  C8  UNL     1      24.122   4.482  49.372  1.00  0.00     0.313 C 
HETATM    9  N2  UNL     1      23.221   4.291  48.208  1.00  0.00     0.121 N 
HETATM   10  C9  UNL     1      23.228   4.502  51.811  1.00  0.00     0.052 C 
HETATM   11  C16 UNL     1      22.040   4.739  52.376  1.00  0.00     0.009 C 
HETATM   12  C17 UNL     1      21.070   4.463  51.499  1.00  0.00    -0.035 C 
HETATM   13  C18 UNL     1      19.995   3.796  50.697  1.00  0.00     0.043 A 
HETATM   14  C19 UNL     1      18.648   3.984  51.279  1.00  0.00     0.063 A 
HETATM   15  C20 UNL     1      18.705   2.506  51.517  1.00  0.00    -0.049 A 
HETATM   16  C21 UNL     1      17.954   1.464  52.063  1.00  0.00     0.007 A 
HETATM   17  C22 UNL     1      18.550   0.199  51.893  1.00  0.00     0.001 A 
HETATM   18  C23 UNL     1      19.763   0.029  51.242  1.00  0.00     0.001 A 
HETATM   19  C24 UNL     1      20.440   1.103  50.734  1.00  0.00     0.009 A 
HETATM   20  C25 UNL     1      19.902   2.354  50.877  1.00  0.00    -0.034 A 
HETATM   21  H11 UNL     1      23.898   4.081  47.428  1.00  0.00     0.319 HD
ENDROOT
BRANCH  10  22
HETATM   22  N3  UNL     1      24.325   3.877  52.407  1.00  0.00    -0.355 N 
HETATM   23  H12 UNL     1      24.998   4.608  52.789  1.00  0.00     0.166 HD
BRANCH  22  24
HETATM   24  C10 UNL     1      24.705   2.549  52.582  1.00  0.00     0.033 A 
HETATM   25  C11 UNL     1      25.981   2.073  52.372  1.00  0.00     0.029 A 
HETATM   26  C12 UNL     1      26.196   0.739  52.563  1.00  0.00     0.004 A 
HETATM   27  C13 UNL     1      25.168  -0.088  52.951  1.00  0.00     0.019 A 
HETATM   28  C14 UNL     1      23.879   0.333  53.177  1.00  0.00     0.013 A 
HETATM   29 BR1  UNL     1      22.477  -0.836  53.720  1.00  0.00    -0.051 Br
HETATM   30  C15 UNL     1      23.676   1.685  52.977  1.00  0.00     0.048 A 
ENDBRANCH  22  24
ENDBRANCH  10  22
BRANCH   4  31
HETATM   31  O1  UNL     1      18.935   6.378  49.249  1.00  0.00    -0.364 OA
HETATM   32  H6  UNL     1      18.938   7.367  49.459  1.00  0.00     0.217 HD
ENDBRANCH   4  31
BRANCH   1  33
HETATM   33  N1  UNL     1      22.655   2.184  47.394  1.00  0.00     0.112 N 
HETATM   34  H1  UNL     1      22.401   2.671  46.491  1.00  0.00     0.315 HD
HETATM   35  H2  UNL     1      22.092   1.338  47.562  1.00  0.00     0.315 HD
ENDBRANCH   1  33
TORSDOF 4
ENDMDL
MODEL 8
REMARK VINA RESULT:      -7.9      6.443     10.370
REMARK  4 active torsions:
REMARK  status: ('A' for Active; 'I' for Inactive)
REMARK    1  A    between atoms: N1_1  and  C1_2 
REMARK    2  A    between atoms: C4_5  and  O1_6 
REMARK    3  A    between atoms: C9_12  and  N3_13 
REMARK    4  A    between atoms: N3_13  and  C10_14 
ROOT
HETATM    1  C1  UNL     1      30.190   9.752  49.469  1.00  0.00     0.453 C 
HETATM    2  C2  UNL     1      30.953  10.203  48.233  1.00  0.00     0.106 C 
HETATM    3  C3  UNL     1      30.345   9.635  46.981  1.00  0.00    -0.028 C 
HETATM    4  C4  UNL     1      29.599   9.919  45.931  1.00  0.00     0.059 C 
HETATM    5  C5  UNL     1      28.448   9.028  46.270  1.00  0.00     0.097 C 
HETATM    6  C6  UNL     1      27.722   9.656  47.441  1.00  0.00     0.000 C 
HETATM    7  C7  UNL     1      27.712   8.824  48.512  1.00  0.00    -0.005 C 
HETATM    8  C8  UNL     1      27.842   9.472  49.833  1.00  0.00     0.313 C 
HETATM    9  N2  UNL     1      28.922  10.468  49.628  1.00  0.00     0.121 N 
HETATM   10  C9  UNL     1      27.598   7.379  48.314  1.00  0.00     0.052 C 
HETATM   11  C16 UNL     1      27.994   7.063  47.077  1.00  0.00     0.009 C 
HETATM   12  C17 UNL     1      29.085   7.771  46.767  1.00  0.00    -0.035 C 
HETATM   13  C18 UNL     1      30.492   8.240  46.560  1.00  0.00     0.043 A 
HETATM   14  C19 UNL     1      31.018   7.896  45.221  1.00  0.00     0.063 A 
HETATM   15  C20 UNL     1      31.948   6.998  45.978  1.00  0.00    -0.049 A 
HETATM   16  C21 UNL     1      32.980   6.080  45.772  1.00  0.00     0.007 A 
HETATM   17  C22 UNL     1      33.553   5.608  46.969  1.00  0.00     0.001 A 
HETATM   18  C23 UNL     1      33.121   6.029  48.218  1.00  0.00     0.001 A 
HETATM   19  C24 UNL     1      32.102   6.933  48.337  1.00  0.00     0.009 A 
HETATM   20  C25 UNL     1      31.510   7.419  47.201  1.00  0.00    -0.034 A 
HETATM   21  H11 UNL     1      28.897  11.020  50.526  1.00  0.00     0.319 HD
ENDROOT
BRANCH  10  22
HETATM   22  N3  UNL     1      27.155   6.495  49.299  1.00  0.00    -0.355 N 
HETATM   23  H12 UNL     1      27.638   6.708  50.224  1.00  0.00     0.166 HD
BRANCH  22  24
HETATM   24  C10 UNL     1      26.258   5.431  49.312  1.00  0.00     0.033 A 
HETATM   25  C11 UNL     1      26.605   4.127  49.591  1.00  0.00     0.029 A 
HETATM   26  C12 UNL     1      25.617   3.187  49.542  1.00  0.00     0.004 A 
HETATM   27  C13 UNL     1      24.327   3.541  49.225  1.00  0.00     0.019 A 
HETATM   28  C14 UNL     1      23.925   4.825  48.941  1.00  0.00     0.013 A 
HETATM   29 BR1  UNL     1      22.127   5.287  48.512  1.00  0.00    -0.051 Br
HETATM   30  C15 UNL     1      24.936   5.766  48.992  1.00  0.00     0.048 A 
ENDBRANCH  22  24
ENDBRANCH  10  22
BRANCH   4  31
HETATM   31  O1  UNL     1      29.807  10.780  44.839  1.00  0.00    -0.364 OA
HETATM   32  H6  UNL     1      29.056  11.356  44.484  1.00  0.00     0.217 HD
ENDBRANCH   4  31
BRANCH   1  33
HETATM   33  N1  UNL     1      31.030  10.250  50.592  1.00  0.00     0.112 N 
HETATM   34  H1  UNL     1      31.132   9.440  51.262  1.00  0.00     0.315 HD
HETATM   35  H2  UNL     1      30.540  11.054  51.010  1.00  0.00     0.315 HD
ENDBRANCH   1  33
TORSDOF 4
ENDMDL
MODEL 9
REMARK VINA RESULT:      -7.9      4.588      7.210
REMARK  4 active torsions:
REMARK  status: ('A' for Active; 'I' for Inactive)
REMARK    1  A    between atoms: N1_1  and  C1_2 
REMARK    2  A    between atoms: C4_5  and  O1_6 
REMARK    3  A    between atoms: C9_12  and  N3_13 
REMARK    4  A    between atoms: N3_13  and  C10_14 
ROOT
HETATM    1  C1  UNL     1      22.521   7.657  50.046  1.00  0.00     0.453 C 
HETATM    2  C2  UNL     1      23.887   8.045  50.591  1.00  0.00     0.106 C 
HETATM    3  C3  UNL     1      24.833   8.411  49.482  1.00  0.00    -0.028 C 
HETATM    4  C4  UNL     1      25.421   9.419  48.867  1.00  0.00     0.059 C 
HETATM    5  C5  UNL     1      24.758   9.243  47.540  1.00  0.00     0.097 C 
HETATM    6  C6  UNL     1      23.315   9.674  47.696  1.00  0.00     0.000 C 
HETATM    7  C7  UNL     1      22.466   8.653  47.414  1.00  0.00    -0.005 C 
HETATM    8  C8  UNL     1      21.246   8.581  48.244  1.00  0.00     0.313 C 
HETATM    9  N2  UNL     1      21.745   8.825  49.620  1.00  0.00     0.121 N 
HETATM   10  C9  UNL     1      22.799   7.699  46.357  1.00  0.00     0.052 C 
HETATM   11  C16 UNL     1      24.119   7.706  46.144  1.00  0.00     0.009 C 
HETATM   12  C17 UNL     1      24.756   7.766  47.317  1.00  0.00    -0.035 C 
HETATM   13  C18 UNL     1      25.467   7.434  48.592  1.00  0.00     0.043 A 
HETATM   14  C19 UNL     1      26.937   7.388  48.431  1.00  0.00     0.063 A 
HETATM   15  C20 UNL     1      26.776   5.926  48.716  1.00  0.00    -0.049 A 
HETATM   16  C21 UNL     1      27.523   4.752  48.828  1.00  0.00     0.007 A 
HETATM   17  C22 UNL     1      26.757   3.641  49.232  1.00  0.00     0.001 A 
HETATM   18  C23 UNL     1      25.397   3.728  49.490  1.00  0.00     0.001 A 
HETATM   19  C24 UNL     1      24.735   4.917  49.356  1.00  0.00     0.009 A 
HETATM   20  C25 UNL     1      25.436   6.026  48.963  1.00  0.00    -0.034 A 
HETATM   21  H11 UNL     1      20.852   8.920  50.172  1.00  0.00     0.319 HD
ENDROOT
BRANCH  10  22
HETATM   22  N3  UNL     1      21.853   6.906  45.706  1.00  0.00    -0.355 N 
HETATM   23  H12 UNL     1      21.656   7.295  44.735  1.00  0.00     0.166 HD
BRANCH  22  24
HETATM   24  C10 UNL     1      21.139   5.764  46.060  1.00  0.00     0.033 A 
HETATM   25  C11 UNL     1      19.779   5.616  45.890  1.00  0.00     0.029 A 
HETATM   26  C12 UNL     1      19.215   4.446  46.309  1.00  0.00     0.004 A 
HETATM   27  C13 UNL     1      19.987   3.459  46.876  1.00  0.00     0.019 A 
HETATM   28  C14 UNL     1      21.345   3.552  47.066  1.00  0.00     0.013 A 
HETATM   29 BR1  UNL     1      22.389   2.165  47.849  1.00  0.00    -0.051 Br
HETATM   30  C15 UNL     1      21.902   4.744  46.641  1.00  0.00     0.048 A 
ENDBRANCH  22  24
ENDBRANCH  10  22
BRANCH   4  31
HETATM   31  O1  UNL     1      26.366  10.361  49.307  1.00  0.00    -0.364 OA
HETATM   32  H6  UNL     1      26.662  11.117  48.704  1.00  0.00     0.217 HD
ENDBRANCH   4  31
BRANCH   1  33
HETATM   33  N1  UNL     1      21.799   7.161  51.248  1.00  0.00     0.112 N 
HETATM   34  H1  UNL     1      22.502   7.170  52.036  1.00  0.00     0.315 HD
HETATM   35  H2  UNL     1      21.454   6.214  51.031  1.00  0.00     0.315 HD
ENDBRANCH   1  33
TORSDOF 4
ENDMDL
