MODEL 1
REMARK VINA RESULT:      -6.8      0.000      0.000
REMARK  5 active torsions:
REMARK  status: ('A' for Active; 'I' for Inactive)
REMARK    1  A    between atoms: O1_2  and  C2_3 
REMARK    2  A    between atoms: C5_6  and  N1_7 
REMARK    3  A    between atoms: N1_7  and  C6_8 
REMARK    4  A    between atoms: N3_12  and  C9_13 
REMARK    5  A    between atoms: C9_13  and  C10_14 
ROOT
HETATM    1  C6  UNL     1      24.153   3.613  52.400  1.00  0.00     0.210 C 
HETATM    2  C7  UNL     1      22.770   4.157  52.410  1.00  0.00     0.126 C 
HETATM    3  N2  UNL     1      22.208   4.172  51.237  1.00  0.00    -0.287 NA
HETATM    4  C8  UNL     1      22.958   3.682  50.120  1.00  0.00     0.256 C 
HETATM    5  N3  UNL     1      24.311   4.169  50.099  1.00  0.00    -0.224 NA
HETATM    6  N4  UNL     1      24.892   4.271  51.352  1.00  0.00    -0.230 NA
HETATM    7  H16 UNL     1      25.236   5.201  51.599  1.00  0.00     0.143 HD
ENDROOT
BRANCH   1   8
HETATM    8  N1  UNL     1      24.221   2.190  52.206  1.00  0.00    -0.368 N 
HETATM    9  H6  UNL     1      23.471   1.680  51.690  1.00  0.00     0.161 HD
BRANCH   8  10
HETATM   10  C5  UNL     1      25.307   1.420  52.706  1.00  0.00     0.029 A 
HETATM   11  C4  UNL     1      26.083   1.813  53.776  1.00  0.00     0.032 A 
HETATM   12  C3  UNL     1      27.142   1.079  54.278  1.00  0.00     0.039 A 
HETATM   13  C2  UNL     1      27.446  -0.130  53.665  1.00  0.00     0.068 A 
HETATM   14  C15 UNL     1      26.713  -0.584  52.591  1.00  0.00     0.039 A 
HETATM   15  C14 UNL     1      25.664   0.212  52.147  1.00  0.00     0.032 A 
BRANCH  13  16
HETATM   16  O1  UNL     1      28.499  -0.875  54.152  1.00  0.00    -0.356 OA
HETATM   17  C1  UNL     1      29.815  -0.735  53.709  1.00  0.00     0.210 C 
ENDBRANCH  13  16
ENDBRANCH   8  10
ENDBRANCH   1   8
BRANCH   5  18
HETATM   18  C9  UNL     1      24.480   5.376  49.315  1.00  0.00     0.174 C 
BRANCH  18  19
HETATM   19  C10 UNL     1      25.902   5.517  48.928  1.00  0.00     0.067 A 
HETATM   20  C11 UNL     1      26.581   6.629  48.470  1.00  0.00     0.036 A 
HETATM   21  C12 UNL     1      27.895   6.215  48.256  1.00  0.00     0.027 A 
HETATM   22  C13 UNL     1      27.926   4.861  48.604  1.00  0.00     0.142 A 
HETATM   23  O2  UNL     1      26.727   4.514  48.989  1.00  0.00    -0.326 OA
ENDBRANCH  18  19
ENDBRANCH   5  18
TORSDOF 5
ENDMDL
MODEL 2
REMARK VINA RESULT:      -6.6      2.908      7.285
REMARK  5 active torsions:
REMARK  status: ('A' for Active; 'I' for Inactive)
REMARK    1  A    between atoms: O1_2  and  C2_3 
REMARK    2  A    between atoms: C5_6  and  N1_7 
REMARK    3  A    between atoms: N1_7  and  C6_8 
REMARK    4  A    between atoms: N3_12  and  C9_13 
REMARK    5  A    between atoms: C9_13  and  C10_14 
ROOT
HETATM    1  C6  UNL     1      26.777   1.992  52.577  1.00  0.00     0.210 C 
HETATM    2  C7  UNL     1      28.007   1.319  53.069  1.00  0.00     0.126 C 
HETATM    3  N2  UNL     1      27.949   0.021  53.014  1.00  0.00    -0.287 NA
HETATM    4  C8  UNL     1      26.755  -0.583  52.505  1.00  0.00     0.256 C 
HETATM    5  N3  UNL     1      25.558   0.010  53.040  1.00  0.00    -0.224 NA
HETATM    6  N4  UNL     1      25.638   1.380  53.217  1.00  0.00    -0.230 NA
HETATM    7  H16 UNL     1      25.463   1.709  54.169  1.00  0.00     0.143 HD
ENDROOT
BRANCH   1   8
HETATM    8  N1  UNL     1      26.607   1.930  51.151  1.00  0.00    -0.368 N 
HETATM    9  H6  UNL     1      26.887   1.083  50.610  1.00  0.00     0.161 HD
BRANCH   8  10
HETATM   10  C5  UNL     1      26.054   3.017  50.418  1.00  0.00     0.029 A 
HETATM   11  C4  UNL     1      26.821   3.924  49.718  1.00  0.00     0.032 A 
HETATM   12  C3  UNL     1      26.303   4.986  48.998  1.00  0.00     0.039 A 
HETATM   13  C2  UNL     1      24.923   5.151  48.981  1.00  0.00     0.068 A 
HETATM   14  C15 UNL     1      24.098   4.283  49.658  1.00  0.00     0.039 A 
HETATM   15  C14 UNL     1      24.695   3.241  50.357  1.00  0.00     0.032 A 
BRANCH  13  16
HETATM   16  O1  UNL     1      24.390   6.205  48.270  1.00  0.00    -0.356 OA
HETATM   17  C1  UNL     1      24.944   7.485  48.253  1.00  0.00     0.210 C 
ENDBRANCH  13  16
ENDBRANCH   8  10
ENDBRANCH   1   8
BRANCH   5  18
HETATM   18  C9  UNL     1      25.054  -0.668  54.218  1.00  0.00     0.174 C 
BRANCH  18  19
HETATM   19  C10 UNL     1      23.575  -0.608  54.226  1.00  0.00     0.067 A 
HETATM   20  C11 UNL     1      22.675  -1.240  55.061  1.00  0.00     0.036 A 
HETATM   21  C12 UNL     1      21.409  -0.840  54.635  1.00  0.00     0.027 A 
HETATM   22  C13 UNL     1      21.629   0.021  53.554  1.00  0.00     0.142 A 
HETATM   23  O2  UNL     1      22.918   0.113  53.366  1.00  0.00    -0.326 OA
ENDBRANCH  18  19
ENDBRANCH   5  18
TORSDOF 5
ENDMDL
MODEL 3
REMARK VINA RESULT:      -6.5      1.477      6.411
REMARK  5 active torsions:
REMARK  status: ('A' for Active; 'I' for Inactive)
REMARK    1  A    between atoms: O1_2  and  C2_3 
REMARK    2  A    between atoms: C5_6  and  N1_7 
REMARK    3  A    between atoms: N1_7  and  C6_8 
REMARK    4  A    between atoms: N3_12  and  C9_13 
REMARK    5  A    between atoms: C9_13  and  C10_14 
ROOT
HETATM    1  C6  UNL     1      24.672   2.719  50.638  1.00  0.00     0.210 C 
HETATM    2  C7  UNL     1      23.243   2.403  50.896  1.00  0.00     0.126 C 
HETATM    3  N2  UNL     1      22.944   2.338  52.160  1.00  0.00    -0.287 NA
HETATM    4  C8  UNL     1      23.985   2.571  53.116  1.00  0.00     0.256 C 
HETATM    5  N3  UNL     1      25.205   1.880  52.792  1.00  0.00    -0.224 NA
HETATM    6  N4  UNL     1      25.484   1.836  51.437  1.00  0.00    -0.230 NA
HETATM    7  H16 UNL     1      25.599   0.899  51.045  1.00  0.00     0.143 HD
ENDROOT
BRANCH   1   8
HETATM    8  N1  UNL     1      25.030   4.081  50.926  1.00  0.00    -0.368 N 
HETATM    9  H6  UNL     1      24.692   4.557  51.791  1.00  0.00     0.161 HD
BRANCH   8  10
HETATM   10  C5  UNL     1      25.856   4.837  50.048  1.00  0.00     0.029 A 
HETATM   11  C4  UNL     1      25.667   6.181  49.803  1.00  0.00     0.032 A 
HETATM   12  C3  UNL     1      26.459   6.933  48.954  1.00  0.00     0.039 A 
HETATM   13  C2  UNL     1      27.509   6.296  48.305  1.00  0.00     0.068 A 
HETATM   14  C15 UNL     1      27.755   4.956  48.503  1.00  0.00     0.039 A 
HETATM   15  C14 UNL     1      26.915   4.270  49.372  1.00  0.00     0.032 A 
BRANCH  13  16
HETATM   16  O1  UNL     1      28.308   7.031  47.455  1.00  0.00    -0.356 OA
HETATM   17  C1  UNL     1      29.697   6.917  47.407  1.00  0.00     0.210 C 
ENDBRANCH  13  16
ENDBRANCH   8  10
ENDBRANCH   1   8
BRANCH   5  18
HETATM   18  C9  UNL     1      25.316   0.578  53.419  1.00  0.00     0.174 C 
BRANCH  18  19
HETATM   19  C10 UNL     1      26.738   0.294  53.713  1.00  0.00     0.067 A 
HETATM   20  C11 UNL     1      27.590  -0.623  53.128  1.00  0.00     0.036 A 
HETATM   21  C12 UNL     1      28.815  -0.478  53.778  1.00  0.00     0.027 A 
HETATM   22  C13 UNL     1      28.622   0.531  54.728  1.00  0.00     0.142 A 
HETATM   23  O2  UNL     1      27.385   0.940  54.638  1.00  0.00    -0.326 OA
ENDBRANCH  18  19
ENDBRANCH   5  18
TORSDOF 5
ENDMDL
MODEL 4
REMARK VINA RESULT:      -6.3      2.951      5.162
REMARK  5 active torsions:
REMARK  status: ('A' for Active; 'I' for Inactive)
REMARK    1  A    between atoms: O1_2  and  C2_3 
REMARK    2  A    between atoms: C5_6  and  N1_7 
REMARK    3  A    between atoms: N1_7  and  C6_8 
REMARK    4  A    between atoms: N3_12  and  C9_13 
REMARK    5  A    between atoms: C9_13  and  C10_14 
ROOT
HETATM    1  C6  UNL     1      23.710   2.723  50.902  1.00  0.00     0.210 C 
HETATM    2  C7  UNL     1      23.386   3.851  49.991  1.00  0.00     0.126 C 
HETATM    3  N2  UNL     1      22.716   4.808  50.564  1.00  0.00    -0.287 NA
HETATM    4  C8  UNL     1      22.384   4.667  51.949  1.00  0.00     0.256 C 
HETATM    5  N3  UNL     1      21.881   3.359  52.273  1.00  0.00    -0.224 NA
HETATM    6  N4  UNL     1      22.502   2.330  51.586  1.00  0.00    -0.230 NA
HETATM    7  H16 UNL     1      21.880   1.735  51.035  1.00  0.00     0.143 HD
ENDROOT
BRANCH   1   8
HETATM    8  N1  UNL     1      24.725   3.028  51.873  1.00  0.00    -0.368 N 
HETATM    9  H6  UNL     1      24.876   4.005  52.208  1.00  0.00     0.161 HD
BRANCH   8  10
HETATM   10  C5  UNL     1      25.565   2.017  52.416  1.00  0.00     0.029 A 
HETATM   11  C4  UNL     1      26.108   0.999  51.661  1.00  0.00     0.032 A 
HETATM   12  C3  UNL     1      26.928   0.008  52.169  1.00  0.00     0.039 A 
HETATM   13  C2  UNL     1      27.223   0.038  53.527  1.00  0.00     0.068 A 
HETATM   14  C15 UNL     1      26.715   1.025  54.340  1.00  0.00     0.039 A 
HETATM   15  C14 UNL     1      25.900   1.985  53.753  1.00  0.00     0.032 A 
BRANCH  13  16
HETATM   16  O1  UNL     1      28.038  -0.943  54.050  1.00  0.00    -0.356 OA
HETATM   17  C1  UNL     1      29.313  -1.232  53.562  1.00  0.00     0.210 C 
ENDBRANCH  13  16
ENDBRANCH   8  10
ENDBRANCH   1   8
BRANCH   5  18
HETATM   18  C9  UNL     1      20.436   3.265  52.214  1.00  0.00     0.174 C 
BRANCH  18  19
HETATM   19  C10 UNL     1      20.026   1.856  52.412  1.00  0.00     0.067 A 
HETATM   20  C11 UNL     1      19.146   1.086  51.677  1.00  0.00     0.036 A 
HETATM   21  C12 UNL     1      19.125  -0.165  52.292  1.00  0.00     0.027 A 
HETATM   22  C13 UNL     1      20.005  -0.069  53.375  1.00  0.00     0.142 A 
HETATM   23  O2  UNL     1      20.498   1.140  53.389  1.00  0.00    -0.326 OA
ENDBRANCH  18  19
ENDBRANCH   5  18
TORSDOF 5
ENDMDL
MODEL 5
REMARK VINA RESULT:      -6.2      5.443      8.455
REMARK  5 active torsions:
REMARK  status: ('A' for Active; 'I' for Inactive)
REMARK    1  A    between atoms: O1_2  and  C2_3 
REMARK    2  A    between atoms: C5_6  and  N1_7 
REMARK    3  A    between atoms: N1_7  and  C6_8 
REMARK    4  A    between atoms: N3_12  and  C9_13 
REMARK    5  A    between atoms: C9_13  and  C10_14 
ROOT
HETATM    1  C6  UNL     1      30.918   5.772  48.184  1.00  0.00     0.210 C 
HETATM    2  C7  UNL     1      31.601   6.357  49.367  1.00  0.00     0.126 C 
HETATM    3  N2  UNL     1      32.262   7.445  49.101  1.00  0.00    -0.287 NA
HETATM    4  C8  UNL     1      32.253   7.932  47.755  1.00  0.00     0.256 C 
HETATM    5  N3  UNL     1      32.470   6.893  46.784  1.00  0.00    -0.224 NA
HETATM    6  N4  UNL     1      31.870   5.688  47.105  1.00  0.00    -0.230 NA
HETATM    7  H16 UNL     1      32.503   4.886  47.163  1.00  0.00     0.143 HD
ENDROOT
BRANCH   1   8
HETATM    8  N1  UNL     1      29.770   6.516  47.744  1.00  0.00    -0.368 N 
HETATM    9  H6  UNL     1      29.871   7.345  47.118  1.00  0.00     0.161 HD
BRANCH   8  10
HETATM   10  C5  UNL     1      28.452   6.158  48.141  1.00  0.00     0.029 A 
HETATM   11  C4  UNL     1      28.118   4.905  48.611  1.00  0.00     0.032 A 
HETATM   12  C3  UNL     1      26.843   4.538  49.003  1.00  0.00     0.039 A 
HETATM   13  C2  UNL     1      25.834   5.490  48.916  1.00  0.00     0.068 A 
HETATM   14  C15 UNL     1      26.097   6.760  48.457  1.00  0.00     0.039 A 
HETATM   15  C14 UNL     1      27.403   7.051  48.083  1.00  0.00     0.032 A 
BRANCH  13  16
HETATM   16  O1  UNL     1      24.558   5.140  49.302  1.00  0.00    -0.356 OA
HETATM   17  C1  UNL     1      24.252   3.967  49.993  1.00  0.00     0.210 C 
ENDBRANCH  13  16
ENDBRANCH   8  10
ENDBRANCH   1   8
BRANCH   5  18
HETATM   18  C9  UNL     1      33.862   6.732  46.411  1.00  0.00     0.174 C 
BRANCH  18  19
HETATM   19  C10 UNL     1      34.273   5.328  46.636  1.00  0.00     0.067 A 
HETATM   20  C11 UNL     1      34.534   4.331  45.717  1.00  0.00     0.036 A 
HETATM   21  C12 UNL     1      34.881   3.204  46.460  1.00  0.00     0.027 A 
HETATM   22  C13 UNL     1      34.806   3.597  47.801  1.00  0.00     0.142 A 
HETATM   23  O2  UNL     1      34.445   4.852  47.834  1.00  0.00    -0.326 OA
ENDBRANCH  18  19
ENDBRANCH   5  18
TORSDOF 5
ENDMDL
MODEL 6
REMARK VINA RESULT:      -6.2      2.372      6.398
REMARK  5 active torsions:
REMARK  status: ('A' for Active; 'I' for Inactive)
REMARK    1  A    between atoms: O1_2  and  C2_3 
REMARK    2  A    between atoms: C5_6  and  N1_7 
REMARK    3  A    between atoms: N1_7  and  C6_8 
REMARK    4  A    between atoms: N3_12  and  C9_13 
REMARK    5  A    between atoms: C9_13  and  C10_14 
ROOT
HETATM    1  C6  UNL     1      25.079   4.248  49.599  1.00  0.00     0.210 C 
HETATM    2  C7  UNL     1      23.819   3.608  49.139  1.00  0.00     0.126 C 
HETATM    3  N2  UNL     1      22.747   4.147  49.640  1.00  0.00    -0.287 NA
HETATM    4  C8  UNL     1      22.900   5.251  50.539  1.00  0.00     0.256 C 
HETATM    5  N3  UNL     1      23.930   5.033  51.520  1.00  0.00    -0.224 NA
HETATM    6  N4  UNL     1      25.035   4.356  51.036  1.00  0.00    -0.230 NA
HETATM    7  H16 UNL     1      25.269   3.492  51.530  1.00  0.00     0.143 HD
ENDROOT
BRANCH   1   8
HETATM    8  N1  UNL     1      25.313   5.550  49.035  1.00  0.00    -0.368 N 
HETATM    9  H6  UNL     1      24.545   6.253  48.962  1.00  0.00     0.161 HD
BRANCH   8  10
HETATM   10  C5  UNL     1      26.594   5.934  48.551  1.00  0.00     0.029 A 
HETATM   11  C4  UNL     1      26.842   7.150  47.950  1.00  0.00     0.032 A 
HETATM   12  C3  UNL     1      28.080   7.542  47.474  1.00  0.00     0.039 A 
HETATM   13  C2  UNL     1      29.141   6.656  47.608  1.00  0.00     0.068 A 
HETATM   14  C15 UNL     1      28.966   5.425  48.198  1.00  0.00     0.039 A 
HETATM   15  C14 UNL     1      27.691   5.106  48.651  1.00  0.00     0.032 A 
BRANCH  13  16
HETATM   16  O1  UNL     1      30.382   7.031  47.139  1.00  0.00    -0.356 OA
HETATM   17  C1  UNL     1      31.583   6.648  47.736  1.00  0.00     0.210 C 
ENDBRANCH  13  16
ENDBRANCH   8  10
ENDBRANCH   1   8
BRANCH   5  18
HETATM   18  C9  UNL     1      23.436   4.465  52.759  1.00  0.00     0.174 C 
BRANCH  18  19
HETATM   19  C10 UNL     1      23.842   3.044  52.845  1.00  0.00     0.067 A 
HETATM   20  C11 UNL     1      23.145   1.909  52.481  1.00  0.00     0.036 A 
HETATM   21  C12 UNL     1      23.984   0.834  52.771  1.00  0.00     0.027 A 
HETATM   22  C13 UNL     1      25.151   1.397  53.300  1.00  0.00     0.142 A 
HETATM   23  O2  UNL     1      25.002   2.694  53.316  1.00  0.00    -0.326 OA
ENDBRANCH  18  19
ENDBRANCH   5  18
TORSDOF 5
ENDMDL
MODEL 7
REMARK VINA RESULT:      -6.2      3.168      5.890
REMARK  5 active torsions:
REMARK  status: ('A' for Active; 'I' for Inactive)
REMARK    1  A    between atoms: O1_2  and  C2_3 
REMARK    2  A    between atoms: C5_6  and  N1_7 
REMARK    3  A    between atoms: N1_7  and  C6_8 
REMARK    4  A    between atoms: N3_12  and  C9_13 
REMARK    5  A    between atoms: C9_13  and  C10_14 
ROOT
HETATM    1  C6  UNL     1      24.058   4.277  51.302  1.00  0.00     0.210 C 
HETATM    2  C7  UNL     1      24.942   5.171  50.509  1.00  0.00     0.126 C 
HETATM    3  N2  UNL     1      25.858   4.536  49.839  1.00  0.00    -0.287 NA
HETATM    4  C8  UNL     1      25.904   3.109  49.939  1.00  0.00     0.256 C 
HETATM    5  N3  UNL     1      25.774   2.639  51.292  1.00  0.00    -0.224 NA
HETATM    6  N4  UNL     1      24.887   3.374  52.060  1.00  0.00    -0.230 NA
HETATM    7  H16 UNL     1      25.280   3.778  52.914  1.00  0.00     0.143 HD
ENDROOT
BRANCH   1   8
HETATM    8  N1  UNL     1      23.133   3.515  50.508  1.00  0.00    -0.368 N 
HETATM    9  H6  UNL     1      23.098   3.620  49.470  1.00  0.00     0.161 HD
BRANCH   8  10
HETATM   10  C5  UNL     1      22.227   2.591  51.099  1.00  0.00     0.029 A 
HETATM   11  C4  UNL     1      21.275   2.956  52.029  1.00  0.00     0.032 A 
HETATM   12  C3  UNL     1      20.385   2.073  52.614  1.00  0.00     0.039 A 
HETATM   13  C2  UNL     1      20.455   0.736  52.245  1.00  0.00     0.068 A 
HETATM   14  C15 UNL     1      21.380   0.302  51.324  1.00  0.00     0.039 A 
HETATM   15  C14 UNL     1      22.238   1.251  50.780  1.00  0.00     0.032 A 
BRANCH  13  16
HETATM   16  O1  UNL     1      19.575  -0.157  52.820  1.00  0.00    -0.356 OA
HETATM   17  C1  UNL     1      18.326  -0.468  52.282  1.00  0.00     0.210 C 
ENDBRANCH  13  16
ENDBRANCH   8  10
ENDBRANCH   1   8
BRANCH   5  18
HETATM   18  C9  UNL     1      27.045   2.439  51.960  1.00  0.00     0.174 C 
BRANCH  18  19
HETATM   19  C10 UNL     1      27.162   1.025  52.382  1.00  0.00     0.067 A 
HETATM   20  C11 UNL     1      26.332  -0.044  52.108  1.00  0.00     0.036 A 
HETATM   21  C12 UNL     1      26.902  -1.146  52.745  1.00  0.00     0.027 A 
HETATM   22  C13 UNL     1      28.057  -0.665  53.371  1.00  0.00     0.142 A 
HETATM   23  O2  UNL     1      28.150   0.613  53.120  1.00  0.00    -0.326 OA
ENDBRANCH  18  19
ENDBRANCH   5  18
TORSDOF 5
ENDMDL
MODEL 8
REMARK VINA RESULT:      -6.1      2.304      3.109
REMARK  5 active torsions:
REMARK  status: ('A' for Active; 'I' for Inactive)
REMARK    1  A    between atoms: O1_2  and  C2_3 
REMARK    2  A    between atoms: C5_6  and  N1_7 
REMARK    3  A    between atoms: N1_7  and  C6_8 
REMARK    4  A    between atoms: N3_12  and  C9_13 
REMARK    5  A    between atoms: C9_13  and  C10_14 
ROOT
HETATM    1  C6  UNL     1      24.755   4.352  51.110  1.00  0.00     0.210 C 
HETATM    2  C7  UNL     1      23.522   5.181  51.090  1.00  0.00     0.126 C 
HETATM    3  N2  UNL     1      23.142   5.521  49.893  1.00  0.00    -0.287 NA
HETATM    4  C8  UNL     1      23.924   5.072  48.781  1.00  0.00     0.256 C 
HETATM    5  N3  UNL     1      25.338   5.240  48.989  1.00  0.00    -0.224 NA
HETATM    6  N4  UNL     1      25.749   4.996  50.287  1.00  0.00    -0.230 NA
HETATM    7  H16 UNL     1      26.236   5.770  50.744  1.00  0.00     0.143 HD
ENDROOT
BRANCH   1   8
HETATM    8  N1  UNL     1      24.561   3.004  50.648  1.00  0.00    -0.368 N 
HETATM    9  H6  UNL     1      24.707   2.750  49.647  1.00  0.00     0.161 HD
BRANCH   8  10
HETATM   10  C5  UNL     1      24.162   1.963  51.532  1.00  0.00     0.029 A 
HETATM   11  C4  UNL     1      22.844   1.696  51.838  1.00  0.00     0.032 A 
HETATM   12  C3  UNL     1      22.436   0.688  52.693  1.00  0.00     0.039 A 
HETATM   13  C2  UNL     1      23.413  -0.103  53.283  1.00  0.00     0.068 A 
HETATM   14  C15 UNL     1      24.748   0.108  53.023  1.00  0.00     0.039 A 
HETATM   15  C14 UNL     1      25.077   1.140  52.152  1.00  0.00     0.032 A 
BRANCH  13  16
HETATM   16  O1  UNL     1      23.024  -1.111  54.139  1.00  0.00    -0.356 OA
HETATM   17  C1  UNL     1      21.711  -1.289  54.578  1.00  0.00     0.210 C 
ENDBRANCH  13  16
ENDBRANCH   8  10
ENDBRANCH   1   8
BRANCH   5  18
HETATM   18  C9  UNL     1      25.853   6.494  48.476  1.00  0.00     0.174 C 
BRANCH  18  19
HETATM   19  C10 UNL     1      27.322   6.396  48.321  1.00  0.00     0.067 A 
HETATM   20  C11 UNL     1      28.252   7.397  48.123  1.00  0.00     0.036 A 
HETATM   21  C12 UNL     1      29.490   6.761  48.045  1.00  0.00     0.027 A 
HETATM   22  C13 UNL     1      29.225   5.397  48.203  1.00  0.00     0.142 A 
HETATM   23  O2  UNL     1      27.936   5.251  48.360  1.00  0.00    -0.326 OA
ENDBRANCH  18  19
ENDBRANCH   5  18
TORSDOF 5
ENDMDL
MODEL 9
REMARK VINA RESULT:      -6.0      2.851      4.504
REMARK  5 active torsions:
REMARK  status: ('A' for Active; 'I' for Inactive)
REMARK    1  A    between atoms: O1_2  and  C2_3 
REMARK    2  A    between atoms: C5_6  and  N1_7 
REMARK    3  A    between atoms: N1_7  and  C6_8 
REMARK    4  A    between atoms: N3_12  and  C9_13 
REMARK    5  A    between atoms: C9_13  and  C10_14 
ROOT
HETATM    1  C6  UNL     1      23.212   2.004  52.057  1.00  0.00     0.210 C 
HETATM    2  C7  UNL     1      23.658   2.194  50.653  1.00  0.00     0.126 C 
HETATM    3  N2  UNL     1      23.908   3.434  50.348  1.00  0.00    -0.287 NA
HETATM    4  C8  UNL     1      23.732   4.429  51.362  1.00  0.00     0.256 C 
HETATM    5  N3  UNL     1      22.504   4.268  52.095  1.00  0.00    -0.224 NA
HETATM    6  N4  UNL     1      22.158   2.949  52.330  1.00  0.00    -0.230 NA
HETATM    7  H16 UNL     1      21.240   2.669  51.978  1.00  0.00     0.143 HD
ENDROOT
BRANCH   1   8
HETATM    8  N1  UNL     1      24.257   2.168  53.031  1.00  0.00    -0.368 N 
HETATM    9  H6  UNL     1      24.255   2.973  53.695  1.00  0.00     0.161 HD
BRANCH   8  10
HETATM   10  C5  UNL     1      25.336   1.247  53.130  1.00  0.00     0.029 A 
HETATM   11  C4  UNL     1      25.158  -0.118  53.227  1.00  0.00     0.032 A 
HETATM   12  C3  UNL     1      26.193  -1.030  53.323  1.00  0.00     0.039 A 
HETATM   13  C2  UNL     1      27.494  -0.543  53.324  1.00  0.00     0.068 A 
HETATM   14  C15 UNL     1      27.745   0.807  53.229  1.00  0.00     0.039 A 
HETATM   15  C14 UNL     1      26.651   1.659  53.135  1.00  0.00     0.032 A 
BRANCH  13  16
HETATM   16  O1  UNL     1      28.538  -1.438  53.420  1.00  0.00    -0.356 OA
HETATM   17  C1  UNL     1      29.859  -1.064  53.666  1.00  0.00     0.210 C 
ENDBRANCH  13  16
ENDBRANCH   8  10
ENDBRANCH   1   8
BRANCH   5  18
HETATM   18  C9  UNL     1      21.402   5.038  51.553  1.00  0.00     0.174 C 
BRANCH  18  19
HETATM   19  C10 UNL     1      20.293   4.125  51.196  1.00  0.00     0.067 A 
HETATM   20  C11 UNL     1      19.944   3.606  49.965  1.00  0.00     0.036 A 
HETATM   21  C12 UNL     1      18.825   2.805  50.189  1.00  0.00     0.027 A 
HETATM   22  C13 UNL     1      18.565   2.892  51.560  1.00  0.00     0.142 A 
HETATM   23  O2  UNL     1      19.461   3.681  52.091  1.00  0.00    -0.326 OA
ENDBRANCH  18  19
ENDBRANCH   5  18
TORSDOF 5
ENDMDL
