MODEL 1
REMARK VINA RESULT:      -7.5      0.000      0.000
REMARK  13 active torsions:
REMARK  status: ('A' for Active; 'I' for Inactive)
REMARK    1  A    between atoms: N1_2  and  C3_4 
REMARK    2  A    between atoms: C3_4  and  C4_5 
REMARK    3  A    between atoms: C4_5  and  C5_6 
REMARK    4  A    between atoms: C5_6  and  C6_7 
REMARK    5  A    between atoms: C7_9  and  C8_10 
REMARK    6  A    between atoms: C8_10  and  C9_11 
REMARK    7  A    between atoms: C14_17  and  C15_18 
REMARK    8  A    between atoms: C15_18  and  C16_19 
REMARK    9  A    between atoms: C16_19  and  C17_20 
REMARK   10  A    between atoms: C18_21  and  C19_22 
REMARK   11  A    between atoms: C19_22  and  C20_23 
REMARK   12  A    between atoms: C20_23  and  C21_24 
REMARK   13  A    between atoms: C21_24  and  N3_25 
ROOT
HETATM    1  C9  UNL     1      24.392   3.227  49.605  1.00  0.00    -0.043 A 
HETATM    2  C10 UNL     1      23.443   3.114  48.624  1.00  0.00     0.009 A 
HETATM    3  C11 UNL     1      22.246   2.662  49.139  1.00  0.00     0.014 A 
HETATM    4  C12 UNL     1      22.457   2.483  50.486  1.00  0.00    -0.006 A 
HETATM    5  C13 UNL     1      21.521   2.000  51.421  1.00  0.00     0.131 C 
HETATM    6  N2  UNL     1      21.846   1.405  52.603  1.00  0.00    -0.244 NA
HETATM    7  C14 UNL     1      23.035   0.994  53.110  1.00  0.00     0.128 C 
HETATM    8  N4  UNL     1      23.887   2.072  53.147  1.00  0.00    -0.244 NA
HETATM    9  C22 UNL     1      24.422   2.773  52.088  1.00  0.00     0.131 C 
HETATM   10  C23 UNL     1      23.852   2.852  50.801  1.00  0.00    -0.001 A 
ENDROOT
BRANCH   1  11
HETATM   11  C8  UNL     1      25.820   3.690  49.510  1.00  0.00     0.070 C 
BRANCH  11  12
HETATM   12  C7  UNL     1      25.778   5.121  49.113  1.00  0.00     0.215 A 
HETATM   13  C6  UNL     1      27.024   5.720  48.663  1.00  0.00     0.068 A 
HETATM   14  O1  UNL     1      27.264   4.553  49.124  1.00  0.00    -0.349 OA
BRANCH  13  15
HETATM   15  C5  UNL     1      28.266   6.304  48.219  1.00  0.00     0.032 C 
BRANCH  15  16
HETATM   16  C4  UNL     1      29.293   5.474  48.205  1.00  0.00     0.005 C 
BRANCH  16  17
HETATM   17  C3  UNL     1      30.693   5.439  47.720  1.00  0.00     0.299 C 
BRANCH  17  18
HETATM   18  N1  UNL     1      31.677   5.463  48.757  1.00  0.00     0.083 N 
HETATM   19  C1  UNL     1      32.952   5.086  48.170  1.00  0.00     0.309 C 
HETATM   20  C2  UNL     1      31.781   6.689  49.483  1.00  0.00     0.309 C 
ENDBRANCH  17  18
ENDBRANCH  16  17
ENDBRANCH  15  16
ENDBRANCH  13  15
ENDBRANCH  11  12
ENDBRANCH   1  11
BRANCH   7  21
HETATM   21  C15 UNL     1      23.306  -0.428  53.526  1.00  0.00     0.107 C 
BRANCH  21  22
HETATM   22  C16 UNL     1      24.731  -0.714  53.561  1.00  0.00    -0.019 C 
BRANCH  22  23
HETATM   23  C17 UNL     1      26.030  -0.670  53.445  1.00  0.00    -0.004 C 
HETATM   24  C18 UNL     1      27.178  -0.237  52.681  1.00  0.00    -0.000 C 
BRANCH  24  25
HETATM   25  C19 UNL     1      28.355  -0.586  53.248  1.00  0.00     0.001 C 
BRANCH  25  26
HETATM   26  C20 UNL     1      28.406   0.056  54.526  1.00  0.00     0.016 C 
BRANCH  26  27
HETATM   27  C21 UNL     1      29.375   0.810  53.979  1.00  0.00     0.080 C 
BRANCH  27  28
HETATM   28  N3  UNL     1      29.536   2.139  54.563  1.00  0.00    -0.408 N 
HETATM   29  H26 UNL     1      29.639   3.060  54.978  1.00  0.00     0.155 HD
HETATM   30  H27 UNL     1      30.238   2.541  53.867  1.00  0.00     0.155 HD
ENDBRANCH  27  28
ENDBRANCH  26  27
ENDBRANCH  25  26
ENDBRANCH  24  25
ENDBRANCH  22  23
ENDBRANCH  21  22
ENDBRANCH   7  21
TORSDOF 13
ENDMDL
MODEL 2
REMARK VINA RESULT:      -7.4      1.843      2.365
REMARK  13 active torsions:
REMARK  status: ('A' for Active; 'I' for Inactive)
REMARK    1  A    between atoms: N1_2  and  C3_4 
REMARK    2  A    between atoms: C3_4  and  C4_5 
REMARK    3  A    between atoms: C4_5  and  C5_6 
REMARK    4  A    between atoms: C5_6  and  C6_7 
REMARK    5  A    between atoms: C7_9  and  C8_10 
REMARK    6  A    between atoms: C8_10  and  C9_11 
REMARK    7  A    between atoms: C14_17  and  C15_18 
REMARK    8  A    between atoms: C15_18  and  C16_19 
REMARK    9  A    between atoms: C16_19  and  C17_20 
REMARK   10  A    between atoms: C18_21  and  C19_22 
REMARK   11  A    between atoms: C19_22  and  C20_23 
REMARK   12  A    between atoms: C20_23  and  C21_24 
REMARK   13  A    between atoms: C21_24  and  N3_25 
ROOT
HETATM    1  C9  UNL     1      23.423   3.017  49.468  1.00  0.00    -0.043 A 
HETATM    2  C10 UNL     1      22.892   2.498  48.317  1.00  0.00     0.009 A 
HETATM    3  C11 UNL     1      21.947   1.533  48.595  1.00  0.00     0.014 A 
HETATM    4  C12 UNL     1      21.891   1.442  49.966  1.00  0.00    -0.006 A 
HETATM    5  C13 UNL     1      21.084   0.561  50.713  1.00  0.00     0.131 C 
HETATM    6  N2  UNL     1      21.354   0.159  51.987  1.00  0.00    -0.244 NA
HETATM    7  C14 UNL     1      22.441   0.334  52.778  1.00  0.00     0.128 C 
HETATM    8  N4  UNL     1      22.675   1.683  52.903  1.00  0.00    -0.244 NA
HETATM    9  C22 UNL     1      23.066   2.575  51.928  1.00  0.00     0.131 C 
HETATM   10  C23 UNL     1      22.846   2.408  50.545  1.00  0.00    -0.001 A 
ENDROOT
BRANCH   1  11
HETATM   11  C8  UNL     1      24.461   4.090  49.648  1.00  0.00     0.070 C 
BRANCH  11  12
HETATM   12  C7  UNL     1      25.784   3.427  49.525  1.00  0.00     0.215 A 
HETATM   13  C6  UNL     1      26.894   4.245  49.062  1.00  0.00     0.068 A 
HETATM   14  O1  UNL     1      25.809   4.911  48.949  1.00  0.00    -0.349 OA
BRANCH  13  15
HETATM   15  C5  UNL     1      27.987   5.067  48.602  1.00  0.00     0.032 C 
BRANCH  15  16
HETATM   16  C4  UNL     1      27.671   6.327  48.366  1.00  0.00     0.005 C 
BRANCH  16  17
HETATM   17  C3  UNL     1      28.293   7.669  48.455  1.00  0.00     0.299 C 
BRANCH  17  18
HETATM   18  N1  UNL     1      27.483   8.652  49.102  1.00  0.00     0.083 N 
HETATM   19  C1  UNL     1      26.883   9.484  48.072  1.00  0.00     0.309 C 
HETATM   20  C2  UNL     1      26.496   8.146  50.003  1.00  0.00     0.309 C 
ENDBRANCH  17  18
ENDBRANCH  16  17
ENDBRANCH  15  16
ENDBRANCH  13  15
ENDBRANCH  11  12
ENDBRANCH   1  11
BRANCH   7  21
HETATM   21  C15 UNL     1      23.222  -0.809  53.371  1.00  0.00     0.107 C 
BRANCH  21  22
HETATM   22  C16 UNL     1      24.643  -0.514  53.431  1.00  0.00    -0.019 C 
BRANCH  22  23
HETATM   23  C17 UNL     1      25.947  -0.565  53.378  1.00  0.00    -0.004 C 
HETATM   24  C18 UNL     1      27.151  -0.360  52.604  1.00  0.00    -0.000 C 
BRANCH  24  25
HETATM   25  C19 UNL     1      28.278  -0.648  53.293  1.00  0.00     0.001 C 
BRANCH  25  26
HETATM   26  C20 UNL     1      28.247   0.138  54.487  1.00  0.00     0.016 C 
BRANCH  26  27
HETATM   27  C21 UNL     1      29.212   0.863  53.897  1.00  0.00     0.080 C 
BRANCH  27  28
HETATM   28  N3  UNL     1      29.537   2.125  54.558  1.00  0.00    -0.408 N 
HETATM   29  H26 UNL     1      29.765   2.995  55.031  1.00  0.00     0.155 HD
HETATM   30  H27 UNL     1      29.441   2.779  53.722  1.00  0.00     0.155 HD
ENDBRANCH  27  28
ENDBRANCH  26  27
ENDBRANCH  25  26
ENDBRANCH  24  25
ENDBRANCH  22  23
ENDBRANCH  21  22
ENDBRANCH   7  21
TORSDOF 13
ENDMDL
MODEL 3
REMARK VINA RESULT:      -6.8      2.695      7.917
REMARK  13 active torsions:
REMARK  status: ('A' for Active; 'I' for Inactive)
REMARK    1  A    between atoms: N1_2  and  C3_4 
REMARK    2  A    between atoms: C3_4  and  C4_5 
REMARK    3  A    between atoms: C4_5  and  C5_6 
REMARK    4  A    between atoms: C5_6  and  C6_7 
REMARK    5  A    between atoms: C7_9  and  C8_10 
REMARK    6  A    between atoms: C8_10  and  C9_11 
REMARK    7  A    between atoms: C14_17  and  C15_18 
REMARK    8  A    between atoms: C15_18  and  C16_19 
REMARK    9  A    between atoms: C16_19  and  C17_20 
REMARK   10  A    between atoms: C18_21  and  C19_22 
REMARK   11  A    between atoms: C19_22  and  C20_23 
REMARK   12  A    between atoms: C20_23  and  C21_24 
REMARK   13  A    between atoms: C21_24  and  N3_25 
ROOT
HETATM    1  C9  UNL     1      23.874   0.238  53.273  1.00  0.00    -0.043 A 
HETATM    2  C10 UNL     1      24.657  -0.864  53.487  1.00  0.00     0.009 A 
HETATM    3  C11 UNL     1      25.980  -0.598  53.204  1.00  0.00     0.014 A 
HETATM    4  C12 UNL     1      26.023   0.714  52.795  1.00  0.00    -0.006 A 
HETATM    5  C13 UNL     1      27.166   1.420  52.370  1.00  0.00     0.131 C 
HETATM    6  N2  UNL     1      27.141   2.515  51.559  1.00  0.00    -0.244 NA
HETATM    7  C14 UNL     1      26.136   3.097  50.859  1.00  0.00     0.128 C 
HETATM    8  N4  UNL     1      25.132   3.431  51.736  1.00  0.00    -0.244 NA
HETATM    9  C22 UNL     1      24.323   2.588  52.467  1.00  0.00     0.131 C 
HETATM   10  C23 UNL     1      24.656   1.270  52.839  1.00  0.00    -0.001 A 
ENDROOT
BRANCH   1  11
HETATM   11  C8  UNL     1      22.392   0.415  53.463  1.00  0.00     0.070 C 
BRANCH  11  12
HETATM   12  C7  UNL     1      21.745  -0.051  52.210  1.00  0.00     0.215 A 
HETATM   13  C6  UNL     1      20.528   0.632  51.799  1.00  0.00     0.068 A 
HETATM   14  O1  UNL     1      20.858   1.031  52.968  1.00  0.00    -0.349 OA
BRANCH  13  15
HETATM   15  C5  UNL     1      19.322   1.317  51.403  1.00  0.00     0.032 C 
BRANCH  15  16
HETATM   16  C4  UNL     1      19.347   2.625  51.574  1.00  0.00     0.005 C 
BRANCH  16  17
HETATM   17  C3  UNL     1      19.884   3.829  50.897  1.00  0.00     0.299 C 
BRANCH  17  18
HETATM   18  N1  UNL     1      21.298   3.994  51.022  1.00  0.00     0.083 N 
HETATM   19  C1  UNL     1      21.884   3.831  49.702  1.00  0.00     0.309 C 
HETATM   20  C2  UNL     1      21.728   5.211  51.635  1.00  0.00     0.309 C 
ENDBRANCH  17  18
ENDBRANCH  16  17
ENDBRANCH  15  16
ENDBRANCH  13  15
ENDBRANCH  11  12
ENDBRANCH   1  11
BRANCH   7  21
HETATM   21  C15 UNL     1      26.179   3.295  49.367  1.00  0.00     0.107 C 
BRANCH  21  22
HETATM   22  C16 UNL     1      27.045   4.401  48.998  1.00  0.00    -0.019 C 
BRANCH  22  23
HETATM   23  C17 UNL     1      27.562   5.578  48.768  1.00  0.00    -0.004 C 
HETATM   24  C18 UNL     1      28.463   6.388  47.979  1.00  0.00    -0.000 C 
BRANCH  24  25
HETATM   25  C19 UNL     1      28.475   7.687  48.354  1.00  0.00     0.001 C 
BRANCH  25  26
HETATM   26  C20 UNL     1      29.833   8.021  48.651  1.00  0.00     0.016 C 
BRANCH  26  27
HETATM   27  C21 UNL     1      29.352   9.247  48.916  1.00  0.00     0.080 C 
BRANCH  27  28
HETATM   28  N3  UNL     1      28.537   9.350  50.125  1.00  0.00    -0.408 N 
HETATM   29  H26 UNL     1      27.974   9.434  50.966  1.00  0.00     0.155 HD
HETATM   30  H27 UNL     1      28.211   8.337  50.190  1.00  0.00     0.155 HD
ENDBRANCH  27  28
ENDBRANCH  26  27
ENDBRANCH  25  26
ENDBRANCH  24  25
ENDBRANCH  22  23
ENDBRANCH  21  22
ENDBRANCH   7  21
TORSDOF 13
ENDMDL
MODEL 4
REMARK VINA RESULT:      -6.8      2.986      8.810
REMARK  13 active torsions:
REMARK  status: ('A' for Active; 'I' for Inactive)
REMARK    1  A    between atoms: N1_2  and  C3_4 
REMARK    2  A    between atoms: C3_4  and  C4_5 
REMARK    3  A    between atoms: C4_5  and  C5_6 
REMARK    4  A    between atoms: C5_6  and  C6_7 
REMARK    5  A    between atoms: C7_9  and  C8_10 
REMARK    6  A    between atoms: C8_10  and  C9_11 
REMARK    7  A    between atoms: C14_17  and  C15_18 
REMARK    8  A    between atoms: C15_18  and  C16_19 
REMARK    9  A    between atoms: C16_19  and  C17_20 
REMARK   10  A    between atoms: C18_21  and  C19_22 
REMARK   11  A    between atoms: C19_22  and  C20_23 
REMARK   12  A    between atoms: C20_23  and  C21_24 
REMARK   13  A    between atoms: C21_24  and  N3_25 
ROOT
HETATM    1  C9  UNL     1      23.952   0.208  53.332  1.00  0.00    -0.043 A 
HETATM    2  C10 UNL     1      24.786  -0.865  53.504  1.00  0.00     0.009 A 
HETATM    3  C11 UNL     1      26.085  -0.546  53.167  1.00  0.00     0.014 A 
HETATM    4  C12 UNL     1      26.060   0.769  52.767  1.00  0.00    -0.006 A 
HETATM    5  C13 UNL     1      27.156   1.521  52.300  1.00  0.00     0.131 C 
HETATM    6  N2  UNL     1      27.054   2.620  51.499  1.00  0.00    -0.244 NA
HETATM    7  C14 UNL     1      25.998   3.167  50.847  1.00  0.00     0.128 C 
HETATM    8  N4  UNL     1      25.020   3.456  51.768  1.00  0.00    -0.244 NA
HETATM    9  C22 UNL     1      24.276   2.578  52.526  1.00  0.00     0.131 C 
HETATM   10  C23 UNL     1      24.675   1.271  52.874  1.00  0.00    -0.001 A 
ENDROOT
BRANCH   1  11
HETATM   11  C8  UNL     1      22.475   0.326  53.586  1.00  0.00     0.070 C 
BRANCH  11  12
HETATM   12  C7  UNL     1      21.793  -0.154  52.357  1.00  0.00     0.215 A 
HETATM   13  C6  UNL     1      20.339  -0.184  52.375  1.00  0.00     0.068 A 
HETATM   14  O1  UNL     1      20.766   0.085  53.549  1.00  0.00    -0.349 OA
BRANCH  13  15
HETATM   15  C5  UNL     1      18.897  -0.209  52.405  1.00  0.00     0.032 C 
BRANCH  15  16
HETATM   16  C4  UNL     1      18.312   0.254  51.316  1.00  0.00     0.005 C 
BRANCH  16  17
HETATM   17  C3  UNL     1      17.327   1.293  50.934  1.00  0.00     0.299 C 
BRANCH  17  18
HETATM   18  N1  UNL     1      17.901   2.459  50.339  1.00  0.00     0.083 N 
HETATM   19  C1  UNL     1      17.981   3.488  51.362  1.00  0.00     0.309 C 
HETATM   20  C2  UNL     1      19.162   2.267  49.694  1.00  0.00     0.309 C 
ENDBRANCH  17  18
ENDBRANCH  16  17
ENDBRANCH  15  16
ENDBRANCH  13  15
ENDBRANCH  11  12
ENDBRANCH   1  11
BRANCH   7  21
HETATM   21  C15 UNL     1      25.969   3.375  49.355  1.00  0.00     0.107 C 
BRANCH  21  22
HETATM   22  C16 UNL     1      27.051   4.240  48.915  1.00  0.00    -0.019 C 
BRANCH  22  23
HETATM   23  C17 UNL     1      27.780   5.247  48.519  1.00  0.00    -0.004 C 
HETATM   24  C18 UNL     1      29.101   5.805  48.332  1.00  0.00    -0.000 C 
BRANCH  24  25
HETATM   25  C19 UNL     1      29.080   7.048  47.800  1.00  0.00     0.001 C 
BRANCH  25  26
HETATM   26  C20 UNL     1      28.278   7.857  48.665  1.00  0.00     0.016 C 
BRANCH  26  27
HETATM   27  C21 UNL     1      29.417   8.527  48.906  1.00  0.00     0.080 C 
BRANCH  27  28
HETATM   28  N3  UNL     1      29.364   9.467  50.023  1.00  0.00    -0.408 N 
HETATM   29  H26 UNL     1      29.338  10.114  50.805  1.00  0.00     0.155 HD
HETATM   30  H27 UNL     1      28.545  10.066  49.696  1.00  0.00     0.155 HD
ENDBRANCH  27  28
ENDBRANCH  26  27
ENDBRANCH  25  26
ENDBRANCH  24  25
ENDBRANCH  22  23
ENDBRANCH  21  22
ENDBRANCH   7  21
TORSDOF 13
ENDMDL
MODEL 5
REMARK VINA RESULT:      -6.7      4.121      9.467
REMARK  13 active torsions:
REMARK  status: ('A' for Active; 'I' for Inactive)
REMARK    1  A    between atoms: N1_2  and  C3_4 
REMARK    2  A    between atoms: C3_4  and  C4_5 
REMARK    3  A    between atoms: C4_5  and  C5_6 
REMARK    4  A    between atoms: C5_6  and  C6_7 
REMARK    5  A    between atoms: C7_9  and  C8_10 
REMARK    6  A    between atoms: C8_10  and  C9_11 
REMARK    7  A    between atoms: C14_17  and  C15_18 
REMARK    8  A    between atoms: C15_18  and  C16_19 
REMARK    9  A    between atoms: C16_19  and  C17_20 
REMARK   10  A    between atoms: C18_21  and  C19_22 
REMARK   11  A    between atoms: C19_22  and  C20_23 
REMARK   12  A    between atoms: C20_23  and  C21_24 
REMARK   13  A    between atoms: C21_24  and  N3_25 
ROOT
HETATM    1  C9  UNL     1      21.394   1.259  52.658  1.00  0.00    -0.043 A 
HETATM    2  C10 UNL     1      20.974  -0.038  52.790  1.00  0.00     0.009 A 
HETATM    3  C11 UNL     1      21.991  -0.847  53.250  1.00  0.00     0.014 A 
HETATM    4  C12 UNL     1      23.085  -0.029  53.406  1.00  0.00    -0.006 A 
HETATM    5  C13 UNL     1      24.370  -0.423  53.827  1.00  0.00     0.131 C 
HETATM    6  N2  UNL     1      25.518   0.256  53.546  1.00  0.00    -0.244 NA
HETATM    7  C14 UNL     1      25.765   1.311  52.730  1.00  0.00     0.128 C 
HETATM    8  N4  UNL     1      24.961   2.357  53.114  1.00  0.00    -0.244 NA
HETATM    9  C22 UNL     1      23.588   2.447  53.045  1.00  0.00     0.131 C 
HETATM   10  C23 UNL     1      22.706   1.347  53.025  1.00  0.00    -0.001 A 
ENDROOT
BRANCH   1  11
HETATM   11  C8  UNL     1      20.632   2.474  52.208  1.00  0.00     0.070 C 
BRANCH  11  12
HETATM   12  C7  UNL     1      19.295   1.999  51.768  1.00  0.00     0.215 A 
HETATM   13  C6  UNL     1      18.255   3.003  51.608  1.00  0.00     0.068 A 
HETATM   14  O1  UNL     1      19.279   3.544  52.150  1.00  0.00    -0.349 OA
BRANCH  13  15
HETATM   15  C5  UNL     1      17.231   4.008  51.455  1.00  0.00     0.032 C 
BRANCH  15  16
HETATM   16  C4  UNL     1      16.042   3.661  51.911  1.00  0.00     0.005 C 
BRANCH  16  17
HETATM   17  C3  UNL     1      15.143   3.986  53.044  1.00  0.00     0.299 C 
BRANCH  17  18
HETATM   18  N1  UNL     1      13.770   3.664  52.817  1.00  0.00     0.083 N 
HETATM   19  C1  UNL     1      13.572   2.272  53.182  1.00  0.00     0.309 C 
HETATM   20  C2  UNL     1      12.820   4.513  53.466  1.00  0.00     0.309 C 
ENDBRANCH  17  18
ENDBRANCH  16  17
ENDBRANCH  15  16
ENDBRANCH  13  15
ENDBRANCH  11  12
ENDBRANCH   1  11
BRANCH   7  21
HETATM   21  C15 UNL     1      26.760   1.261  51.600  1.00  0.00     0.107 C 
BRANCH  21  22
HETATM   22  C16 UNL     1      26.580   2.371  50.679  1.00  0.00    -0.019 C 
BRANCH  22  23
HETATM   23  C17 UNL     1      26.190   3.461  50.077  1.00  0.00    -0.004 C 
HETATM   24  C18 UNL     1      25.399   4.671  50.124  1.00  0.00    -0.000 C 
BRANCH  24  25
HETATM   25  C19 UNL     1      25.502   5.416  49.000  1.00  0.00     0.001 C 
BRANCH  25  26
HETATM   26  C20 UNL     1      26.898   5.543  48.714  1.00  0.00     0.016 C 
BRANCH  26  27
HETATM   27  C21 UNL     1      26.656   6.864  48.694  1.00  0.00     0.080 C 
BRANCH  27  28
HETATM   28  N3  UNL     1      27.481   7.663  49.597  1.00  0.00    -0.408 N 
HETATM   29  H26 UNL     1      28.056   8.229  50.214  1.00  0.00     0.155 HD
HETATM   30  H27 UNL     1      27.462   7.023  50.448  1.00  0.00     0.155 HD
ENDBRANCH  27  28
ENDBRANCH  26  27
ENDBRANCH  25  26
ENDBRANCH  24  25
ENDBRANCH  22  23
ENDBRANCH  21  22
ENDBRANCH   7  21
TORSDOF 13
ENDMDL
MODEL 6
REMARK VINA RESULT:      -6.7      2.600      8.351
REMARK  13 active torsions:
REMARK  status: ('A' for Active; 'I' for Inactive)
REMARK    1  A    between atoms: N1_2  and  C3_4 
REMARK    2  A    between atoms: C3_4  and  C4_5 
REMARK    3  A    between atoms: C4_5  and  C5_6 
REMARK    4  A    between atoms: C5_6  and  C6_7 
REMARK    5  A    between atoms: C7_9  and  C8_10 
REMARK    6  A    between atoms: C8_10  and  C9_11 
REMARK    7  A    between atoms: C14_17  and  C15_18 
REMARK    8  A    between atoms: C15_18  and  C16_19 
REMARK    9  A    between atoms: C16_19  and  C17_20 
REMARK   10  A    between atoms: C18_21  and  C19_22 
REMARK   11  A    between atoms: C19_22  and  C20_23 
REMARK   12  A    between atoms: C20_23  and  C21_24 
REMARK   13  A    between atoms: C21_24  and  N3_25 
ROOT
HETATM    1  C9  UNL     1      26.647   5.142  49.163  1.00  0.00    -0.043 A 
HETATM    2  C10 UNL     1      25.609   5.993  49.431  1.00  0.00     0.009 A 
HETATM    3  C11 UNL     1      25.895   7.275  49.012  1.00  0.00     0.014 A 
HETATM    4  C12 UNL     1      27.157   7.224  48.469  1.00  0.00    -0.006 A 
HETATM    5  C13 UNL     1      27.883   8.308  47.938  1.00  0.00     0.131 C 
HETATM    6  N2  UNL     1      29.241   8.352  47.835  1.00  0.00    -0.244 NA
HETATM    7  C14 UNL     1      30.210   7.529  48.309  1.00  0.00     0.128 C 
HETATM    8  N4  UNL     1      29.978   6.263  47.827  1.00  0.00    -0.244 NA
HETATM    9  C22 UNL     1      28.927   5.420  48.113  1.00  0.00     0.131 C 
HETATM   10  C23 UNL     1      27.655   5.836  48.559  1.00  0.00    -0.001 A 
ENDROOT
BRANCH   1  11
HETATM   11  C8  UNL     1      26.772   3.666  49.426  1.00  0.00     0.070 C 
BRANCH  11  12
HETATM   12  C7  UNL     1      25.511   3.244  50.086  1.00  0.00     0.215 A 
HETATM   13  C6  UNL     1      25.622   2.288  51.177  1.00  0.00     0.068 A 
HETATM   14  O1  UNL     1      26.762   2.413  50.612  1.00  0.00    -0.349 OA
BRANCH  13  15
HETATM   15  C5  UNL     1      25.745   1.339  52.256  1.00  0.00     0.032 C 
BRANCH  15  16
HETATM   16  C4  UNL     1      26.700   0.441  52.097  1.00  0.00     0.005 C 
BRANCH  16  17
HETATM   17  C3  UNL     1      27.379  -0.617  52.882  1.00  0.00     0.299 C 
BRANCH  17  18
HETATM   18  N1  UNL     1      28.599  -0.202  53.499  1.00  0.00     0.083 N 
HETATM   19  C1  UNL     1      28.305   0.139  54.881  1.00  0.00     0.309 C 
HETATM   20  C2  UNL     1      29.684  -1.127  53.411  1.00  0.00     0.309 C 
ENDBRANCH  17  18
ENDBRANCH  16  17
ENDBRANCH  15  16
ENDBRANCH  13  15
ENDBRANCH  11  12
ENDBRANCH   1  11
BRANCH   7  21
HETATM   21  C15 UNL     1      31.313   7.996  49.222  1.00  0.00     0.107 C 
BRANCH  21  22
HETATM   22  C16 UNL     1      32.547   7.265  48.988  1.00  0.00    -0.019 C 
BRANCH  22  23
HETATM   23  C17 UNL     1      33.467   6.448  48.552  1.00  0.00    -0.004 C 
HETATM   24  C18 UNL     1      34.619   5.627  48.852  1.00  0.00    -0.000 C 
BRANCH  24  25
HETATM   25  C19 UNL     1      35.104   4.979  47.769  1.00  0.00     0.001 C 
BRANCH  25  26
HETATM   26  C20 UNL     1      34.775   3.596  47.930  1.00  0.00     0.016 C 
BRANCH  26  27
HETATM   27  C21 UNL     1      34.769   3.561  46.587  1.00  0.00     0.080 C 
BRANCH  27  28
HETATM   28  N3  UNL     1      33.456   3.711  45.964  1.00  0.00    -0.408 N 
HETATM   29  H26 UNL     1      32.538   3.812  45.543  1.00  0.00     0.155 HD
HETATM   30  H27 UNL     1      33.770   3.987  44.983  1.00  0.00     0.155 HD
ENDBRANCH  27  28
ENDBRANCH  26  27
ENDBRANCH  25  26
ENDBRANCH  24  25
ENDBRANCH  22  23
ENDBRANCH  21  22
ENDBRANCH   7  21
TORSDOF 13
ENDMDL
MODEL 7
REMARK VINA RESULT:      -6.7      4.266     10.333
REMARK  13 active torsions:
REMARK  status: ('A' for Active; 'I' for Inactive)
REMARK    1  A    between atoms: N1_2  and  C3_4 
REMARK    2  A    between atoms: C3_4  and  C4_5 
REMARK    3  A    between atoms: C4_5  and  C5_6 
REMARK    4  A    between atoms: C5_6  and  C6_7 
REMARK    5  A    between atoms: C7_9  and  C8_10 
REMARK    6  A    between atoms: C8_10  and  C9_11 
REMARK    7  A    between atoms: C14_17  and  C15_18 
REMARK    8  A    between atoms: C15_18  and  C16_19 
REMARK    9  A    between atoms: C16_19  and  C17_20 
REMARK   10  A    between atoms: C18_21  and  C19_22 
REMARK   11  A    between atoms: C19_22  and  C20_23 
REMARK   12  A    between atoms: C20_23  and  C21_24 
REMARK   13  A    between atoms: C21_24  and  N3_25 
ROOT
HETATM    1  C9  UNL     1      23.084   0.162  53.111  1.00  0.00    -0.043 A 
HETATM    2  C10 UNL     1      23.792  -0.799  53.783  1.00  0.00     0.009 A 
HETATM    3  C11 UNL     1      25.117  -0.441  53.914  1.00  0.00     0.014 A 
HETATM    4  C12 UNL     1      25.242   0.782  53.297  1.00  0.00    -0.006 A 
HETATM    5  C13 UNL     1      26.428   1.527  53.152  1.00  0.00     0.131 C 
HETATM    6  N2  UNL     1      26.639   2.464  52.184  1.00  0.00    -0.244 NA
HETATM    7  C14 UNL     1      25.916   2.809  51.089  1.00  0.00     0.128 C 
HETATM    8  N4  UNL     1      24.655   3.172  51.498  1.00  0.00    -0.244 NA
HETATM    9  C22 UNL     1      23.681   2.380  52.064  1.00  0.00     0.131 C 
HETATM   10  C23 UNL     1      23.921   1.185  52.773  1.00  0.00    -0.001 A 
ENDROOT
BRANCH   1  11
HETATM   11  C8  UNL     1      21.624   0.205  52.756  1.00  0.00     0.070 C 
BRANCH  11  12
HETATM   12  C7  UNL     1      20.912  -0.597  53.783  1.00  0.00     0.215 A 
HETATM   13  C6  UNL     1      19.545  -0.994  53.483  1.00  0.00     0.068 A 
HETATM   14  O1  UNL     1      19.949  -0.177  52.587  1.00  0.00    -0.349 OA
BRANCH  13  15
HETATM   15  C5  UNL     1      18.190  -1.381  53.175  1.00  0.00     0.032 C 
BRANCH  15  16
HETATM   16  C4  UNL     1      17.793  -2.506  53.741  1.00  0.00     0.005 C 
BRANCH  16  17
HETATM   17  C3  UNL     1      17.408  -3.881  53.342  1.00  0.00     0.299 C 
BRANCH  17  18
HETATM   18  N1  UNL     1      16.051  -4.221  53.636  1.00  0.00     0.083 N 
HETATM   19  C1  UNL     1      15.352  -4.396  52.375  1.00  0.00     0.309 C 
HETATM   20  C2  UNL     1      15.868  -5.350  54.494  1.00  0.00     0.309 C 
ENDBRANCH  17  18
ENDBRANCH  16  17
ENDBRANCH  15  16
ENDBRANCH  13  15
ENDBRANCH  11  12
ENDBRANCH   1  11
BRANCH   7  21
HETATM   21  C15 UNL     1      26.468   2.760  49.689  1.00  0.00     0.107 C 
BRANCH  21  22
HETATM   22  C16 UNL     1      26.733   4.091  49.170  1.00  0.00    -0.019 C 
BRANCH  22  23
HETATM   23  C17 UNL     1      27.276   5.228  48.827  1.00  0.00    -0.004 C 
HETATM   24  C18 UNL     1      28.353   5.917  48.152  1.00  0.00    -0.000 C 
BRANCH  24  25
HETATM   25  C19 UNL     1      28.238   7.263  48.207  1.00  0.00     0.001 C 
BRANCH  25  26
HETATM   26  C20 UNL     1      29.510   7.772  48.616  1.00  0.00     0.016 C 
BRANCH  26  27
HETATM   27  C21 UNL     1      28.799   8.721  49.247  1.00  0.00     0.080 C 
BRANCH  27  28
HETATM   28  N3  UNL     1      29.588   9.744  49.928  1.00  0.00    -0.408 N 
HETATM   29  H26 UNL     1      30.129  10.466  50.396  1.00  0.00     0.155 HD
HETATM   30  H27 UNL     1      30.290   9.110  50.420  1.00  0.00     0.155 HD
ENDBRANCH  27  28
ENDBRANCH  26  27
ENDBRANCH  25  26
ENDBRANCH  24  25
ENDBRANCH  22  23
ENDBRANCH  21  22
ENDBRANCH   7  21
TORSDOF 13
ENDMDL
MODEL 8
REMARK VINA RESULT:      -6.5      3.885      5.693
REMARK  13 active torsions:
REMARK  status: ('A' for Active; 'I' for Inactive)
REMARK    1  A    between atoms: N1_2  and  C3_4 
REMARK    2  A    between atoms: C3_4  and  C4_5 
REMARK    3  A    between atoms: C4_5  and  C5_6 
REMARK    4  A    between atoms: C5_6  and  C6_7 
REMARK    5  A    between atoms: C7_9  and  C8_10 
REMARK    6  A    between atoms: C8_10  and  C9_11 
REMARK    7  A    between atoms: C14_17  and  C15_18 
REMARK    8  A    between atoms: C15_18  and  C16_19 
REMARK    9  A    between atoms: C16_19  and  C17_20 
REMARK   10  A    between atoms: C18_21  and  C19_22 
REMARK   11  A    between atoms: C19_22  and  C20_23 
REMARK   12  A    between atoms: C20_23  and  C21_24 
REMARK   13  A    between atoms: C21_24  and  N3_25 
ROOT
HETATM    1  C9  UNL     1      23.048   3.965  50.349  1.00  0.00    -0.043 A 
HETATM    2  C10 UNL     1      23.120   4.119  48.990  1.00  0.00     0.009 A 
HETATM    3  C11 UNL     1      21.863   4.217  48.432  1.00  0.00     0.014 A 
HETATM    4  C12 UNL     1      20.976   4.113  49.478  1.00  0.00    -0.006 A 
HETATM    5  C13 UNL     1      19.570   4.126  49.385  1.00  0.00     0.131 C 
HETATM    6  N2  UNL     1      18.730   3.581  50.310  1.00  0.00    -0.244 NA
HETATM    7  C14 UNL     1      18.965   2.803  51.396  1.00  0.00     0.128 C 
HETATM    8  N4  UNL     1      19.830   3.471  52.229  1.00  0.00    -0.244 NA
HETATM    9  C22 UNL     1      21.149   3.798  52.004  1.00  0.00     0.131 C 
HETATM   10  C23 UNL     1      21.738   3.953  50.733  1.00  0.00    -0.001 A 
ENDROOT
BRANCH   1  11
HETATM   11  C8  UNL     1      24.153   3.835  51.361  1.00  0.00     0.070 C 
BRANCH  11  12
HETATM   12  C7  UNL     1      24.702   2.462  51.217  1.00  0.00     0.215 A 
HETATM   13  C6  UNL     1      25.017   1.743  52.442  1.00  0.00     0.068 A 
HETATM   14  O1  UNL     1      24.722   2.953  52.731  1.00  0.00    -0.349 OA
BRANCH  13  15
HETATM   15  C5  UNL     1      25.325   1.041  53.663  1.00  0.00     0.032 C 
BRANCH  15  16
HETATM   16  C4  UNL     1      26.580   0.645  53.772  1.00  0.00     0.005 C 
BRANCH  16  17
HETATM   17  C3  UNL     1      27.499   0.121  54.810  1.00  0.00     0.299 C 
BRANCH  17  18
HETATM   18  N1  UNL     1      28.863   0.511  54.640  1.00  0.00     0.083 N 
HETATM   19  C1  UNL     1      29.531  -0.525  53.871  1.00  0.00     0.309 C 
HETATM   20  C2  UNL     1      29.070   1.802  54.063  1.00  0.00     0.309 C 
ENDBRANCH  17  18
ENDBRANCH  16  17
ENDBRANCH  15  16
ENDBRANCH  13  15
ENDBRANCH  11  12
ENDBRANCH   1  11
BRANCH   7  21
HETATM   21  C15 UNL     1      18.356   1.438  51.578  1.00  0.00     0.107 C 
BRANCH  21  22
HETATM   22  C16 UNL     1      19.333   0.475  52.058  1.00  0.00    -0.019 C 
BRANCH  22  23
HETATM   23  C17 UNL     1      20.413  -0.123  52.484  1.00  0.00    -0.004 C 
HETATM   24  C18 UNL     1      21.840  -0.062  52.706  1.00  0.00    -0.000 C 
BRANCH  24  25
HETATM   25  C19 UNL     1      22.338  -1.192  53.258  1.00  0.00     0.001 C 
BRANCH  25  26
HETATM   26  C20 UNL     1      21.558  -1.463  54.426  1.00  0.00     0.016 C 
BRANCH  26  27
HETATM   27  C21 UNL     1      22.568  -0.883  55.094  1.00  0.00     0.080 C 
BRANCH  27  28
HETATM   28  N3  UNL     1      23.441  -1.800  55.825  1.00  0.00    -0.408 N 
HETATM   29  H26 UNL     1      24.054  -2.426  56.338  1.00  0.00     0.155 HD
HETATM   30  H27 UNL     1      22.997  -2.722  55.527  1.00  0.00     0.155 HD
ENDBRANCH  27  28
ENDBRANCH  26  27
ENDBRANCH  25  26
ENDBRANCH  24  25
ENDBRANCH  22  23
ENDBRANCH  21  22
ENDBRANCH   7  21
TORSDOF 13
ENDMDL
MODEL 9
REMARK VINA RESULT:      -6.5      1.755      2.147
REMARK  13 active torsions:
REMARK  status: ('A' for Active; 'I' for Inactive)
REMARK    1  A    between atoms: N1_2  and  C3_4 
REMARK    2  A    between atoms: C3_4  and  C4_5 
REMARK    3  A    between atoms: C4_5  and  C5_6 
REMARK    4  A    between atoms: C5_6  and  C6_7 
REMARK    5  A    between atoms: C7_9  and  C8_10 
REMARK    6  A    between atoms: C8_10  and  C9_11 
REMARK    7  A    between atoms: C14_17  and  C15_18 
REMARK    8  A    between atoms: C15_18  and  C16_19 
REMARK    9  A    between atoms: C16_19  and  C17_20 
REMARK   10  A    between atoms: C18_21  and  C19_22 
REMARK   11  A    between atoms: C19_22  and  C20_23 
REMARK   12  A    between atoms: C20_23  and  C21_24 
REMARK   13  A    between atoms: C21_24  and  N3_25 
ROOT
HETATM    1  C9  UNL     1      24.206   5.413  49.313  1.00  0.00    -0.043 A 
HETATM    2  C10 UNL     1      23.450   5.511  48.176  1.00  0.00     0.009 A 
HETATM    3  C11 UNL     1      22.173   5.032  48.382  1.00  0.00     0.014 A 
HETATM    4  C12 UNL     1      22.133   4.616  49.692  1.00  0.00    -0.006 A 
HETATM    5  C13 UNL     1      21.035   4.022  50.346  1.00  0.00     0.131 C 
HETATM    6  N2  UNL     1      21.132   3.219  51.444  1.00  0.00    -0.244 NA
HETATM    7  C14 UNL     1      22.204   2.675  52.073  1.00  0.00     0.128 C 
HETATM    8  N4  UNL     1      23.048   3.692  52.449  1.00  0.00    -0.244 NA
HETATM    9  C22 UNL     1      23.776   4.539  51.643  1.00  0.00     0.131 C 
HETATM   10  C23 UNL     1      23.451   4.863  50.309  1.00  0.00    -0.001 A 
ENDROOT
BRANCH   1  11
HETATM   11  C8  UNL     1      25.632   5.822  49.557  1.00  0.00     0.070 C 
BRANCH  11  12
HETATM   12  C7  UNL     1      26.485   4.743  48.997  1.00  0.00     0.215 A 
HETATM   13  C6  UNL     1      27.828   5.111  48.577  1.00  0.00     0.068 A 
HETATM   14  O1  UNL     1      27.176   6.171  48.870  1.00  0.00    -0.349 OA
BRANCH  13  15
HETATM   15  C5  UNL     1      29.158   5.488  48.164  1.00  0.00     0.032 C 
BRANCH  15  16
HETATM   16  C4  UNL     1      29.291   6.755  47.819  1.00  0.00     0.005 C 
BRANCH  16  17
HETATM   17  C3  UNL     1      30.371   7.712  47.481  1.00  0.00     0.299 C 
BRANCH  17  18
HETATM   18  N1  UNL     1      30.762   8.565  48.559  1.00  0.00     0.083 N 
HETATM   19  C1  UNL     1      29.554   9.037  49.215  1.00  0.00     0.309 C 
HETATM   20  C2  UNL     1      31.675   7.994  49.499  1.00  0.00     0.309 C 
ENDBRANCH  17  18
ENDBRANCH  16  17
ENDBRANCH  15  16
ENDBRANCH  13  15
ENDBRANCH  11  12
ENDBRANCH   1  11
BRANCH   7  21
HETATM   21  C15 UNL     1      22.376   1.192  52.272  1.00  0.00     0.107 C 
BRANCH  21  22
HETATM   22  C16 UNL     1      23.779   0.819  52.328  1.00  0.00    -0.019 C 
BRANCH  22  23
HETATM   23  C17 UNL     1      25.076   0.802  52.476  1.00  0.00    -0.004 C 
HETATM   24  C18 UNL     1      26.295   0.025  52.515  1.00  0.00    -0.000 C 
BRANCH  24  25
HETATM   25  C19 UNL     1      27.397   0.778  52.732  1.00  0.00     0.001 C 
BRANCH  25  26
HETATM   26  C20 UNL     1      27.994   0.301  53.942  1.00  0.00     0.016 C 
BRANCH  26  27
HETATM   27  C21 UNL     1      28.829   1.345  53.805  1.00  0.00     0.080 C 
BRANCH  27  28
HETATM   28  N3  UNL     1      28.193   2.660  53.836  1.00  0.00    -0.408 N 
HETATM   29  H26 UNL     1      27.764   3.581  53.856  1.00  0.00     0.155 HD
HETATM   30  H27 UNL     1      27.197   2.356  54.062  1.00  0.00     0.155 HD
ENDBRANCH  27  28
ENDBRANCH  26  27
ENDBRANCH  25  26
ENDBRANCH  24  25
ENDBRANCH  22  23
ENDBRANCH  21  22
ENDBRANCH   7  21
TORSDOF 13
ENDMDL
