MODEL 1
REMARK VINA RESULT:      -7.9      0.000      0.000
REMARK  7 active torsions:
REMARK  status: ('A' for Active; 'I' for Inactive)
REMARK    1  A    between atoms: C2_2  and  C3_3 
REMARK    2  A    between atoms: C4_5  and  C5_6 
REMARK    3  A    between atoms: C5_6  and  C6_7 
REMARK    4  A    between atoms: C7_9  and  N2_10 
REMARK    5  A    between atoms: N2_10  and  C8_11 
REMARK    6  A    between atoms: C12_15  and  N3_16 
REMARK    7  A    between atoms: N6_23  and  C17_24 
ROOT
HETATM    1  C6  UNL     1      24.347   2.705  51.512  1.00  0.00     0.089 A 
HETATM    2  N1  UNL     1      25.279   1.893  52.060  1.00  0.00    -0.065 NA
HETATM    3  C7  UNL     1      26.575   1.978  51.707  1.00  0.00     0.725 A 
HETATM    4  N4  UNL     1      27.060   2.854  50.795  1.00  0.00    -0.043 NA
HETATM    5  C14 UNL     1      26.160   3.697  50.210  1.00  0.00     0.181 A 
HETATM    6  C15 UNL     1      24.839   3.599  50.583  1.00  0.00     0.130 A 
HETATM    7  N5  UNL     1      24.158   4.520  49.881  1.00  0.00    -0.238 NA
HETATM    8  C16 UNL     1      25.030   5.181  49.085  1.00  0.00     0.212 A 
HETATM    9  N6  UNL     1      26.269   4.681  49.282  1.00  0.00    -0.324 N 
ENDROOT
BRANCH   3  10
HETATM   10  N2  UNL     1      27.519   1.094  52.317  1.00  0.00    -0.218 N 
HETATM   11  H7  UNL     1      28.411   0.842  51.798  1.00  0.00     0.178 HD
BRANCH  10  12
HETATM   12  C8  UNL     1      27.383   0.485  53.615  1.00  0.00     0.101 C 
HETATM   13  C9  UNL     1      28.586   0.713  54.514  1.00  0.00     0.026 C 
HETATM   14  C10 UNL     1      29.819   0.190  53.859  1.00  0.00     0.004 C 
HETATM   15  C11 UNL     1      29.652  -1.157  53.226  1.00  0.00     0.035 C 
HETATM   16  C12 UNL     1      28.374  -1.842  53.638  1.00  0.00     0.220 C 
HETATM   17  C13 UNL     1      27.162  -0.997  53.411  1.00  0.00     0.060 C 
BRANCH  16  18
HETATM   18  N3  UNL     1      28.270  -3.030  52.794  1.00  0.00     0.083 N 
HETATM   19  H16 UNL     1      28.688  -2.914  51.864  1.00  0.00     0.313 HD
HETATM   20  H17 UNL     1      28.671  -3.839  53.353  1.00  0.00     0.313 HD
ENDBRANCH  16  18
ENDBRANCH  10  12
ENDBRANCH   3  10
BRANCH   1  21
HETATM   21  C5  UNL     1      22.914   2.627  51.904  1.00  0.00     0.091 C 
BRANCH  21  22
HETATM   22  C4  UNL     1      22.655   1.591  52.899  1.00  0.00     0.003 C 
HETATM   23  C3  UNL     1      21.939   0.519  52.640  1.00  0.00     0.026 C 
HETATM   24 CL1  UNL     1      21.191   0.169  51.106  1.00  0.00    -0.085 Cl
BRANCH  23  25
HETATM   25  C2  UNL     1      21.815  -0.373  53.776  1.00  0.00    -0.003 C 
HETATM   26  C1  UNL     1      22.163  -1.117  54.796  1.00  0.00     0.032 C 
ENDBRANCH  23  25
ENDBRANCH  21  22
ENDBRANCH   1  21
BRANCH   9  27
HETATM   27  C17 UNL     1      27.486   5.118  48.620  1.00  0.00     0.127 C 
HETATM   28  C18 UNL     1      27.377   6.597  48.284  1.00  0.00     0.027 C 
ENDBRANCH   9  27
TORSDOF 7
ENDMDL
MODEL 2
REMARK VINA RESULT:      -7.8      2.676      7.355
REMARK  7 active torsions:
REMARK  status: ('A' for Active; 'I' for Inactive)
REMARK    1  A    between atoms: C2_2  and  C3_3 
REMARK    2  A    between atoms: C4_5  and  C5_6 
REMARK    3  A    between atoms: C5_6  and  C6_7 
REMARK    4  A    between atoms: C7_9  and  N2_10 
REMARK    5  A    between atoms: N2_10  and  C8_11 
REMARK    6  A    between atoms: C12_15  and  N3_16 
REMARK    7  A    between atoms: N6_23  and  C17_24 
ROOT
HETATM    1  C6  UNL     1      24.103  -0.056  53.692  1.00  0.00     0.089 A 
HETATM    2  N1  UNL     1      24.419   0.987  52.893  1.00  0.00    -0.065 NA
HETATM    3  C7  UNL     1      23.482   1.617  52.161  1.00  0.00     0.725 A 
HETATM    4  N4  UNL     1      22.170   1.280  52.151  1.00  0.00    -0.043 NA
HETATM    5  C14 UNL     1      21.796   0.232  52.941  1.00  0.00     0.181 A 
HETATM    6  C15 UNL     1      22.767  -0.402  53.683  1.00  0.00     0.130 A 
HETATM    7  N5  UNL     1      22.163  -1.386  54.370  1.00  0.00    -0.238 NA
HETATM    8  C16 UNL     1      20.845  -1.372  54.066  1.00  0.00     0.212 A 
HETATM    9  N6  UNL     1      20.609  -0.376  53.185  1.00  0.00    -0.324 N 
ENDROOT
BRANCH   3  10
HETATM   10  N2  UNL     1      23.871   2.715  51.332  1.00  0.00    -0.218 N 
HETATM   11  H7  UNL     1      24.900   2.870  51.118  1.00  0.00     0.178 HD
BRANCH  10  12
HETATM   12  C8  UNL     1      22.979   3.673  50.731  1.00  0.00     0.101 C 
HETATM   13  C9  UNL     1      23.310   3.974  49.280  1.00  0.00     0.026 C 
HETATM   14  C10 UNL     1      24.709   4.479  49.171  1.00  0.00     0.004 C 
HETATM   15  C11 UNL     1      25.076   5.495  50.208  1.00  0.00     0.035 C 
HETATM   16  C12 UNL     1      23.881   6.025  50.957  1.00  0.00     0.220 C 
HETATM   17  C13 UNL     1      23.040   4.942  51.552  1.00  0.00     0.060 C 
BRANCH  16  18
HETATM   18  N3  UNL     1      24.421   6.837  52.045  1.00  0.00     0.083 N 
HETATM   19  H16 UNL     1      25.178   6.380  52.565  1.00  0.00     0.313 HD
HETATM   20  H17 UNL     1      24.687   7.775  51.624  1.00  0.00     0.313 HD
ENDBRANCH  16  18
ENDBRANCH  10  12
ENDBRANCH   3  10
BRANCH   1  21
HETATM   21  C5  UNL     1      25.129  -0.752  54.513  1.00  0.00     0.091 C 
BRANCH  21  22
HETATM   22  C4  UNL     1      26.483  -0.272  54.253  1.00  0.00     0.003 C 
HETATM   23  C3  UNL     1      27.290  -0.848  53.390  1.00  0.00     0.026 C 
HETATM   24 CL1  UNL     1      26.890  -2.253  52.440  1.00  0.00    -0.085 Cl
BRANCH  23  25
HETATM   25  C2  UNL     1      28.583  -0.200  53.295  1.00  0.00    -0.003 C 
HETATM   26  C1  UNL     1      29.825   0.109  53.575  1.00  0.00     0.032 C 
ENDBRANCH  23  25
ENDBRANCH  21  22
ENDBRANCH   1  21
BRANCH   9  27
HETATM   27  C17 UNL     1      19.321  -0.027  52.609  1.00  0.00     0.127 C 
HETATM   28  C18 UNL     1      18.280  -1.050  53.038  1.00  0.00     0.027 C 
ENDBRANCH   9  27
TORSDOF 7
ENDMDL
MODEL 3
REMARK VINA RESULT:      -7.8      1.968      6.040
REMARK  7 active torsions:
REMARK  status: ('A' for Active; 'I' for Inactive)
REMARK    1  A    between atoms: C2_2  and  C3_3 
REMARK    2  A    between atoms: C4_5  and  C5_6 
REMARK    3  A    between atoms: C5_6  and  C6_7 
REMARK    4  A    between atoms: C7_9  and  N2_10 
REMARK    5  A    between atoms: N2_10  and  C8_11 
REMARK    6  A    between atoms: C12_15  and  N3_16 
REMARK    7  A    between atoms: N6_23  and  C17_24 
ROOT
HETATM    1  C6  UNL     1      24.295   0.234  53.075  1.00  0.00     0.089 A 
HETATM    2  N1  UNL     1      24.159   1.135  52.077  1.00  0.00    -0.065 NA
HETATM    3  C7  UNL     1      25.188   1.913  51.692  1.00  0.00     0.725 A 
HETATM    4  N4  UNL     1      26.421   1.874  52.248  1.00  0.00    -0.043 NA
HETATM    5  C14 UNL     1      26.614   0.981  53.262  1.00  0.00     0.181 A 
HETATM    6  C15 UNL     1      25.552   0.192  53.644  1.00  0.00     0.130 A 
HETATM    7  N5  UNL     1      25.981  -0.595  54.644  1.00  0.00    -0.238 NA
HETATM    8  C16 UNL     1      27.281  -0.307  54.887  1.00  0.00     0.212 A 
HETATM    9  N6  UNL     1      27.680   0.664  54.038  1.00  0.00    -0.324 N 
ENDROOT
BRANCH   3  10
HETATM   10  N2  UNL     1      24.989   2.851  50.631  1.00  0.00    -0.218 N 
HETATM   11  H7  UNL     1      25.783   3.053  49.954  1.00  0.00     0.178 HD
BRANCH  10  12
HETATM   12  C8  UNL     1      23.775   3.582  50.371  1.00  0.00     0.101 C 
HETATM   13  C9  UNL     1      23.776   4.290  49.028  1.00  0.00     0.026 C 
HETATM   14  C10 UNL     1      24.934   5.227  48.947  1.00  0.00     0.004 C 
HETATM   15  C11 UNL     1      25.146   6.047  50.181  1.00  0.00     0.035 C 
HETATM   16  C12 UNL     1      23.979   5.985  51.132  1.00  0.00     0.220 C 
HETATM   17  C13 UNL     1      23.590   4.586  51.487  1.00  0.00     0.060 C 
BRANCH  16  18
HETATM   18  N3  UNL     1      24.421   6.662  52.350  1.00  0.00     0.083 N 
HETATM   19  H16 UNL     1      23.775   7.391  52.674  1.00  0.00     0.313 HD
HETATM   20  H17 UNL     1      24.619   5.905  53.067  1.00  0.00     0.313 HD
ENDBRANCH  16  18
ENDBRANCH  10  12
ENDBRANCH   3  10
BRANCH   1  21
HETATM   21  C5  UNL     1      23.169  -0.639  53.500  1.00  0.00     0.091 C 
BRANCH  21  22
HETATM   22  C4  UNL     1      21.969  -0.448  52.692  1.00  0.00     0.003 C 
HETATM   23  C3  UNL     1      20.838   0.001  53.190  1.00  0.00     0.026 C 
HETATM   24 CL1  UNL     1      20.587   0.427  54.861  1.00  0.00    -0.085 Cl
BRANCH  23  25
HETATM   25  C2  UNL     1      19.782   0.112  52.203  1.00  0.00    -0.003 C 
HETATM   26  C1  UNL     1      18.593   0.016  51.661  1.00  0.00     0.032 C 
ENDBRANCH  23  25
ENDBRANCH  21  22
ENDBRANCH   1  21
BRANCH   9  27
HETATM   27  C17 UNL     1      29.006   1.255  53.973  1.00  0.00     0.127 C 
HETATM   28  C18 UNL     1      30.011   0.201  53.535  1.00  0.00     0.027 C 
ENDBRANCH   9  27
TORSDOF 7
ENDMDL
MODEL 4
REMARK VINA RESULT:      -7.7      2.986      5.804
REMARK  7 active torsions:
REMARK  status: ('A' for Active; 'I' for Inactive)
REMARK    1  A    between atoms: C2_2  and  C3_3 
REMARK    2  A    between atoms: C4_5  and  C5_6 
REMARK    3  A    between atoms: C5_6  and  C6_7 
REMARK    4  A    between atoms: C7_9  and  N2_10 
REMARK    5  A    between atoms: N2_10  and  C8_11 
REMARK    6  A    between atoms: C12_15  and  N3_16 
REMARK    7  A    between atoms: N6_23  and  C17_24 
ROOT
HETATM    1  C6  UNL     1      26.079   4.350  49.495  1.00  0.00     0.089 A 
HETATM    2  N1  UNL     1      26.805   3.603  50.357  1.00  0.00    -0.065 NA
HETATM    3  C7  UNL     1      26.234   2.636  51.097  1.00  0.00     0.725 A 
HETATM    4  N4  UNL     1      24.917   2.324  51.057  1.00  0.00    -0.043 NA
HETATM    5  C14 UNL     1      24.137   3.048  50.203  1.00  0.00     0.181 A 
HETATM    6  C15 UNL     1      24.736   4.033  49.451  1.00  0.00     0.130 A 
HETATM    7  N5  UNL     1      23.777   4.597  48.698  1.00  0.00    -0.238 NA
HETATM    8  C16 UNL     1      22.603   3.981  48.970  1.00  0.00     0.212 A 
HETATM    9  N6  UNL     1      22.816   3.023  49.897  1.00  0.00    -0.324 N 
ENDROOT
BRANCH   3  10
HETATM   10  N2  UNL     1      27.049   1.877  51.995  1.00  0.00    -0.218 N 
HETATM   11  H7  UNL     1      27.519   0.988  51.650  1.00  0.00     0.178 HD
BRANCH  10  12
HETATM   12  C8  UNL     1      27.311   2.203  53.373  1.00  0.00     0.101 C 
HETATM   13  C9  UNL     1      28.751   1.956  53.785  1.00  0.00     0.026 C 
HETATM   14  C10 UNL     1      29.112   0.528  53.547  1.00  0.00     0.004 C 
HETATM   15  C11 UNL     1      28.068  -0.449  53.993  1.00  0.00     0.035 C 
HETATM   16  C12 UNL     1      27.010   0.180  54.860  1.00  0.00     0.220 C 
HETATM   17  C13 UNL     1      26.377   1.379  54.230  1.00  0.00     0.060 C 
BRANCH  16  18
HETATM   18  N3  UNL     1      25.981  -0.843  55.039  1.00  0.00     0.083 N 
HETATM   19  H16 UNL     1      25.320  -0.635  55.796  1.00  0.00     0.313 HD
HETATM   20  H17 UNL     1      25.526  -0.988  54.091  1.00  0.00     0.313 HD
ENDBRANCH  16  18
ENDBRANCH  10  12
ENDBRANCH   3  10
BRANCH   1  21
HETATM   21  C5  UNL     1      26.702   5.413  48.663  1.00  0.00     0.091 C 
BRANCH  21  22
HETATM   22  C4  UNL     1      28.137   5.219  48.478  1.00  0.00     0.003 C 
HETATM   23  C3  UNL     1      28.918   6.138  47.954  1.00  0.00     0.026 C 
HETATM   24 CL1  UNL     1      28.383   7.700  47.399  1.00  0.00    -0.085 Cl
BRANCH  23  25
HETATM   25  C2  UNL     1      30.306   5.727  47.869  1.00  0.00    -0.003 C 
HETATM   26  C1  UNL     1      31.352   4.982  47.613  1.00  0.00     0.032 C 
ENDBRANCH  23  25
ENDBRANCH  21  22
ENDBRANCH   1  21
BRANCH   9  27
HETATM   27  C17 UNL     1      21.811   2.135  50.459  1.00  0.00     0.127 C 
HETATM   28  C18 UNL     1      21.559   0.983  49.499  1.00  0.00     0.027 C 
ENDBRANCH   9  27
TORSDOF 7
ENDMDL
MODEL 5
REMARK VINA RESULT:      -7.4      2.370      5.922
REMARK  7 active torsions:
REMARK  status: ('A' for Active; 'I' for Inactive)
REMARK    1  A    between atoms: C2_2  and  C3_3 
REMARK    2  A    between atoms: C4_5  and  C5_6 
REMARK    3  A    between atoms: C5_6  and  C6_7 
REMARK    4  A    between atoms: C7_9  and  N2_10 
REMARK    5  A    between atoms: N2_10  and  C8_11 
REMARK    6  A    between atoms: C12_15  and  N3_16 
REMARK    7  A    between atoms: N6_23  and  C17_24 
ROOT
HETATM    1  C6  UNL     1      24.127   0.243  53.280  1.00  0.00     0.089 A 
HETATM    2  N1  UNL     1      23.797   1.536  53.059  1.00  0.00    -0.065 NA
HETATM    3  C7  UNL     1      24.738   2.493  52.974  1.00  0.00     0.725 A 
HETATM    4  N4  UNL     1      26.067   2.268  53.099  1.00  0.00    -0.043 NA
HETATM    5  C14 UNL     1      26.456   0.979  53.324  1.00  0.00     0.181 A 
HETATM    6  C15 UNL     1      25.482   0.010  53.408  1.00  0.00     0.130 A 
HETATM    7  N5  UNL     1      26.102  -1.160  53.629  1.00  0.00    -0.238 NA
HETATM    8  C16 UNL     1      27.435  -0.934  53.684  1.00  0.00     0.212 A 
HETATM    9  N6  UNL     1      27.663   0.384  53.496  1.00  0.00    -0.324 N 
ENDROOT
BRANCH   3  10
HETATM   10  N2  UNL     1      24.333   3.845  52.740  1.00  0.00    -0.218 N 
HETATM   11  H7  UNL     1      24.155   4.489  53.566  1.00  0.00     0.178 HD
BRANCH  10  12
HETATM   12  C8  UNL     1      24.132   4.451  51.449  1.00  0.00     0.101 C 
HETATM   13  C9  UNL     1      22.975   5.434  51.421  1.00  0.00     0.026 C 
HETATM   14  C10 UNL     1      21.716   4.751  51.838  1.00  0.00     0.004 C 
HETATM   15  C11 UNL     1      21.517   3.403  51.219  1.00  0.00     0.035 C 
HETATM   16  C12 UNL     1      22.462   3.138  50.077  1.00  0.00     0.220 C 
HETATM   17  C13 UNL     1      23.896   3.342  50.448  1.00  0.00     0.060 C 
BRANCH  16  18
HETATM   18  N3  UNL     1      22.275   1.732  49.723  1.00  0.00     0.083 N 
HETATM   19  H16 UNL     1      21.374   1.347  50.028  1.00  0.00     0.313 HD
HETATM   20  H17 UNL     1      22.452   1.652  48.679  1.00  0.00     0.313 HD
ENDBRANCH  16  18
ENDBRANCH  10  12
ENDBRANCH   3  10
BRANCH   1  21
HETATM   21  C5  UNL     1      23.095  -0.825  53.365  1.00  0.00     0.091 C 
BRANCH  21  22
HETATM   22  C4  UNL     1      21.880  -0.496  52.627  1.00  0.00     0.003 C 
HETATM   23  C3  UNL     1      20.815   0.019  53.203  1.00  0.00     0.026 C 
HETATM   24 CL1  UNL     1      20.680   0.379  54.902  1.00  0.00    -0.085 Cl
BRANCH  23  25
HETATM   25  C2  UNL     1      19.728   0.265  52.277  1.00  0.00    -0.003 C 
HETATM   26  C1  UNL     1      19.062   0.313  51.149  1.00  0.00     0.032 C 
ENDBRANCH  23  25
ENDBRANCH  21  22
ENDBRANCH   1  21
BRANCH   9  27
HETATM   27  C17 UNL     1      28.962   1.037  53.483  1.00  0.00     0.127 C 
HETATM   28  C18 UNL     1      30.058  -0.016  53.548  1.00  0.00     0.027 C 
ENDBRANCH   9  27
TORSDOF 7
ENDMDL
MODEL 6
REMARK VINA RESULT:      -7.4      2.595      5.723
REMARK  7 active torsions:
REMARK  status: ('A' for Active; 'I' for Inactive)
REMARK    1  A    between atoms: C2_2  and  C3_3 
REMARK    2  A    between atoms: C4_5  and  C5_6 
REMARK    3  A    between atoms: C5_6  and  C6_7 
REMARK    4  A    between atoms: C7_9  and  N2_10 
REMARK    5  A    between atoms: N2_10  and  C8_11 
REMARK    6  A    between atoms: C12_15  and  N3_16 
REMARK    7  A    between atoms: N6_23  and  C17_24 
ROOT
HETATM    1  C6  UNL     1      22.957   4.211  52.003  1.00  0.00     0.089 A 
HETATM    2  N1  UNL     1      24.202   3.879  52.413  1.00  0.00    -0.065 NA
HETATM    3  C7  UNL     1      24.470   2.661  52.919  1.00  0.00     0.725 A 
HETATM    4  N4  UNL     1      23.551   1.678  53.065  1.00  0.00    -0.043 NA
HETATM    5  C14 UNL     1      22.277   1.960  52.666  1.00  0.00     0.181 A 
HETATM    6  C15 UNL     1      22.018   3.210  52.150  1.00  0.00     0.130 A 
HETATM    7  N5  UNL     1      20.714   3.247  51.833  1.00  0.00    -0.238 NA
HETATM    8  C16 UNL     1      20.164   2.050  52.142  1.00  0.00     0.212 A 
HETATM    9  N6  UNL     1      21.122   1.249  52.657  1.00  0.00    -0.324 N 
ENDROOT
BRANCH   3  10
HETATM   10  N2  UNL     1      25.805   2.363  53.339  1.00  0.00    -0.218 N 
HETATM   11  H7  UNL     1      26.079   2.511  54.355  1.00  0.00     0.178 HD
BRANCH  10  12
HETATM   12  C8  UNL     1      26.860   1.865  52.495  1.00  0.00     0.101 C 
HETATM   13  C9  UNL     1      26.884   0.350  52.396  1.00  0.00     0.026 C 
HETATM   14  C10 UNL     1      27.025  -0.248  53.755  1.00  0.00     0.004 C 
HETATM   15  C11 UNL     1      28.051   0.423  54.616  1.00  0.00     0.035 C 
HETATM   16  C12 UNL     1      28.941   1.360  53.841  1.00  0.00     0.220 C 
HETATM   17  C13 UNL     1      28.174   2.369  53.048  1.00  0.00     0.060 C 
BRANCH  16  18
HETATM   18  N3  UNL     1      29.737   2.070  54.841  1.00  0.00     0.083 N 
HETATM   19  H16 UNL     1      29.249   2.865  55.268  1.00  0.00     0.313 HD
HETATM   20  H17 UNL     1      30.075   1.342  55.536  1.00  0.00     0.313 HD
ENDBRANCH  16  18
ENDBRANCH  10  12
ENDBRANCH   3  10
BRANCH   1  21
HETATM   21  C5  UNL     1      22.652   5.550  51.432  1.00  0.00     0.091 C 
BRANCH  21  22
HETATM   22  C4  UNL     1      23.852   6.336  51.161  1.00  0.00     0.003 C 
HETATM   23  C3  UNL     1      24.470   6.314  50.000  1.00  0.00     0.026 C 
HETATM   24 CL1  UNL     1      23.976   5.360  48.628  1.00  0.00    -0.085 Cl
BRANCH  23  25
HETATM   25  C2  UNL     1      25.637   7.172  49.958  1.00  0.00    -0.003 C 
HETATM   26  C1  UNL     1      26.408   8.208  50.179  1.00  0.00     0.032 C 
ENDBRANCH  23  25
ENDBRANCH  21  22
ENDBRANCH   1  21
BRANCH   9  27
HETATM   27  C17 UNL     1      20.942  -0.119  53.114  1.00  0.00     0.127 C 
HETATM   28  C18 UNL     1      21.041  -0.164  54.631  1.00  0.00     0.027 C 
ENDBRANCH   9  27
TORSDOF 7
ENDMDL
MODEL 7
REMARK VINA RESULT:      -7.3      4.520      7.070
REMARK  7 active torsions:
REMARK  status: ('A' for Active; 'I' for Inactive)
REMARK    1  A    between atoms: C2_2  and  C3_3 
REMARK    2  A    between atoms: C4_5  and  C5_6 
REMARK    3  A    between atoms: C5_6  and  C6_7 
REMARK    4  A    between atoms: C7_9  and  N2_10 
REMARK    5  A    between atoms: N2_10  and  C8_11 
REMARK    6  A    between atoms: C12_15  and  N3_16 
REMARK    7  A    between atoms: N6_23  and  C17_24 
ROOT
HETATM    1  C6  UNL     1      27.882   5.754  48.497  1.00  0.00     0.089 A 
HETATM    2  N1  UNL     1      29.014   5.050  48.268  1.00  0.00    -0.065 NA
HETATM    3  C7  UNL     1      30.178   5.668  47.995  1.00  0.00     0.725 A 
HETATM    4  N4  UNL     1      30.329   7.011  47.922  1.00  0.00    -0.043 NA
HETATM    5  C14 UNL     1      29.216   7.770  48.145  1.00  0.00     0.181 A 
HETATM    6  C15 UNL     1      28.033   7.124  48.424  1.00  0.00     0.130 A 
HETATM    7  N5  UNL     1      27.097   8.070  48.603  1.00  0.00    -0.238 NA
HETATM    8  C16 UNL     1      27.676   9.281  48.440  1.00  0.00     0.212 A 
HETATM    9  N6  UNL     1      28.985   9.106  48.157  1.00  0.00    -0.324 N 
ENDROOT
BRANCH   3  10
HETATM   10  N2  UNL     1      31.345   4.875  47.760  1.00  0.00    -0.218 N 
HETATM   11  H7  UNL     1      31.439   3.929  48.235  1.00  0.00     0.178 HD
BRANCH  10  12
HETATM   12  C8  UNL     1      32.452   5.238  46.913  1.00  0.00     0.101 C 
HETATM   13  C9  UNL     1      32.826   4.156  45.916  1.00  0.00     0.026 C 
HETATM   14  C10 UNL     1      33.159   2.893  46.636  1.00  0.00     0.004 C 
HETATM   15  C11 UNL     1      34.035   3.085  47.836  1.00  0.00     0.035 C 
HETATM   16  C12 UNL     1      34.647   4.460  47.899  1.00  0.00     0.220 C 
HETATM   17  C13 UNL     1      33.633   5.554  47.803  1.00  0.00     0.060 C 
BRANCH  16  18
HETATM   18  N3  UNL     1      35.295   4.548  49.206  1.00  0.00     0.083 N 
HETATM   19  H16 UNL     1      35.067   3.769  49.833  1.00  0.00     0.313 HD
HETATM   20  H17 UNL     1      36.334   4.671  49.025  1.00  0.00     0.313 HD
ENDBRANCH  16  18
ENDBRANCH  10  12
ENDBRANCH   3  10
BRANCH   1  21
HETATM   21  C5  UNL     1      26.593   5.082  48.811  1.00  0.00     0.091 C 
BRANCH  21  22
HETATM   22  C4  UNL     1      26.749   3.961  49.732  1.00  0.00     0.003 C 
HETATM   23  C3  UNL     1      25.733   3.246  50.163  1.00  0.00     0.026 C 
HETATM   24 CL1  UNL     1      24.069   3.516  49.721  1.00  0.00    -0.085 Cl
BRANCH  23  25
HETATM   25  C2  UNL     1      26.123   2.185  51.068  1.00  0.00    -0.003 C 
HETATM   26  C1  UNL     1      26.865   1.480  51.886  1.00  0.00     0.032 C 
ENDBRANCH  23  25
ENDBRANCH  21  22
ENDBRANCH   1  21
BRANCH   9  27
HETATM   27  C17 UNL     1      29.958  10.158  47.913  1.00  0.00     0.127 C 
HETATM   28  C18 UNL     1      30.625  10.545  49.224  1.00  0.00     0.027 C 
ENDBRANCH   9  27
TORSDOF 7
ENDMDL
MODEL 8
REMARK VINA RESULT:      -7.3      2.477      5.760
REMARK  7 active torsions:
REMARK  status: ('A' for Active; 'I' for Inactive)
REMARK    1  A    between atoms: C2_2  and  C3_3 
REMARK    2  A    between atoms: C4_5  and  C5_6 
REMARK    3  A    between atoms: C5_6  and  C6_7 
REMARK    4  A    between atoms: C7_9  and  N2_10 
REMARK    5  A    between atoms: N2_10  and  C8_11 
REMARK    6  A    between atoms: C12_15  and  N3_16 
REMARK    7  A    between atoms: N6_23  and  C17_24 
ROOT
HETATM    1  C6  UNL     1      22.636   1.808  50.435  1.00  0.00     0.089 A 
HETATM    2  N1  UNL     1      23.878   2.045  50.914  1.00  0.00    -0.065 NA
HETATM    3  C7  UNL     1      24.221   1.699  52.169  1.00  0.00     0.725 A 
HETATM    4  N4  UNL     1      23.385   1.100  53.049  1.00  0.00    -0.043 NA
HETATM    5  C14 UNL     1      22.117   0.838  52.616  1.00  0.00     0.181 A 
HETATM    6  C15 UNL     1      21.781   1.196  51.330  1.00  0.00     0.130 A 
HETATM    7  N5  UNL     1      20.501   0.840  51.140  1.00  0.00    -0.238 NA
HETATM    8  C16 UNL     1      20.041   0.272  52.278  1.00  0.00     0.212 A 
HETATM    9  N6  UNL     1      21.032   0.265  53.195  1.00  0.00    -0.324 N 
ENDROOT
BRANCH   3  10
HETATM   10  N2  UNL     1      25.548   1.974  52.625  1.00  0.00    -0.218 N 
HETATM   11  H7  UNL     1      25.691   2.600  53.472  1.00  0.00     0.178 HD
BRANCH  10  12
HETATM   12  C8  UNL     1      26.762   1.471  52.034  1.00  0.00     0.101 C 
HETATM   13  C9  UNL     1      26.823  -0.045  51.987  1.00  0.00     0.026 C 
HETATM   14  C10 UNL     1      26.685  -0.604  53.364  1.00  0.00     0.004 C 
HETATM   15  C11 UNL     1      27.502   0.108  54.398  1.00  0.00     0.035 C 
HETATM   16  C12 UNL     1      28.522   1.040  53.797  1.00  0.00     0.220 C 
HETATM   17  C13 UNL     1      27.926   2.013  52.833  1.00  0.00     0.060 C 
BRANCH  16  18
HETATM   18  N3  UNL     1      29.085   1.789  54.919  1.00  0.00     0.083 N 
HETATM   19  H16 UNL     1      29.958   1.393  55.284  1.00  0.00     0.313 HD
HETATM   20  H17 UNL     1      29.164   2.800  54.603  1.00  0.00     0.313 HD
ENDBRANCH  16  18
ENDBRANCH  10  12
ENDBRANCH   3  10
BRANCH   1  21
HETATM   21  C5  UNL     1      22.250   2.175  49.046  1.00  0.00     0.091 C 
BRANCH  21  22
HETATM   22  C4  UNL     1      22.957   3.354  48.556  1.00  0.00     0.003 C 
HETATM   23  C3  UNL     1      22.527   4.579  48.762  1.00  0.00     0.026 C 
HETATM   24 CL1  UNL     1      21.073   4.990  49.628  1.00  0.00    -0.085 Cl
BRANCH  23  25
HETATM   25  C2  UNL     1      23.389   5.592  48.186  1.00  0.00    -0.003 C 
HETATM   26  C1  UNL     1      24.167   6.643  48.109  1.00  0.00     0.032 C 
ENDBRANCH  23  25
ENDBRANCH  21  22
ENDBRANCH   1  21
BRANCH   9  27
HETATM   27  C17 UNL     1      20.946  -0.259  54.548  1.00  0.00     0.127 C 
HETATM   28  C18 UNL     1      21.608  -1.626  54.605  1.00  0.00     0.027 C 
ENDBRANCH   9  27
TORSDOF 7
ENDMDL
MODEL 9
REMARK VINA RESULT:      -7.1      2.607      7.192
REMARK  7 active torsions:
REMARK  status: ('A' for Active; 'I' for Inactive)
REMARK    1  A    between atoms: C2_2  and  C3_3 
REMARK    2  A    between atoms: C4_5  and  C5_6 
REMARK    3  A    between atoms: C5_6  and  C6_7 
REMARK    4  A    between atoms: C7_9  and  N2_10 
REMARK    5  A    between atoms: N2_10  and  C8_11 
REMARK    6  A    between atoms: C12_15  and  N3_16 
REMARK    7  A    between atoms: N6_23  and  C17_24 
ROOT
HETATM    1  C6  UNL     1      24.910   2.075  53.051  1.00  0.00     0.089 A 
HETATM    2  N1  UNL     1      25.071   3.129  52.219  1.00  0.00    -0.065 NA
HETATM    3  C7  UNL     1      24.227   3.346  51.195  1.00  0.00     0.725 A 
HETATM    4  N4  UNL     1      23.166   2.558  50.901  1.00  0.00    -0.043 NA
HETATM    5  C14 UNL     1      22.957   1.479  51.710  1.00  0.00     0.181 A 
HETATM    6  C15 UNL     1      23.829   1.269  52.754  1.00  0.00     0.130 A 
HETATM    7  N5  UNL     1      23.421   0.163  53.397  1.00  0.00    -0.238 NA
HETATM    8  C16 UNL     1      22.320  -0.314  52.771  1.00  0.00     0.212 A 
HETATM    9  N6  UNL     1      22.025   0.493  51.729  1.00  0.00    -0.324 N 
ENDROOT
BRANCH   3  10
HETATM   10  N2  UNL     1      24.445   4.476  50.345  1.00  0.00    -0.218 N 
HETATM   11  H7  UNL     1      25.184   4.424  49.584  1.00  0.00     0.178 HD
BRANCH  10  12
HETATM   12  C8  UNL     1      23.738   5.730  50.415  1.00  0.00     0.101 C 
HETATM   13  C9  UNL     1      23.235   6.212  49.066  1.00  0.00     0.026 C 
HETATM   14  C10 UNL     1      24.377   6.350  48.116  1.00  0.00     0.004 C 
HETATM   15  C11 UNL     1      25.584   7.015  48.702  1.00  0.00     0.035 C 
HETATM   16  C12 UNL     1      25.302   7.679  50.025  1.00  0.00     0.220 C 
HETATM   17  C13 UNL     1      24.672   6.755  51.017  1.00  0.00     0.060 C 
BRANCH  16  18
HETATM   18  N3  UNL     1      26.602   8.097  50.546  1.00  0.00     0.083 N 
HETATM   19  H16 UNL     1      27.195   8.562  49.849  1.00  0.00     0.313 HD
HETATM   20  H17 UNL     1      26.411   8.679  51.413  1.00  0.00     0.313 HD
ENDBRANCH  16  18
ENDBRANCH  10  12
ENDBRANCH   3  10
BRANCH   1  21
HETATM   21  C5  UNL     1      25.830   1.831  54.193  1.00  0.00     0.091 C 
BRANCH  21  22
HETATM   22  C4  UNL     1      26.783   0.756  53.933  1.00  0.00     0.003 C 
HETATM   23  C3  UNL     1      28.059   0.976  53.701  1.00  0.00     0.026 C 
HETATM   24 CL1  UNL     1      28.805   2.549  53.661  1.00  0.00    -0.085 Cl
BRANCH  23  25
HETATM   25  C2  UNL     1      28.815  -0.238  53.470  1.00  0.00    -0.003 C 
HETATM   26  C1  UNL     1      29.819  -1.080  53.481  1.00  0.00     0.032 C 
ENDBRANCH  23  25
ENDBRANCH  21  22
ENDBRANCH   1  21
BRANCH   9  27
HETATM   27  C17 UNL     1      20.916   0.329  50.804  1.00  0.00     0.127 C 
HETATM   28  C18 UNL     1      19.626   0.768  51.477  1.00  0.00     0.027 C 
ENDBRANCH   9  27
TORSDOF 7
ENDMDL
