MODEL 1
REMARK VINA RESULT:      -7.8      0.000      0.000
REMARK  7 active torsions:
REMARK  status: ('A' for Active; 'I' for Inactive)
REMARK    1  A    between atoms: O1_2  and  C2_3 
REMARK    2  A    between atoms: C2_3  and  C3_4 
REMARK    3  A    between atoms: C4_6  and  C5_7 
REMARK    4  A    between atoms: C7_10  and  N2_11 
REMARK    5  A    between atoms: C12_16  and  O2_17 
REMARK    6  A    between atoms: O2_17  and  C13_18 
REMARK    7  A    between atoms: C17_23  and  N4_24 
ROOT
HETATM    1  N2  UNL     1      27.200   1.351  52.740  1.00  0.00    -0.352 N 
HETATM    2  C8  UNL     1      28.395   1.929  53.341  1.00  0.00     0.152 C 
HETATM    3  C9  UNL     1      28.912   1.088  54.432  1.00  0.00    -0.011 C 
HETATM    4  C10 UNL     1      28.891  -0.237  54.452  1.00  0.00    -0.025 C 
HETATM    5  C11 UNL     1      28.264  -0.803  53.201  1.00  0.00     0.081 C 
HETATM    6  C12 UNL     1      26.937  -0.080  52.931  1.00  0.00     0.233 C 
ENDROOT
BRANCH   1   7
HETATM    7  C7  UNL     1      26.341   2.177  52.002  1.00  0.00     0.026 A 
HETATM    8  C6  UNL     1      25.110   2.715  52.584  1.00  0.00     0.205 A 
HETATM    9  N1  UNL     1      24.391   3.628  51.784  1.00  0.00    -0.288 NA
HETATM   10  C5  UNL     1      24.564   4.003  50.591  1.00  0.00     0.034 A 
HETATM   11  C19 UNL     1      25.713   3.399  49.891  1.00  0.00     0.088 A 
HETATM   12  C18 UNL     1      26.550   2.534  50.761  1.00  0.00     0.006 A 
BRANCH  10  13
HETATM   13  C4  UNL     1      23.668   4.973  49.985  1.00  0.00     0.048 C 
HETATM   14  C3  UNL     1      23.621   6.315  50.027  1.00  0.00     0.037 C 
HETATM   15 CL1  UNL     1      22.380   7.124  49.049  1.00  0.00    -0.087 Cl
BRANCH  14  16
HETATM   16  C2  UNL     1      24.422   7.367  50.678  1.00  0.00     0.218 C 
BRANCH  16  17
HETATM   17  O1  UNL     1      25.757   7.253  50.543  1.00  0.00    -0.391 OA
HETATM   18  C1  UNL     1      26.348   7.379  49.340  1.00  0.00     0.201 C 
ENDBRANCH  16  17
ENDBRANCH  14  16
ENDBRANCH  10  13
ENDBRANCH   1   7
BRANCH   6  19
HETATM   19  O2  UNL     1      26.124  -0.313  54.040  1.00  0.00    -0.322 OA
BRANCH  19  20
HETATM   20  C13 UNL     1      24.796  -0.614  54.062  1.00  0.00     0.115 A 
HETATM   21  C14 UNL     1      23.824  -0.517  53.102  1.00  0.00     0.155 A 
HETATM   22  N3  UNL     1      22.550  -0.876  53.338  1.00  0.00    -0.270 NA
HETATM   23  C15 UNL     1      22.172  -1.351  54.538  1.00  0.00     0.118 A 
HETATM   24  C16 UNL     1      23.082  -1.483  55.562  1.00  0.00     0.051 A 
HETATM   25  C17 UNL     1      24.407  -1.108  55.312  1.00  0.00     0.062 A 
BRANCH  25  26
HETATM   26  N4  UNL     1      25.276  -1.284  56.441  1.00  0.00    -0.397 N 
HETATM   27  H19 UNL     1      26.139  -1.875  56.345  1.00  0.00     0.156 HD
HETATM   28  H20 UNL     1      24.961  -0.789  57.290  1.00  0.00     0.156 HD
ENDBRANCH  25  26
ENDBRANCH  19  20
ENDBRANCH   6  19
TORSDOF 7
ENDMDL
MODEL 2
REMARK VINA RESULT:      -7.8      3.191      5.286
REMARK  7 active torsions:
REMARK  status: ('A' for Active; 'I' for Inactive)
REMARK    1  A    between atoms: O1_2  and  C2_3 
REMARK    2  A    between atoms: C2_3  and  C3_4 
REMARK    3  A    between atoms: C4_6  and  C5_7 
REMARK    4  A    between atoms: C7_10  and  N2_11 
REMARK    5  A    between atoms: C12_16  and  O2_17 
REMARK    6  A    between atoms: O2_17  and  C13_18 
REMARK    7  A    between atoms: C17_23  and  N4_24 
ROOT
HETATM    1  N2  UNL     1      24.541   3.061  50.858  1.00  0.00    -0.352 N 
HETATM    2  C8  UNL     1      23.322   2.634  50.183  1.00  0.00     0.152 C 
HETATM    3  C9  UNL     1      22.783   1.398  50.772  1.00  0.00    -0.011 C 
HETATM    4  C10 UNL     1      22.817   1.087  52.059  1.00  0.00    -0.025 C 
HETATM    5  C11 UNL     1      23.488   2.166  52.876  1.00  0.00     0.081 C 
HETATM    6  C12 UNL     1      24.814   2.554  52.208  1.00  0.00     0.233 C 
ENDROOT
BRANCH   1   7
HETATM    7  C7  UNL     1      25.412   3.941  50.200  1.00  0.00     0.026 A 
HETATM    8  C6  UNL     1      26.669   3.473  49.611  1.00  0.00     0.205 A 
HETATM    9  N1  UNL     1      27.401   4.427  48.873  1.00  0.00    -0.288 NA
HETATM   10  C5  UNL     1      27.219   5.665  48.703  1.00  0.00     0.034 A 
HETATM   11  C19 UNL     1      26.041   6.237  49.380  1.00  0.00     0.088 A 
HETATM   12  C18 UNL     1      25.193   5.222  50.054  1.00  0.00     0.006 A 
BRANCH  10  13
HETATM   13  C4  UNL     1      28.135   6.439  47.882  1.00  0.00     0.048 C 
HETATM   14  C3  UNL     1      29.475   6.543  47.869  1.00  0.00     0.037 C 
HETATM   15 CL1  UNL     1      30.206   7.565  46.615  1.00  0.00    -0.087 Cl
BRANCH  14  16
HETATM   16  C2  UNL     1      30.576   5.945  48.645  1.00  0.00     0.218 C 
BRANCH  16  17
HETATM   17  O1  UNL     1      31.089   4.804  48.147  1.00  0.00    -0.391 OA
HETATM   18  C1  UNL     1      32.417   4.646  47.996  1.00  0.00     0.201 C 
ENDBRANCH  16  17
ENDBRANCH  14  16
ENDBRANCH  10  13
ENDBRANCH   1   7
BRANCH   6  19
HETATM   19  O2  UNL     1      25.596   1.399  52.177  1.00  0.00    -0.322 OA
BRANCH  19  20
HETATM   20  C13 UNL     1      26.859   1.226  52.658  1.00  0.00     0.115 A 
HETATM   21  C14 UNL     1      27.866   2.118  52.915  1.00  0.00     0.155 A 
HETATM   22  N3  UNL     1      29.059   1.726  53.397  1.00  0.00    -0.270 NA
HETATM   23  C15 UNL     1      29.317   0.431  53.650  1.00  0.00     0.118 A 
HETATM   24  C16 UNL     1      28.362  -0.535  53.421  1.00  0.00     0.051 A 
HETATM   25  C17 UNL     1      27.122  -0.123  52.919  1.00  0.00     0.062 A 
BRANCH  25  26
HETATM   26  N4  UNL     1      26.198  -1.203  52.716  1.00  0.00    -0.397 N 
HETATM   27  H19 UNL     1      25.212  -0.994  52.421  1.00  0.00     0.156 HD
HETATM   28  H20 UNL     1      26.605  -2.136  52.886  1.00  0.00     0.156 HD
ENDBRANCH  25  26
ENDBRANCH  19  20
ENDBRANCH   6  19
TORSDOF 7
ENDMDL
MODEL 3
REMARK VINA RESULT:      -7.7      2.807      4.853
REMARK  7 active torsions:
REMARK  status: ('A' for Active; 'I' for Inactive)
REMARK    1  A    between atoms: O1_2  and  C2_3 
REMARK    2  A    between atoms: C2_3  and  C3_4 
REMARK    3  A    between atoms: C4_6  and  C5_7 
REMARK    4  A    between atoms: C7_10  and  N2_11 
REMARK    5  A    between atoms: C12_16  and  O2_17 
REMARK    6  A    between atoms: O2_17  and  C13_18 
REMARK    7  A    between atoms: C17_23  and  N4_24 
ROOT
HETATM    1  N2  UNL     1      24.933   3.389  50.805  1.00  0.00    -0.352 N 
HETATM    2  C8  UNL     1      23.686   2.885  50.242  1.00  0.00     0.152 C 
HETATM    3  C9  UNL     1      23.270   1.630  50.886  1.00  0.00    -0.011 C 
HETATM    4  C10 UNL     1      23.432   1.339  52.168  1.00  0.00    -0.025 C 
HETATM    5  C11 UNL     1      24.108   2.464  52.915  1.00  0.00     0.081 C 
HETATM    6  C12 UNL     1      25.348   2.915  52.131  1.00  0.00     0.233 C 
ENDROOT
BRANCH   1   7
HETATM    7  C7  UNL     1      25.693   4.306  50.067  1.00  0.00     0.026 A 
HETATM    8  C6  UNL     1      25.310   5.716  49.973  1.00  0.00     0.205 A 
HETATM    9  N1  UNL     1      26.217   6.564  49.302  1.00  0.00    -0.288 NA
HETATM   10  C5  UNL     1      27.277   6.308  48.666  1.00  0.00     0.034 A 
HETATM   11  C19 UNL     1      27.658   4.885  48.602  1.00  0.00     0.088 A 
HETATM   12  C18 UNL     1      26.782   4.000  49.410  1.00  0.00     0.006 A 
BRANCH  10  13
HETATM   13  C4  UNL     1      28.046   7.379  48.054  1.00  0.00     0.048 C 
HETATM   14  C3  UNL     1      28.384   8.609  48.477  1.00  0.00     0.037 C 
HETATM   15 CL1  UNL     1      29.428   9.581  47.421  1.00  0.00    -0.087 Cl
BRANCH  14  16
HETATM   16  C2  UNL     1      28.141   9.396  49.699  1.00  0.00     0.218 C 
BRANCH  16  17
HETATM   17  O1  UNL     1      26.898   9.895  49.835  1.00  0.00    -0.391 OA
HETATM   18  C1  UNL     1      26.239  10.418  48.785  1.00  0.00     0.201 C 
ENDBRANCH  16  17
ENDBRANCH  14  16
ENDBRANCH  10  13
ENDBRANCH   1   7
BRANCH   6  19
HETATM   19  O2  UNL     1      26.188   1.806  52.043  1.00  0.00    -0.322 OA
BRANCH  19  20
HETATM   20  C13 UNL     1      27.239   1.480  52.847  1.00  0.00     0.115 A 
HETATM   21  C14 UNL     1      28.124   2.255  53.548  1.00  0.00     0.155 A 
HETATM   22  N3  UNL     1      29.106   1.719  54.294  1.00  0.00    -0.270 NA
HETATM   23  C15 UNL     1      29.263   0.387  54.385  1.00  0.00     0.118 A 
HETATM   24  C16 UNL     1      28.418  -0.469  53.714  1.00  0.00     0.051 A 
HETATM   25  C17 UNL     1      27.398   0.093  52.938  1.00  0.00     0.062 A 
BRANCH  25  26
HETATM   26  N4  UNL     1      26.574  -0.881  52.281  1.00  0.00    -0.397 N 
HETATM   27  H19 UNL     1      25.536  -0.731  52.225  1.00  0.00     0.156 HD
HETATM   28  H20 UNL     1      27.100  -1.684  51.902  1.00  0.00     0.156 HD
ENDBRANCH  25  26
ENDBRANCH  19  20
ENDBRANCH   6  19
TORSDOF 7
ENDMDL
MODEL 4
REMARK VINA RESULT:      -7.6      2.045      2.748
REMARK  7 active torsions:
REMARK  status: ('A' for Active; 'I' for Inactive)
REMARK    1  A    between atoms: O1_2  and  C2_3 
REMARK    2  A    between atoms: C2_3  and  C3_4 
REMARK    3  A    between atoms: C4_6  and  C5_7 
REMARK    4  A    between atoms: C7_10  and  N2_11 
REMARK    5  A    between atoms: C12_16  and  O2_17 
REMARK    6  A    between atoms: O2_17  and  C13_18 
REMARK    7  A    between atoms: C17_23  and  N4_24 
ROOT
HETATM    1  N2  UNL     1      27.157   1.374  52.756  1.00  0.00    -0.352 N 
HETATM    2  C8  UNL     1      28.295   2.051  53.366  1.00  0.00     0.152 C 
HETATM    3  C9  UNL     1      28.858   1.266  54.476  1.00  0.00    -0.011 C 
HETATM    4  C10 UNL     1      28.941  -0.055  54.513  1.00  0.00    -0.025 C 
HETATM    5  C11 UNL     1      28.379  -0.685  53.261  1.00  0.00     0.081 C 
HETATM    6  C12 UNL     1      27.004  -0.071  52.962  1.00  0.00     0.233 C 
ENDROOT
BRANCH   1   7
HETATM    7  C7  UNL     1      26.248   2.121  51.994  1.00  0.00     0.026 A 
HETATM    8  C6  UNL     1      26.496   2.414  50.580  1.00  0.00     0.205 A 
HETATM    9  N1  UNL     1      25.455   3.070  49.890  1.00  0.00    -0.288 NA
HETATM   10  C5  UNL     1      24.361   3.551  50.298  1.00  0.00     0.034 A 
HETATM   11  C19 UNL     1      24.101   3.412  51.743  1.00  0.00     0.088 A 
HETATM   12  C18 UNL     1      25.129   2.613  52.457  1.00  0.00     0.006 A 
BRANCH  10  13
HETATM   13  C4  UNL     1      23.443   4.189  49.369  1.00  0.00     0.048 C 
HETATM   14  C3  UNL     1      22.717   3.716  48.342  1.00  0.00     0.037 C 
HETATM   15 CL1  UNL     1      21.640   4.853  47.507  1.00  0.00    -0.087 Cl
BRANCH  14  16
HETATM   16  C2  UNL     1      22.529   2.394  47.719  1.00  0.00     0.218 C 
BRANCH  16  17
HETATM   17  O1  UNL     1      21.491   1.672  48.182  1.00  0.00    -0.391 OA
HETATM   18  C1  UNL     1      21.507   1.145  49.420  1.00  0.00     0.201 C 
ENDBRANCH  16  17
ENDBRANCH  14  16
ENDBRANCH  10  13
ENDBRANCH   1   7
BRANCH   6  19
HETATM   19  O2  UNL     1      26.195  -0.353  54.062  1.00  0.00    -0.322 OA
BRANCH  19  20
HETATM   20  C13 UNL     1      24.865  -0.652  54.075  1.00  0.00     0.115 A 
HETATM   21  C14 UNL     1      23.909  -0.588  53.097  1.00  0.00     0.155 A 
HETATM   22  N3  UNL     1      22.630  -0.937  53.327  1.00  0.00    -0.270 NA
HETATM   23  C15 UNL     1      22.233  -1.368  54.537  1.00  0.00     0.118 A 
HETATM   24  C16 UNL     1      23.128  -1.464  55.579  1.00  0.00     0.051 A 
HETATM   25  C17 UNL     1      24.457  -1.099  55.335  1.00  0.00     0.062 A 
BRANCH  25  26
HETATM   26  N4  UNL     1      25.309  -1.235  56.483  1.00  0.00    -0.397 N 
HETATM   27  H19 UNL     1      25.257  -0.525  57.255  1.00  0.00     0.156 HD
HETATM   28  H20 UNL     1      25.928  -2.060  56.447  1.00  0.00     0.156 HD
ENDBRANCH  25  26
ENDBRANCH  19  20
ENDBRANCH   6  19
TORSDOF 7
ENDMDL
MODEL 5
REMARK VINA RESULT:      -7.3      2.200      2.901
REMARK  7 active torsions:
REMARK  status: ('A' for Active; 'I' for Inactive)
REMARK    1  A    between atoms: O1_2  and  C2_3 
REMARK    2  A    between atoms: C2_3  and  C3_4 
REMARK    3  A    between atoms: C4_6  and  C5_7 
REMARK    4  A    between atoms: C7_10  and  N2_11 
REMARK    5  A    between atoms: C12_16  and  O2_17 
REMARK    6  A    between atoms: O2_17  and  C13_18 
REMARK    7  A    between atoms: C17_23  and  N4_24 
ROOT
HETATM    1  N2  UNL     1      25.976   1.628  52.643  1.00  0.00    -0.352 N 
HETATM    2  C8  UNL     1      27.268   1.831  53.286  1.00  0.00     0.152 C 
HETATM    3  C9  UNL     1      27.728   0.614  53.970  1.00  0.00    -0.011 C 
HETATM    4  C10 UNL     1      27.537  -0.624  53.540  1.00  0.00    -0.025 C 
HETATM    5  C11 UNL     1      26.773  -0.650  52.237  1.00  0.00     0.081 C 
HETATM    6  C12 UNL     1      25.540   0.255  52.359  1.00  0.00     0.233 C 
ENDROOT
BRANCH   1   7
HETATM    7  C7  UNL     1      25.193   2.744  52.316  1.00  0.00     0.026 A 
HETATM    8  C6  UNL     1      25.324   3.416  51.022  1.00  0.00     0.205 A 
HETATM    9  N1  UNL     1      24.401   4.451  50.763  1.00  0.00    -0.288 NA
HETATM   10  C5  UNL     1      23.523   4.985  51.498  1.00  0.00     0.034 A 
HETATM   11  C19 UNL     1      23.423   4.448  52.868  1.00  0.00     0.088 A 
HETATM   12  C18 UNL     1      24.301   3.275  53.110  1.00  0.00     0.006 A 
BRANCH  10  13
HETATM   13  C4  UNL     1      22.684   6.055  50.986  1.00  0.00     0.048 C 
HETATM   14  C3  UNL     1      21.425   6.075  50.518  1.00  0.00     0.037 C 
HETATM   15 CL1  UNL     1      20.743   7.649  50.063  1.00  0.00    -0.087 Cl
BRANCH  14  16
HETATM   16  C2  UNL     1      20.369   5.066  50.320  1.00  0.00     0.218 C 
BRANCH  16  17
HETATM   17  O1  UNL     1      20.031   4.352  51.411  1.00  0.00    -0.391 OA
HETATM   18  C1  UNL     1      18.907   3.611  51.437  1.00  0.00     0.201 C 
ENDBRANCH  16  17
ENDBRANCH  14  16
ENDBRANCH  10  13
ENDBRANCH   1   7
BRANCH   6  19
HETATM   19  O2  UNL     1      24.765  -0.265  53.395  1.00  0.00    -0.322 OA
BRANCH  19  20
HETATM   20  C13 UNL     1      23.409  -0.383  53.455  1.00  0.00     0.115 A 
HETATM   21  C14 UNL     1      22.423  -0.003  52.585  1.00  0.00     0.155 A 
HETATM   22  N3  UNL     1      21.121  -0.218  52.844  1.00  0.00    -0.270 NA
HETATM   23  C15 UNL     1      20.728  -0.821  53.980  1.00  0.00     0.118 A 
HETATM   24  C16 UNL     1      21.652  -1.237  54.913  1.00  0.00     0.051 A 
HETATM   25  C17 UNL     1      23.006  -1.010  54.638  1.00  0.00     0.062 A 
BRANCH  25  26
HETATM   26  N4  UNL     1      23.886  -1.480  55.671  1.00  0.00    -0.397 N 
HETATM   27  H19 UNL     1      24.257  -2.461  55.630  1.00  0.00     0.156 HD
HETATM   28  H20 UNL     1      24.087  -0.776  56.398  1.00  0.00     0.156 HD
ENDBRANCH  25  26
ENDBRANCH  19  20
ENDBRANCH   6  19
TORSDOF 7
ENDMDL
MODEL 6
REMARK VINA RESULT:      -7.1      3.826      6.841
REMARK  7 active torsions:
REMARK  status: ('A' for Active; 'I' for Inactive)
REMARK    1  A    between atoms: O1_2  and  C2_3 
REMARK    2  A    between atoms: C2_3  and  C3_4 
REMARK    3  A    between atoms: C4_6  and  C5_7 
REMARK    4  A    between atoms: C7_10  and  N2_11 
REMARK    5  A    between atoms: C12_16  and  O2_17 
REMARK    6  A    between atoms: O2_17  and  C13_18 
REMARK    7  A    between atoms: C17_23  and  N4_24 
ROOT
HETATM    1  N2  UNL     1      24.483   0.526  53.283  1.00  0.00    -0.352 N 
HETATM    2  C8  UNL     1      25.501  -0.515  53.361  1.00  0.00     0.152 C 
HETATM    3  C9  UNL     1      26.777  -0.066  52.784  1.00  0.00    -0.011 C 
HETATM    4  C10 UNL     1      27.264   1.164  52.867  1.00  0.00    -0.025 C 
HETATM    5  C11 UNL     1      26.341   2.077  53.639  1.00  0.00     0.081 C 
HETATM    6  C12 UNL     1      24.911   1.918  53.103  1.00  0.00     0.233 C 
ENDROOT
BRANCH   1   7
HETATM    7  C7  UNL     1      23.132   0.166  53.383  1.00  0.00     0.026 A 
HETATM    8  C6  UNL     1      22.073   1.013  52.830  1.00  0.00     0.205 A 
HETATM    9  N1  UNL     1      20.764   0.488  52.886  1.00  0.00    -0.288 NA
HETATM   10  C5  UNL     1      20.312  -0.560  53.425  1.00  0.00     0.034 A 
HETATM   11  C19 UNL     1      21.304  -1.401  54.121  1.00  0.00     0.088 A 
HETATM   12  C18 UNL     1      22.701  -0.925  53.960  1.00  0.00     0.006 A 
BRANCH  10  13
HETATM   13  C4  UNL     1      18.897  -0.882  53.340  1.00  0.00     0.048 C 
HETATM   14  C3  UNL     1      17.979  -0.684  52.379  1.00  0.00     0.037 C 
HETATM   15 CL1  UNL     1      16.347  -1.324  52.660  1.00  0.00    -0.087 Cl
BRANCH  14  16
HETATM   16  C2  UNL     1      17.987  -0.079  51.035  1.00  0.00     0.218 C 
BRANCH  16  17
HETATM   17  O1  UNL     1      17.368   1.112  50.927  1.00  0.00    -0.391 OA
HETATM   18  C1  UNL     1      17.919   2.232  51.431  1.00  0.00     0.201 C 
ENDBRANCH  16  17
ENDBRANCH  14  16
ENDBRANCH  10  13
ENDBRANCH   1   7
BRANCH   6  19
HETATM   19  O2  UNL     1      24.949   2.276  51.756  1.00  0.00    -0.322 OA
BRANCH  19  20
HETATM   20  C13 UNL     1      24.430   3.390  51.167  1.00  0.00     0.115 A 
HETATM   21  C14 UNL     1      23.156   3.889  51.126  1.00  0.00     0.155 A 
HETATM   22  N3  UNL     1      22.857   5.027  50.475  1.00  0.00    -0.270 NA
HETATM   23  C15 UNL     1      23.805   5.731  49.830  1.00  0.00     0.118 A 
HETATM   24  C16 UNL     1      25.114   5.303  49.818  1.00  0.00     0.051 A 
HETATM   25  C17 UNL     1      25.420   4.118  50.498  1.00  0.00     0.062 A 
BRANCH  25  26
HETATM   26  N4  UNL     1      26.808   3.759  50.426  1.00  0.00    -0.397 N 
HETATM   27  H19 UNL     1      27.149   2.900  50.925  1.00  0.00     0.156 HD
HETATM   28  H20 UNL     1      27.378   4.409  49.863  1.00  0.00     0.156 HD
ENDBRANCH  25  26
ENDBRANCH  19  20
ENDBRANCH   6  19
TORSDOF 7
ENDMDL
MODEL 7
REMARK VINA RESULT:      -7.0      4.319      8.835
REMARK  7 active torsions:
REMARK  status: ('A' for Active; 'I' for Inactive)
REMARK    1  A    between atoms: O1_2  and  C2_3 
REMARK    2  A    between atoms: C2_3  and  C3_4 
REMARK    3  A    between atoms: C4_6  and  C5_7 
REMARK    4  A    between atoms: C7_10  and  N2_11 
REMARK    5  A    between atoms: C12_16  and  O2_17 
REMARK    6  A    between atoms: O2_17  and  C13_18 
REMARK    7  A    between atoms: C17_23  and  N4_24 
ROOT
HETATM    1  N2  UNL     1      27.209   6.720  48.637  1.00  0.00    -0.352 N 
HETATM    2  C8  UNL     1      26.708   8.077  48.813  1.00  0.00     0.152 C 
HETATM    3  C9  UNL     1      27.760   9.076  48.572  1.00  0.00    -0.011 C 
HETATM    4  C10 UNL     1      28.717   8.975  47.661  1.00  0.00    -0.025 C 
HETATM    5  C11 UNL     1      28.608   7.688  46.878  1.00  0.00     0.081 C 
HETATM    6  C12 UNL     1      28.435   6.517  47.855  1.00  0.00     0.233 C 
ENDROOT
BRANCH   1   7
HETATM    7  C7  UNL     1      26.508   5.654  49.216  1.00  0.00     0.026 A 
HETATM    8  C6  UNL     1      25.301   5.878  50.015  1.00  0.00     0.205 A 
HETATM    9  N1  UNL     1      24.617   4.721  50.445  1.00  0.00    -0.288 NA
HETATM   10  C5  UNL     1      24.911   3.497  50.349  1.00  0.00     0.034 A 
HETATM   11  C19 UNL     1      26.186   3.197  49.670  1.00  0.00     0.088 A 
HETATM   12  C18 UNL     1      26.852   4.397  49.103  1.00  0.00     0.006 A 
BRANCH  10  13
HETATM   13  C4  UNL     1      24.022   2.480  50.883  1.00  0.00     0.048 C 
HETATM   14  C3  UNL     1      24.207   1.491  51.774  1.00  0.00     0.037 C 
HETATM   15 CL1  UNL     1      22.797   0.507  52.213  1.00  0.00    -0.087 Cl
BRANCH  14  16
HETATM   16  C2  UNL     1      25.345   1.010  52.579  1.00  0.00     0.218 C 
BRANCH  16  17
HETATM   17  O1  UNL     1      26.280   0.309  51.909  1.00  0.00    -0.391 OA
HETATM   18  C1  UNL     1      26.779  -0.838  52.405  1.00  0.00     0.201 C 
ENDBRANCH  16  17
ENDBRANCH  14  16
ENDBRANCH  10  13
ENDBRANCH   1   7
BRANCH   6  19
HETATM   19  O2  UNL     1      29.569   6.507  48.668  1.00  0.00    -0.322 OA
BRANCH  19  20
HETATM   20  C13 UNL     1      30.787   5.954  48.405  1.00  0.00     0.115 A 
HETATM   21  C14 UNL     1      31.158   4.907  47.605  1.00  0.00     0.155 A 
HETATM   22  N3  UNL     1      32.441   4.518  47.489  1.00  0.00    -0.270 NA
HETATM   23  C15 UNL     1      33.422   5.148  48.158  1.00  0.00     0.118 A 
HETATM   24  C16 UNL     1      33.140   6.212  48.986  1.00  0.00     0.051 A 
HETATM   25  C17 UNL     1      31.804   6.612  49.104  1.00  0.00     0.062 A 
BRANCH  25  26
HETATM   26  N4  UNL     1      31.616   7.728  49.988  1.00  0.00    -0.397 N 
HETATM   27  H19 UNL     1      30.995   8.523  49.696  1.00  0.00     0.156 HD
HETATM   28  H20 UNL     1      32.134   7.647  50.877  1.00  0.00     0.156 HD
ENDBRANCH  25  26
ENDBRANCH  19  20
ENDBRANCH   6  19
TORSDOF 7
ENDMDL
MODEL 8
REMARK VINA RESULT:      -6.9      3.367      8.767
REMARK  7 active torsions:
REMARK  status: ('A' for Active; 'I' for Inactive)
REMARK    1  A    between atoms: O1_2  and  C2_3 
REMARK    2  A    between atoms: C2_3  and  C3_4 
REMARK    3  A    between atoms: C4_6  and  C5_7 
REMARK    4  A    between atoms: C7_10  and  N2_11 
REMARK    5  A    between atoms: C12_16  and  O2_17 
REMARK    6  A    between atoms: O2_17  and  C13_18 
REMARK    7  A    between atoms: C17_23  and  N4_24 
ROOT
HETATM    1  N2  UNL     1      24.610   5.711  50.241  1.00  0.00    -0.352 N 
HETATM    2  C8  UNL     1      23.472   6.313  50.925  1.00  0.00     0.152 C 
HETATM    3  C9  UNL     1      23.435   7.771  50.731  1.00  0.00    -0.011 C 
HETATM    4  C10 UNL     1      23.787   8.404  49.622  1.00  0.00    -0.025 C 
HETATM    5  C11 UNL     1      24.243   7.441  48.551  1.00  0.00     0.081 C 
HETATM    6  C12 UNL     1      25.254   6.458  49.155  1.00  0.00     0.233 C 
ENDROOT
BRANCH   1   7
HETATM    7  C7  UNL     1      25.051   4.442  50.641  1.00  0.00     0.026 A 
HETATM    8  C6  UNL     1      24.328   3.664  51.649  1.00  0.00     0.205 A 
HETATM    9  N1  UNL     1      24.800   2.354  51.880  1.00  0.00    -0.288 NA
HETATM   10  C5  UNL     1      25.815   1.747  51.438  1.00  0.00     0.034 A 
HETATM   11  C19 UNL     1      26.670   2.517  50.515  1.00  0.00     0.088 A 
HETATM   12  C18 UNL     1      26.116   3.850  50.167  1.00  0.00     0.006 A 
BRANCH  10  13
HETATM   13  C4  UNL     1      26.085   0.376  51.836  1.00  0.00     0.048 C 
HETATM   14  C3  UNL     1      26.930  -0.158  52.735  1.00  0.00     0.037 C 
HETATM   15 CL1  UNL     1      26.878  -1.917  52.966  1.00  0.00    -0.087 Cl
BRANCH  14  16
HETATM   16  C2  UNL     1      27.920   0.380  53.685  1.00  0.00     0.218 C 
BRANCH  16  17
HETATM   17  O1  UNL     1      27.791   1.687  53.985  1.00  0.00    -0.391 OA
HETATM   18  C1  UNL     1      28.746   2.575  53.652  1.00  0.00     0.201 C 
ENDBRANCH  16  17
ENDBRANCH  14  16
ENDBRANCH  10  13
ENDBRANCH   1   7
BRANCH   6  19
HETATM   19  O2  UNL     1      26.324   7.223  49.619  1.00  0.00    -0.322 OA
BRANCH  19  20
HETATM   20  C13 UNL     1      27.376   7.717  48.908  1.00  0.00     0.115 A 
HETATM   21  C14 UNL     1      27.907   7.357  47.698  1.00  0.00     0.155 A 
HETATM   22  N3  UNL     1      28.969   7.990  47.168  1.00  0.00    -0.270 NA
HETATM   23  C15 UNL     1      29.560   9.014  47.809  1.00  0.00     0.118 A 
HETATM   24  C16 UNL     1      29.093   9.444  49.031  1.00  0.00     0.051 A 
HETATM   25  C17 UNL     1      27.987   8.782  49.578  1.00  0.00     0.062 A 
BRANCH  25  26
HETATM   26  N4  UNL     1      27.578   9.305  50.851  1.00  0.00    -0.397 N 
HETATM   27  H19 UNL     1      26.682   9.847  50.926  1.00  0.00     0.156 HD
HETATM   28  H20 UNL     1      28.234   9.091  51.619  1.00  0.00     0.156 HD
ENDBRANCH  25  26
ENDBRANCH  19  20
ENDBRANCH   6  19
TORSDOF 7
ENDMDL
MODEL 9
REMARK VINA RESULT:      -6.9      2.033      4.354
REMARK  7 active torsions:
REMARK  status: ('A' for Active; 'I' for Inactive)
REMARK    1  A    between atoms: O1_2  and  C2_3 
REMARK    2  A    between atoms: C2_3  and  C3_4 
REMARK    3  A    between atoms: C4_6  and  C5_7 
REMARK    4  A    between atoms: C7_10  and  N2_11 
REMARK    5  A    between atoms: C12_16  and  O2_17 
REMARK    6  A    between atoms: O2_17  and  C13_18 
REMARK    7  A    between atoms: C17_23  and  N4_24 
ROOT
HETATM    1  N2  UNL     1      22.943   1.896  51.609  1.00  0.00    -0.352 N 
HETATM    2  C8  UNL     1      21.855   1.077  51.089  1.00  0.00     0.152 C 
HETATM    3  C9  UNL     1      21.853  -0.264  51.693  1.00  0.00    -0.011 C 
HETATM    4  C10 UNL     1      22.173  -0.538  52.949  1.00  0.00    -0.025 C 
HETATM    5  C11 UNL     1      22.551   0.709  53.713  1.00  0.00     0.081 C 
HETATM    6  C12 UNL     1      23.560   1.518  52.886  1.00  0.00     0.233 C 
ENDROOT
BRANCH   1   7
HETATM    7  C7  UNL     1      23.364   3.014  50.877  1.00  0.00     0.026 A 
HETATM    8  C6  UNL     1      23.516   2.961  49.421  1.00  0.00     0.205 A 
HETATM    9  N1  UNL     1      23.829   4.181  48.785  1.00  0.00    -0.288 NA
HETATM   10  C5  UNL     1      24.107   5.318  49.258  1.00  0.00     0.034 A 
HETATM   11  C19 UNL     1      24.106   5.416  50.730  1.00  0.00     0.088 A 
HETATM   12  C18 UNL     1      23.654   4.174  51.406  1.00  0.00     0.006 A 
BRANCH  10  13
HETATM   13  C4  UNL     1      24.399   6.434  48.374  1.00  0.00     0.048 C 
HETATM   14  C3  UNL     1      25.538   7.085  48.082  1.00  0.00     0.037 C 
HETATM   15 CL1  UNL     1      25.459   8.366  46.856  1.00  0.00    -0.087 Cl
BRANCH  14  16
HETATM   16  C2  UNL     1      26.945   6.969  48.506  1.00  0.00     0.218 C 
BRANCH  16  17
HETATM   17  O1  UNL     1      27.380   5.719  48.753  1.00  0.00    -0.391 OA
HETATM   18  C1  UNL     1      28.588   5.306  48.329  1.00  0.00     0.201 C 
ENDBRANCH  16  17
ENDBRANCH  14  16
ENDBRANCH  10  13
ENDBRANCH   1   7
BRANCH   6  19
HETATM   19  O2  UNL     1      24.672   0.697  52.700  1.00  0.00    -0.322 OA
BRANCH  19  20
HETATM   20  C13 UNL     1      25.984   0.997  52.911  1.00  0.00     0.115 A 
HETATM   21  C14 UNL     1      26.826   1.883  52.294  1.00  0.00     0.155 A 
HETATM   22  N3  UNL     1      28.111   2.022  52.666  1.00  0.00    -0.270 NA
HETATM   23  C15 UNL     1      28.629   1.292  53.670  1.00  0.00     0.118 A 
HETATM   24  C16 UNL     1      27.854   0.376  54.346  1.00  0.00     0.051 A 
HETATM   25  C17 UNL     1      26.518   0.234  53.955  1.00  0.00     0.062 A 
BRANCH  25  26
HETATM   26  N4  UNL     1      25.797  -0.744  54.720  1.00  0.00    -0.397 N 
HETATM   27  H19 UNL     1      25.528  -0.531  55.713  1.00  0.00     0.156 HD
HETATM   28  H20 UNL     1      25.597  -1.613  54.202  1.00  0.00     0.156 HD
ENDBRANCH  25  26
ENDBRANCH  19  20
ENDBRANCH   6  19
TORSDOF 7
ENDMDL
