MODEL 1
REMARK VINA RESULT:      -7.6      0.000      0.000
REMARK  6 active torsions:
REMARK  status: ('A' for Active; 'I' for Inactive)
REMARK    1  A    between atoms: C2_2  and  C3_4 
REMARK    2  A    between atoms: C3_4  and  N1_5 
REMARK    3  A    between atoms: N1_5  and  C4_6 
REMARK    4  A    between atoms: C7_9  and  O1_10 
REMARK    5  A    between atoms: O1_10  and  C8_11 
REMARK    6  A    between atoms: C8_11  and  C9_12 
ROOT
HETATM    1  C4  UNL     1      25.836   0.486  54.116  1.00  0.00     0.028 A 
HETATM    2  C5  UNL     1      25.967   1.867  53.956  1.00  0.00     0.032 A 
HETATM    3  C6  UNL     1      25.022   2.556  53.213  1.00  0.00     0.039 A 
HETATM    4  C7  UNL     1      23.952   1.916  52.622  1.00  0.00     0.069 A 
HETATM    5  C16 UNL     1      23.820   0.561  52.774  1.00  0.00     0.039 A 
HETATM    6  C17 UNL     1      24.755  -0.151  53.516  1.00  0.00     0.032 A 
ENDROOT
BRANCH   4   7
HETATM    7  O1  UNL     1      23.141   2.796  51.932  1.00  0.00    -0.345 OA
BRANCH   7   8
HETATM    8  C8  UNL     1      22.993   2.700  50.530  1.00  0.00     0.242 C 
BRANCH   8   9
HETATM    9  C9  UNL     1      24.141   3.547  49.979  1.00  0.00     0.100 A 
HETATM   10  N2  UNL     1      25.245   3.549  49.723  1.00  0.00    -0.243 NA
HETATM   11  C10 UNL     1      26.009   4.503  49.222  1.00  0.00     0.075 A 
HETATM   12  C11 UNL     1      27.354   4.483  48.916  1.00  0.00     0.033 A 
HETATM   13  C15 UNL     1      25.368   5.695  48.967  1.00  0.00     0.035 A 
HETATM   14  C12 UNL     1      27.942   5.615  48.396  1.00  0.00     0.002 A 
HETATM   15  C13 UNL     1      27.301   6.809  48.141  1.00  0.00     0.002 A 
HETATM   16  C14 UNL     1      25.955   6.853  48.438  1.00  0.00     0.021 A 
HETATM   17  S1  UNL     1      23.660   5.319  49.491  1.00  0.00    -0.070 SA
ENDBRANCH   8   9
ENDBRANCH   7   8
ENDBRANCH   4   7
BRANCH   1  18
HETATM   18  N1  UNL     1      26.776  -0.270  54.869  1.00  0.00    -0.385 N 
HETATM   19  H5  UNL     1      26.404  -1.043  55.474  1.00  0.00     0.160 HD
BRANCH  18  20
HETATM   20  C3  UNL     1      28.189   0.038  54.785  1.00  0.00     0.170 C 
BRANCH  20  21
HETATM   21  C2  UNL     1      28.885  -0.752  53.746  1.00  0.00     0.020 C 
HETATM   22  C1  UNL     1      30.175  -0.507  53.494  1.00  0.00     0.034 C 
HETATM   23 CL1  UNL     1      27.900  -1.952  52.942  1.00  0.00    -0.088 Cl
ENDBRANCH  20  21
ENDBRANCH  18  20
ENDBRANCH   1  18
TORSDOF 6
ENDMDL
MODEL 2
REMARK VINA RESULT:      -7.1      4.785      7.291
REMARK  6 active torsions:
REMARK  status: ('A' for Active; 'I' for Inactive)
REMARK    1  A    between atoms: C2_2  and  C3_4 
REMARK    2  A    between atoms: C3_4  and  N1_5 
REMARK    3  A    between atoms: N1_5  and  C4_6 
REMARK    4  A    between atoms: C7_9  and  O1_10 
REMARK    5  A    between atoms: O1_10  and  C8_11 
REMARK    6  A    between atoms: C8_11  and  C9_12 
ROOT
HETATM    1  C4  UNL     1      25.746  -0.424  53.852  1.00  0.00     0.028 A 
HETATM    2  C5  UNL     1      24.672  -0.981  54.550  1.00  0.00     0.032 A 
HETATM    3  C6  UNL     1      23.378  -0.627  54.200  1.00  0.00     0.039 A 
HETATM    4  C7  UNL     1      23.118   0.264  53.179  1.00  0.00     0.069 A 
HETATM    5  C16 UNL     1      24.168   0.814  52.493  1.00  0.00     0.039 A 
HETATM    6  C17 UNL     1      25.474   0.473  52.825  1.00  0.00     0.032 A 
ENDROOT
BRANCH   4   7
HETATM    7  O1  UNL     1      21.764   0.469  53.006  1.00  0.00    -0.345 OA
BRANCH   7   8
HETATM    8  C8  UNL     1      20.839   0.091  54.005  1.00  0.00     0.242 C 
BRANCH   8   9
HETATM    9  C9  UNL     1      19.565  -0.237  53.223  1.00  0.00     0.100 A 
HETATM   10  N2  UNL     1      18.569  -0.776  53.268  1.00  0.00    -0.243 NA
HETATM   11  C10 UNL     1      17.610  -0.885  52.366  1.00  0.00     0.075 A 
HETATM   12  C11 UNL     1      16.402  -1.547  52.442  1.00  0.00     0.033 A 
HETATM   13  C15 UNL     1      17.852  -0.243  51.172  1.00  0.00     0.035 A 
HETATM   14  C12 UNL     1      15.552  -1.522  51.358  1.00  0.00     0.002 A 
HETATM   15  C13 UNL     1      15.794  -0.879  50.163  1.00  0.00     0.002 A 
HETATM   16  C14 UNL     1      16.995  -0.210  50.063  1.00  0.00     0.021 A 
HETATM   17  S1  UNL     1      19.499   0.487  51.468  1.00  0.00    -0.070 SA
ENDBRANCH   8   9
ENDBRANCH   7   8
ENDBRANCH   4   7
BRANCH   1  18
HETATM   18  N1  UNL     1      27.092  -0.753  54.170  1.00  0.00    -0.385 N 
HETATM   19  H5  UNL     1      27.438  -1.705  53.891  1.00  0.00     0.160 HD
BRANCH  18  20
HETATM   20  C3  UNL     1      27.933   0.208  54.853  1.00  0.00     0.170 C 
BRANCH  20  21
HETATM   21  C2  UNL     1      28.970   0.787  53.971  1.00  0.00     0.020 C 
HETATM   22  C1  UNL     1      29.946  -0.001  53.505  1.00  0.00     0.034 C 
HETATM   23 CL1  UNL     1      28.790   2.492  53.633  1.00  0.00    -0.088 Cl
ENDBRANCH  20  21
ENDBRANCH  18  20
ENDBRANCH   1  18
TORSDOF 6
ENDMDL
MODEL 3
REMARK VINA RESULT:      -7.1      3.192      7.508
REMARK  6 active torsions:
REMARK  status: ('A' for Active; 'I' for Inactive)
REMARK    1  A    between atoms: C2_2  and  C3_4 
REMARK    2  A    between atoms: C3_4  and  N1_5 
REMARK    3  A    between atoms: N1_5  and  C4_6 
REMARK    4  A    between atoms: C7_9  and  O1_10 
REMARK    5  A    between atoms: O1_10  and  C8_11 
REMARK    6  A    between atoms: C8_11  and  C9_12 
ROOT
HETATM    1  C4  UNL     1      26.771   5.635  48.853  1.00  0.00     0.028 A 
HETATM    2  C5  UNL     1      27.222   4.314  48.910  1.00  0.00     0.032 A 
HETATM    3  C6  UNL     1      26.493   3.379  49.627  1.00  0.00     0.039 A 
HETATM    4  C7  UNL     1      25.331   3.714  50.291  1.00  0.00     0.069 A 
HETATM    5  C16 UNL     1      24.885   5.008  50.239  1.00  0.00     0.039 A 
HETATM    6  C17 UNL     1      25.598   5.963  49.525  1.00  0.00     0.032 A 
ENDROOT
BRANCH   4   7
HETATM    7  O1  UNL     1      24.774   2.628  50.937  1.00  0.00    -0.345 OA
BRANCH   7   8
HETATM    8  C8  UNL     1      24.871   2.492  52.340  1.00  0.00     0.242 C 
BRANCH   8   9
HETATM    9  C9  UNL     1      25.821   1.308  52.531  1.00  0.00     0.100 A 
HETATM   10  N2  UNL     1      25.918   0.181  52.451  1.00  0.00    -0.243 NA
HETATM   11  C10 UNL     1      26.944  -0.612  52.703  1.00  0.00     0.075 A 
HETATM   12  C11 UNL     1      27.041  -1.984  52.597  1.00  0.00     0.033 A 
HETATM   13  C15 UNL     1      28.086   0.024  53.135  1.00  0.00     0.035 A 
HETATM   14  C12 UNL     1      28.230  -2.601  52.919  1.00  0.00     0.002 A 
HETATM   15  C13 UNL     1      29.374  -1.964  53.352  1.00  0.00     0.002 A 
HETATM   16  C14 UNL     1      29.301  -0.592  53.465  1.00  0.00     0.021 A 
HETATM   17  S1  UNL     1      27.560   1.773  53.139  1.00  0.00    -0.070 SA
ENDBRANCH   8   9
ENDBRANCH   7   8
ENDBRANCH   4   7
BRANCH   1  18
HETATM   18  N1  UNL     1      27.479   6.634  48.131  1.00  0.00    -0.385 N 
HETATM   19  H5  UNL     1      27.803   6.394  47.161  1.00  0.00     0.160 HD
BRANCH  18  20
HETATM   20  C3  UNL     1      27.731   7.926  48.734  1.00  0.00     0.170 C 
BRANCH  20  21
HETATM   21  C2  UNL     1      29.174   8.229  48.851  1.00  0.00     0.020 C 
HETATM   22  C1  UNL     1      29.555   9.442  49.269  1.00  0.00     0.034 C 
HETATM   23 CL1  UNL     1      30.246   6.921  48.411  1.00  0.00    -0.088 Cl
ENDBRANCH  20  21
ENDBRANCH  18  20
ENDBRANCH   1  18
TORSDOF 6
ENDMDL
MODEL 4
REMARK VINA RESULT:      -6.9      3.333      5.969
REMARK  6 active torsions:
REMARK  status: ('A' for Active; 'I' for Inactive)
REMARK    1  A    between atoms: C2_2  and  C3_4 
REMARK    2  A    between atoms: C3_4  and  N1_5 
REMARK    3  A    between atoms: N1_5  and  C4_6 
REMARK    4  A    between atoms: C7_9  and  O1_10 
REMARK    5  A    between atoms: O1_10  and  C8_11 
REMARK    6  A    between atoms: C8_11  and  C9_12 
ROOT
HETATM    1  C4  UNL     1      26.898   1.793  53.371  1.00  0.00     0.028 A 
HETATM    2  C5  UNL     1      27.013   2.156  52.027  1.00  0.00     0.032 A 
HETATM    3  C6  UNL     1      25.873   2.215  51.240  1.00  0.00     0.039 A 
HETATM    4  C7  UNL     1      24.623   1.924  51.746  1.00  0.00     0.069 A 
HETATM    5  C16 UNL     1      24.505   1.566  53.063  1.00  0.00     0.039 A 
HETATM    6  C17 UNL     1      25.634   1.501  53.872  1.00  0.00     0.032 A 
ENDROOT
BRANCH   4   7
HETATM    7  O1  UNL     1      23.637   2.046  50.788  1.00  0.00    -0.345 OA
BRANCH   7   8
HETATM    8  C8  UNL     1      22.522   2.889  50.996  1.00  0.00     0.242 C 
BRANCH   8   9
HETATM    9  C9  UNL     1      21.412   1.931  51.433  1.00  0.00     0.100 A 
HETATM   10  N2  UNL     1      21.113   1.159  52.207  1.00  0.00    -0.243 NA
HETATM   11  C10 UNL     1      20.003   0.452  52.330  1.00  0.00     0.075 A 
HETATM   12  C11 UNL     1      19.658  -0.484  53.282  1.00  0.00     0.033 A 
HETATM   13  C15 UNL     1      19.050   0.683  51.363  1.00  0.00     0.035 A 
HETATM   14  C12 UNL     1      18.429  -1.101  53.204  1.00  0.00     0.002 A 
HETATM   15  C13 UNL     1      17.474  -0.870  52.236  1.00  0.00     0.002 A 
HETATM   16  C14 UNL     1      17.797   0.062  51.273  1.00  0.00     0.021 A 
HETATM   17  S1  UNL     1      19.868   1.945  50.327  1.00  0.00    -0.070 SA
ENDBRANCH   8   9
ENDBRANCH   7   8
ENDBRANCH   4   7
BRANCH   1  18
HETATM   18  N1  UNL     1      28.034   1.718  54.222  1.00  0.00    -0.385 N 
HETATM   19  H5  UNL     1      28.561   2.607  54.408  1.00  0.00     0.160 HD
BRANCH  18  20
HETATM   20  C3  UNL     1      28.428   0.449  54.798  1.00  0.00     0.170 C 
BRANCH  20  21
HETATM   21  C2  UNL     1      28.851  -0.534  53.778  1.00  0.00     0.020 C 
HETATM   22  C1  UNL     1      30.151  -0.650  53.482  1.00  0.00     0.034 C 
HETATM   23 CL1  UNL     1      27.556  -1.458  53.054  1.00  0.00    -0.088 Cl
ENDBRANCH  20  21
ENDBRANCH  18  20
ENDBRANCH   1  18
TORSDOF 6
ENDMDL
MODEL 5
REMARK VINA RESULT:      -6.8      3.700      7.408
REMARK  6 active torsions:
REMARK  status: ('A' for Active; 'I' for Inactive)
REMARK    1  A    between atoms: C2_2  and  C3_4 
REMARK    2  A    between atoms: C3_4  and  N1_5 
REMARK    3  A    between atoms: N1_5  and  C4_6 
REMARK    4  A    between atoms: C7_9  and  O1_10 
REMARK    5  A    between atoms: O1_10  and  C8_11 
REMARK    6  A    between atoms: C8_11  and  C9_12 
ROOT
HETATM    1  C4  UNL     1      27.027   5.011  49.038  1.00  0.00     0.028 A 
HETATM    2  C5  UNL     1      26.738   3.728  49.510  1.00  0.00     0.032 A 
HETATM    3  C6  UNL     1      25.415   3.345  49.666  1.00  0.00     0.039 A 
HETATM    4  C7  UNL     1      24.370   4.195  49.368  1.00  0.00     0.069 A 
HETATM    5  C16 UNL     1      24.648   5.454  48.907  1.00  0.00     0.039 A 
HETATM    6  C17 UNL     1      25.967   5.861  48.742  1.00  0.00     0.032 A 
ENDROOT
BRANCH   4   7
HETATM    7  O1  UNL     1      23.144   3.605  49.599  1.00  0.00    -0.345 OA
BRANCH   7   8
HETATM    8  C8  UNL     1      22.329   4.021  50.676  1.00  0.00     0.242 C 
BRANCH   8   9
HETATM    9  C9  UNL     1      22.310   2.811  51.612  1.00  0.00     0.100 A 
HETATM   10  N2  UNL     1      22.938   1.979  52.056  1.00  0.00    -0.243 NA
HETATM   11  C10 UNL     1      22.614   1.017  52.901  1.00  0.00     0.075 A 
HETATM   12  C11 UNL     1      23.398   0.011  53.430  1.00  0.00     0.033 A 
HETATM   13  C15 UNL     1      21.301   1.015  53.314  1.00  0.00     0.035 A 
HETATM   14  C12 UNL     1      22.833  -0.892  54.304  1.00  0.00     0.002 A 
HETATM   15  C13 UNL     1      21.517  -0.893  54.718  1.00  0.00     0.002 A 
HETATM   16  C14 UNL     1      20.715   0.102  54.202  1.00  0.00     0.021 A 
HETATM   17  S1  UNL     1      20.626   2.454  52.416  1.00  0.00    -0.070 SA
ENDBRANCH   8   9
ENDBRANCH   7   8
ENDBRANCH   4   7
BRANCH   1  18
HETATM   18  N1  UNL     1      28.365   5.456  48.860  1.00  0.00    -0.385 N 
HETATM   19  H5  UNL     1      29.130   4.881  49.294  1.00  0.00     0.160 HD
BRANCH  18  20
HETATM   20  C3  UNL     1      28.636   6.660  48.102  1.00  0.00     0.170 C 
BRANCH  20  21
HETATM   21  C2  UNL     1      29.953   6.626  47.428  1.00  0.00     0.020 C 
HETATM   22  C1  UNL     1      30.336   7.673  46.690  1.00  0.00     0.034 C 
HETATM   23 CL1  UNL     1      30.881   5.168  47.686  1.00  0.00    -0.088 Cl
ENDBRANCH  20  21
ENDBRANCH  18  20
ENDBRANCH   1  18
TORSDOF 6
ENDMDL
MODEL 6
REMARK VINA RESULT:      -6.8      2.722      2.931
REMARK  6 active torsions:
REMARK  status: ('A' for Active; 'I' for Inactive)
REMARK    1  A    between atoms: C2_2  and  C3_4 
REMARK    2  A    between atoms: C3_4  and  N1_5 
REMARK    3  A    between atoms: N1_5  and  C4_6 
REMARK    4  A    between atoms: C7_9  and  O1_10 
REMARK    5  A    between atoms: O1_10  and  C8_11 
REMARK    6  A    between atoms: C8_11  and  C9_12 
ROOT
HETATM    1  C4  UNL     1      25.385  -0.140  53.436  1.00  0.00     0.028 A 
HETATM    2  C5  UNL     1      25.535   0.826  52.439  1.00  0.00     0.032 A 
HETATM    3  C6  UNL     1      24.407   1.389  51.863  1.00  0.00     0.039 A 
HETATM    4  C7  UNL     1      23.134   1.022  52.247  1.00  0.00     0.069 A 
HETATM    5  C16 UNL     1      22.981   0.074  53.223  1.00  0.00     0.039 A 
HETATM    6  C17 UNL     1      24.097  -0.504  53.815  1.00  0.00     0.032 A 
ENDROOT
BRANCH   4   7
HETATM    7  O1  UNL     1      22.165   1.708  51.543  1.00  0.00    -0.345 OA
BRANCH   7   8
HETATM    8  C8  UNL     1      21.341   2.662  52.182  1.00  0.00     0.242 C 
BRANCH   8   9
HETATM    9  C9  UNL     1      21.895   4.007  51.707  1.00  0.00     0.100 A 
HETATM   10  N2  UNL     1      22.777   4.716  51.773  1.00  0.00    -0.243 NA
HETATM   11  C10 UNL     1      22.978   5.890  51.203  1.00  0.00     0.075 A 
HETATM   12  C11 UNL     1      24.062   6.739  51.298  1.00  0.00     0.033 A 
HETATM   13  C15 UNL     1      21.955   6.334  50.396  1.00  0.00     0.035 A 
HETATM   14  C12 UNL     1      24.048   7.928  50.603  1.00  0.00     0.002 A 
HETATM   15  C13 UNL     1      23.023   8.373  49.794  1.00  0.00     0.002 A 
HETATM   16  C14 UNL     1      21.929   7.542  49.684  1.00  0.00     0.021 A 
HETATM   17  S1  UNL     1      20.751   4.969  50.535  1.00  0.00    -0.070 SA
ENDBRANCH   8   9
ENDBRANCH   7   8
ENDBRANCH   4   7
BRANCH   1  18
HETATM   18  N1  UNL     1      26.508  -0.749  54.059  1.00  0.00    -0.385 N 
HETATM   19  H5  UNL     1      26.647  -1.779  53.909  1.00  0.00     0.160 HD
BRANCH  18  20
HETATM   20  C3  UNL     1      27.410   0.045  54.868  1.00  0.00     0.170 C 
BRANCH  20  21
HETATM   21  C2  UNL     1      28.736   0.222  54.237  1.00  0.00     0.020 C 
HETATM   22  C1  UNL     1      29.317  -0.821  53.635  1.00  0.00     0.034 C 
HETATM   23 CL1  UNL     1      29.407   1.831  54.359  1.00  0.00    -0.088 Cl
ENDBRANCH  20  21
ENDBRANCH  18  20
ENDBRANCH   1  18
TORSDOF 6
ENDMDL
MODEL 7
REMARK VINA RESULT:      -6.7      3.564      7.623
REMARK  6 active torsions:
REMARK  status: ('A' for Active; 'I' for Inactive)
REMARK    1  A    between atoms: C2_2  and  C3_4 
REMARK    2  A    between atoms: C3_4  and  N1_5 
REMARK    3  A    between atoms: N1_5  and  C4_6 
REMARK    4  A    between atoms: C7_9  and  O1_10 
REMARK    5  A    between atoms: O1_10  and  C8_11 
REMARK    6  A    between atoms: C8_11  and  C9_12 
ROOT
HETATM    1  C4  UNL     1      27.254   6.751  48.194  1.00  0.00     0.028 A 
HETATM    2  C5  UNL     1      27.951   5.560  48.409  1.00  0.00     0.032 A 
HETATM    3  C6  UNL     1      27.262   4.441  48.848  1.00  0.00     0.039 A 
HETATM    4  C7  UNL     1      25.903   4.467  49.081  1.00  0.00     0.069 A 
HETATM    5  C16 UNL     1      25.214   5.633  48.872  1.00  0.00     0.039 A 
HETATM    6  C17 UNL     1      25.884   6.769  48.432  1.00  0.00     0.032 A 
ENDROOT
BRANCH   4   7
HETATM    7  O1  UNL     1      25.429   3.244  49.511  1.00  0.00    -0.345 OA
BRANCH   7   8
HETATM    8  C8  UNL     1      24.735   3.124  50.736  1.00  0.00     0.242 C 
BRANCH   8   9
HETATM    9  C9  UNL     1      25.770   2.525  51.690  1.00  0.00     0.100 A 
HETATM   10  N2  UNL     1      26.794   2.676  52.152  1.00  0.00    -0.243 NA
HETATM   11  C10 UNL     1      27.468   1.929  53.008  1.00  0.00     0.075 A 
HETATM   12  C11 UNL     1      28.717   2.132  53.558  1.00  0.00     0.033 A 
HETATM   13  C15 UNL     1      26.832   0.776  53.409  1.00  0.00     0.035 A 
HETATM   14  C12 UNL     1      29.222   1.202  54.440  1.00  0.00     0.002 A 
HETATM   15  C13 UNL     1      28.585   0.047  54.842  1.00  0.00     0.002 A 
HETATM   16  C14 UNL     1      27.335  -0.178  54.305  1.00  0.00     0.021 A 
HETATM   17  S1  UNL     1      25.261   0.876  52.484  1.00  0.00    -0.070 SA
ENDBRANCH   8   9
ENDBRANCH   7   8
ENDBRANCH   4   7
BRANCH   1  18
HETATM   18  N1  UNL     1      27.911   7.929  47.744  1.00  0.00    -0.385 N 
HETATM   19  H5  UNL     1      27.311   8.711  47.381  1.00  0.00     0.160 HD
BRANCH  18  20
HETATM   20  C3  UNL     1      29.356   8.020  47.795  1.00  0.00     0.170 C 
BRANCH  20  21
HETATM   21  C2  UNL     1      29.842   8.703  49.014  1.00  0.00     0.020 C 
HETATM   22  C1  UNL     1      31.134   8.604  49.347  1.00  0.00     0.034 C 
HETATM   23 CL1  UNL     1      28.626   9.588  49.904  1.00  0.00    -0.088 Cl
ENDBRANCH  20  21
ENDBRANCH  18  20
ENDBRANCH   1  18
TORSDOF 6
ENDMDL
MODEL 8
REMARK VINA RESULT:      -6.7      3.677      7.810
REMARK  6 active torsions:
REMARK  status: ('A' for Active; 'I' for Inactive)
REMARK    1  A    between atoms: C2_2  and  C3_4 
REMARK    2  A    between atoms: C3_4  and  N1_5 
REMARK    3  A    between atoms: N1_5  and  C4_6 
REMARK    4  A    between atoms: C7_9  and  O1_10 
REMARK    5  A    between atoms: O1_10  and  C8_11 
REMARK    6  A    between atoms: C8_11  and  C9_12 
ROOT
HETATM    1  C4  UNL     1      27.173   6.081  48.616  1.00  0.00     0.028 A 
HETATM    2  C5  UNL     1      27.595   4.751  48.695  1.00  0.00     0.032 A 
HETATM    3  C6  UNL     1      26.817   3.833  49.384  1.00  0.00     0.039 A 
HETATM    4  C7  UNL     1      25.635   4.194  49.997  1.00  0.00     0.069 A 
HETATM    5  C16 UNL     1      25.218   5.497  49.924  1.00  0.00     0.039 A 
HETATM    6  C17 UNL     1      25.980   6.435  49.238  1.00  0.00     0.032 A 
ENDROOT
BRANCH   4   7
HETATM    7  O1  UNL     1      25.030   3.122  50.622  1.00  0.00    -0.345 OA
BRANCH   7   8
HETATM    8  C8  UNL     1      25.732   2.343  51.569  1.00  0.00     0.242 C 
BRANCH   8   9
HETATM    9  C9  UNL     1      24.645   1.485  52.220  1.00  0.00     0.100 A 
HETATM   10  N2  UNL     1      24.444   0.686  52.998  1.00  0.00    -0.243 NA
HETATM   11  C10 UNL     1      23.314   0.106  53.361  1.00  0.00     0.075 A 
HETATM   12  C11 UNL     1      23.092  -0.868  54.313  1.00  0.00     0.033 A 
HETATM   13  C15 UNL     1      22.192   0.534  52.688  1.00  0.00     0.035 A 
HETATM   14  C12 UNL     1      21.810  -1.326  54.519  1.00  0.00     0.002 A 
HETATM   15  C13 UNL     1      20.685  -0.897  53.846  1.00  0.00     0.002 A 
HETATM   16  C14 UNL     1      20.882   0.075  52.889  1.00  0.00     0.021 A 
HETATM   17  S1  UNL     1      22.891   1.782  51.553  1.00  0.00    -0.070 SA
ENDBRANCH   8   9
ENDBRANCH   7   8
ENDBRANCH   4   7
BRANCH   1  18
HETATM   18  N1  UNL     1      27.931   7.063  47.923  1.00  0.00    -0.385 N 
HETATM   19  H5  UNL     1      27.405   7.848  47.465  1.00  0.00     0.160 HD
BRANCH  18  20
HETATM   20  C3  UNL     1      29.375   6.960  47.865  1.00  0.00     0.170 C 
BRANCH  20  21
HETATM   21  C2  UNL     1      30.051   7.890  48.796  1.00  0.00     0.020 C 
HETATM   22  C1  UNL     1      31.344   7.705  49.080  1.00  0.00     0.034 C 
HETATM   23 CL1  UNL     1      29.040   9.164  49.437  1.00  0.00    -0.088 Cl
ENDBRANCH  20  21
ENDBRANCH  18  20
ENDBRANCH   1  18
TORSDOF 6
ENDMDL
MODEL 9
REMARK VINA RESULT:      -6.7      1.889      2.210
REMARK  6 active torsions:
REMARK  status: ('A' for Active; 'I' for Inactive)
REMARK    1  A    between atoms: C2_2  and  C3_4 
REMARK    2  A    between atoms: C3_4  and  N1_5 
REMARK    3  A    between atoms: N1_5  and  C4_6 
REMARK    4  A    between atoms: C7_9  and  O1_10 
REMARK    5  A    between atoms: O1_10  and  C8_11 
REMARK    6  A    between atoms: C8_11  and  C9_12 
ROOT
HETATM    1  C4  UNL     1      25.969   0.863  52.843  1.00  0.00     0.028 A 
HETATM    2  C5  UNL     1      26.419   1.244  51.578  1.00  0.00     0.032 A 
HETATM    3  C6  UNL     1      25.733   2.227  50.881  1.00  0.00     0.039 A 
HETATM    4  C7  UNL     1      24.614   2.842  51.402  1.00  0.00     0.069 A 
HETATM    5  C16 UNL     1      24.167   2.470  52.643  1.00  0.00     0.039 A 
HETATM    6  C17 UNL     1      24.839   1.488  53.360  1.00  0.00     0.032 A 
ENDROOT
BRANCH   4   7
HETATM    7  O1  UNL     1      24.095   3.786  50.539  1.00  0.00    -0.345 OA
BRANCH   7   8
HETATM    8  C8  UNL     1      24.102   5.158  50.874  1.00  0.00     0.242 C 
BRANCH   8   9
HETATM    9  C9  UNL     1      25.289   5.724  50.091  1.00  0.00     0.100 A 
HETATM   10  N2  UNL     1      26.196   5.452  49.470  1.00  0.00    -0.243 NA
HETATM   11  C10 UNL     1      27.097   6.221  48.883  1.00  0.00     0.075 A 
HETATM   12  C11 UNL     1      28.197   5.867  48.129  1.00  0.00     0.033 A 
HETATM   13  C15 UNL     1      26.911   7.575  49.050  1.00  0.00     0.035 A 
HETATM   14  C12 UNL     1      29.004   6.857  47.613  1.00  0.00     0.002 A 
HETATM   15  C13 UNL     1      28.818   8.214  47.780  1.00  0.00     0.002 A 
HETATM   16  C14 UNL     1      27.725   8.591  48.531  1.00  0.00     0.021 A 
HETATM   17  S1  UNL     1      25.400   7.621  50.074  1.00  0.00    -0.070 SA
ENDBRANCH   8   9
ENDBRANCH   7   8
ENDBRANCH   4   7
BRANCH   1  18
HETATM   18  N1  UNL     1      26.635  -0.139  53.601  1.00  0.00    -0.385 N 
HETATM   19  H5  UNL     1      26.391  -1.141  53.401  1.00  0.00     0.160 HD
BRANCH  18  20
HETATM   20  C3  UNL     1      27.608   0.236  54.605  1.00  0.00     0.170 C 
BRANCH  20  21
HETATM   21  C2  UNL     1      28.873   0.729  54.018  1.00  0.00     0.020 C 
HETATM   22  C1  UNL     1      29.805  -0.152  53.640  1.00  0.00     0.034 C 
HETATM   23 CL1  UNL     1      29.002   2.467  53.886  1.00  0.00    -0.088 Cl
ENDBRANCH  20  21
ENDBRANCH  18  20
ENDBRANCH   1  18
TORSDOF 6
ENDMDL
