MODEL 1
REMARK VINA RESULT:      -7.2      0.000      0.000
REMARK  3 active torsions:
REMARK  status: ('A' for Active; 'I' for Inactive)
REMARK    1  A    between atoms: C1_2  and  C2_3 
REMARK    2  A    between atoms: C2_3  and  N1_4 
REMARK    3  A    between atoms: N1_4  and  C3_5 
ROOT
HETATM    1  C3  UNL     1      23.012   3.070  51.492  1.00  0.00     0.350 C 
HETATM    2  N2  UNL     1      24.338   2.759  51.924  1.00  0.00    -0.265 NA
HETATM    3  C4  UNL     1      25.348   2.768  51.163  1.00  0.00     0.126 C 
HETATM    4  C5  UNL     1      26.782   2.476  51.432  1.00  0.00     0.108 C 
HETATM    5  N3  UNL     1      26.969   2.166  52.661  1.00  0.00    -0.161 NA
HETATM    6  C6  UNL     1      28.247   1.848  53.151  1.00  0.00     0.195 A 
HETATM    7  N4  UNL     1      27.310   1.194  53.704  1.00  0.00    -0.272 N 
HETATM    8  C7  UNL     1      27.611   0.224  54.737  1.00  0.00     0.413 C 
HETATM    9  N5  UNL     1      26.336  -0.237  55.321  1.00  0.00     0.105 N 
HETATM   10  C8  UNL     1      25.552  -0.868  54.237  1.00  0.00     0.301 C 
HETATM   11  C9  UNL     1      24.186  -1.051  54.741  1.00  0.00     0.030 C 
HETATM   12  C10 UNL     1      23.096  -0.519  54.254  1.00  0.00     0.070 C 
HETATM   13 CL1  UNL     1      21.415  -0.625  54.718  1.00  0.00    -0.081 Cl
HETATM   14  C11 UNL     1      22.569   0.337  53.217  1.00  0.00     0.140 C 
HETATM   15  F1  UNL     1      23.806   0.430  52.707  1.00  0.00    -0.204 F 
HETATM   16  C12 UNL     1      21.825   1.052  52.414  1.00  0.00    -0.031 A 
HETATM   17  C13 UNL     1      20.757   1.798  51.640  1.00  0.00     0.051 A 
HETATM   18  C14 UNL     1      22.148   1.881  51.286  1.00  0.00     0.076 A 
HETATM   19  H11 UNL     1      26.537  -0.919  56.091  1.00  0.00     0.318 HD
ENDROOT
BRANCH   1  20
HETATM   20  N1  UNL     1      22.452   4.138  52.274  1.00  0.00     0.115 N 
HETATM   21  H4  UNL     1      21.809   3.828  53.029  1.00  0.00     0.319 HD
BRANCH  20  22
HETATM   22  C2  UNL     1      21.953   5.254  51.503  1.00  0.00     0.341 C 
BRANCH  22  23
HETATM   23  C1  UNL     1      23.102   5.786  50.726  1.00  0.00     0.261 C 
HETATM   24  O1  UNL     1      23.819   6.348  51.571  1.00  0.00    -0.305 OA
ENDBRANCH  22  23
ENDBRANCH  20  22
ENDBRANCH   1  20
TORSDOF 3
ENDMDL
MODEL 2
REMARK VINA RESULT:      -6.9      2.175      2.901
REMARK  3 active torsions:
REMARK  status: ('A' for Active; 'I' for Inactive)
REMARK    1  A    between atoms: C1_2  and  C2_3 
REMARK    2  A    between atoms: C2_3  and  N1_4 
REMARK    3  A    between atoms: N1_4  and  C3_5 
ROOT
HETATM    1  C3  UNL     1      20.904   1.919  51.280  1.00  0.00     0.350 C 
HETATM    2  N2  UNL     1      22.272   2.287  51.097  1.00  0.00    -0.265 NA
HETATM    3  C4  UNL     1      22.795   2.520  49.969  1.00  0.00     0.126 C 
HETATM    4  C5  UNL     1      24.180   2.909  49.592  1.00  0.00     0.108 C 
HETATM    5  N3  UNL     1      24.931   3.010  50.626  1.00  0.00    -0.161 NA
HETATM    6  C6  UNL     1      26.286   3.366  50.515  1.00  0.00     0.195 A 
HETATM    7  N4  UNL     1      26.047   2.544  51.453  1.00  0.00    -0.272 N 
HETATM    8  C7  UNL     1      27.128   2.061  52.289  1.00  0.00     0.413 C 
HETATM    9  N5  UNL     1      26.539   1.279  53.395  1.00  0.00     0.105 N 
HETATM   10  C8  UNL     1      25.807   0.142  52.795  1.00  0.00     0.301 C 
HETATM   11  C9  UNL     1      24.985  -0.451  53.856  1.00  0.00     0.030 C 
HETATM   12  C10 UNL     1      23.681  -0.542  53.876  1.00  0.00     0.070 C 
HETATM   13 CL1  UNL     1      22.556  -1.205  55.038  1.00  0.00    -0.081 Cl
HETATM   14  C11 UNL     1      22.472  -0.253  53.141  1.00  0.00     0.140 C 
HETATM   15  F1  UNL     1      23.231   0.208  52.135  1.00  0.00    -0.204 F 
HETATM   16  C12 UNL     1      21.242  -0.118  52.717  1.00  0.00    -0.031 A 
HETATM   17  C13 UNL     1      19.750  -0.081  52.461  1.00  0.00     0.051 A 
HETATM   18  C14 UNL     1      20.694   0.471  51.527  1.00  0.00     0.076 A 
HETATM   19  H11 UNL     1      27.307   0.946  54.026  1.00  0.00     0.318 HD
ENDROOT
BRANCH   1  20
HETATM   20  N1  UNL     1      20.242   2.823  52.181  1.00  0.00     0.115 N 
HETATM   21  H4  UNL     1      19.670   2.358  52.914  1.00  0.00     0.319 HD
BRANCH  20  22
HETATM   22  C2  UNL     1      19.581   3.937  51.542  1.00  0.00     0.341 C 
BRANCH  22  23
HETATM   23  C1  UNL     1      18.225   3.469  51.156  1.00  0.00     0.261 C 
HETATM   24  O1  UNL     1      17.500   3.782  52.115  1.00  0.00    -0.305 OA
ENDBRANCH  22  23
ENDBRANCH  20  22
ENDBRANCH   1  20
TORSDOF 3
ENDMDL
MODEL 3
REMARK VINA RESULT:      -6.8      1.700      2.536
REMARK  3 active torsions:
REMARK  status: ('A' for Active; 'I' for Inactive)
REMARK    1  A    between atoms: C1_2  and  C2_3 
REMARK    2  A    between atoms: C2_3  and  N1_4 
REMARK    3  A    between atoms: N1_4  and  C3_5 
ROOT
HETATM    1  C3  UNL     1      24.998   3.670  50.624  1.00  0.00     0.350 C 
HETATM    2  N2  UNL     1      25.491   2.790  51.636  1.00  0.00    -0.265 NA
HETATM    3  C4  UNL     1      26.655   2.295  51.634  1.00  0.00     0.126 C 
HETATM    4  C5  UNL     1      27.331   1.375  52.587  1.00  0.00     0.108 C 
HETATM    5  N3  UNL     1      26.554   1.060  53.557  1.00  0.00    -0.161 NA
HETATM    6  C6  UNL     1      26.977   0.197  54.583  1.00  0.00     0.195 A 
HETATM    7  N4  UNL     1      25.746   0.082  54.290  1.00  0.00    -0.272 N 
HETATM    8  C7  UNL     1      24.918  -0.877  54.994  1.00  0.00     0.413 C 
HETATM    9  N5  UNL     1      23.516  -0.663  54.583  1.00  0.00     0.105 N 
HETATM   10  C8  UNL     1      23.441  -0.893  53.123  1.00  0.00     0.301 C 
HETATM   11  C9  UNL     1      22.136  -0.394  52.674  1.00  0.00     0.030 C 
HETATM   12  C10 UNL     1      21.920   0.569  51.817  1.00  0.00     0.070 C 
HETATM   13 CL1  UNL     1      20.459   1.282  51.176  1.00  0.00    -0.081 Cl
HETATM   14  C11 UNL     1      22.556   1.533  50.948  1.00  0.00     0.140 C 
HETATM   15  F1  UNL     1      23.744   1.015  51.294  1.00  0.00    -0.204 F 
HETATM   16  C12 UNL     1      22.843   2.483  50.097  1.00  0.00    -0.031 A 
HETATM   17  C13 UNL     1      22.907   3.613  49.090  1.00  0.00     0.051 A 
HETATM   18  C14 UNL     1      24.096   3.020  49.642  1.00  0.00     0.076 A 
HETATM   19  H11 UNL     1      22.900  -1.330  55.105  1.00  0.00     0.318 HD
ENDROOT
BRANCH   1  20
HETATM   20  N1  UNL     1      24.534   4.906  51.196  1.00  0.00     0.115 N 
HETATM   21  H4  UNL     1      23.537   4.898  51.487  1.00  0.00     0.319 HD
BRANCH  20  22
HETATM   22  C2  UNL     1      24.922   6.092  50.468  1.00  0.00     0.341 C 
BRANCH  22  23
HETATM   23  C1  UNL     1      23.953   7.156  50.832  1.00  0.00     0.261 C 
HETATM   24  O1  UNL     1      22.908   6.545  51.116  1.00  0.00    -0.305 OA
ENDBRANCH  22  23
ENDBRANCH  20  22
ENDBRANCH   1  20
TORSDOF 3
ENDMDL
MODEL 4
REMARK VINA RESULT:      -6.7      2.817      5.639
REMARK  3 active torsions:
REMARK  status: ('A' for Active; 'I' for Inactive)
REMARK    1  A    between atoms: C1_2  and  C2_3 
REMARK    2  A    between atoms: C2_3  and  N1_4 
REMARK    3  A    between atoms: N1_4  and  C3_5 
ROOT
HETATM    1  C3  UNL     1      26.472   0.575  53.173  1.00  0.00     0.350 C 
HETATM    2  N2  UNL     1      25.846   1.301  52.112  1.00  0.00    -0.265 NA
HETATM    3  C4  UNL     1      26.063   2.523  51.870  1.00  0.00     0.126 C 
HETATM    4  C5  UNL     1      25.513   3.429  50.827  1.00  0.00     0.108 C 
HETATM    5  N3  UNL     1      24.679   2.814  50.073  1.00  0.00    -0.161 NA
HETATM    6  C6  UNL     1      24.028   3.469  49.013  1.00  0.00     0.195 A 
HETATM    7  N4  UNL     1      23.317   2.584  49.583  1.00  0.00    -0.272 N 
HETATM    8  C7  UNL     1      21.965   2.332  49.125  1.00  0.00     0.413 C 
HETATM    9  N5  UNL     1      21.454   1.143  49.835  1.00  0.00     0.105 N 
HETATM   10  C8  UNL     1      21.457   1.452  51.282  1.00  0.00     0.301 C 
HETATM   11  C9  UNL     1      21.240   0.188  51.995  1.00  0.00     0.030 C 
HETATM   12  C10 UNL     1      22.058  -0.384  52.838  1.00  0.00     0.070 C 
HETATM   13 CL1  UNL     1      21.965  -1.863  53.764  1.00  0.00    -0.081 Cl
HETATM   14  C11 UNL     1      23.337  -0.264  53.499  1.00  0.00     0.140 C 
HETATM   15  F1  UNL     1      23.493   0.933  52.914  1.00  0.00    -0.204 F 
HETATM   16  C12 UNL     1      24.414  -0.421  54.223  1.00  0.00    -0.031 A 
HETATM   17  C13 UNL     1      25.545  -0.835  55.142  1.00  0.00     0.051 A 
HETATM   18  C14 UNL     1      25.606   0.370  54.360  1.00  0.00     0.076 A 
HETATM   19  H11 UNL     1      20.486   0.929  49.494  1.00  0.00     0.318 HD
ENDROOT
BRANCH   1  20
HETATM   20  N1  UNL     1      27.153  -0.588  52.671  1.00  0.00     0.115 N 
HETATM   21  H4  UNL     1      26.594  -1.462  52.705  1.00  0.00     0.319 HD
BRANCH  20  22
HETATM   22  C2  UNL     1      28.511  -0.742  53.140  1.00  0.00     0.341 C 
BRANCH  22  23
HETATM   23  C1  UNL     1      28.794  -2.200  53.165  1.00  0.00     0.261 C 
HETATM   24  O1  UNL     1      27.695  -2.736  52.942  1.00  0.00    -0.305 OA
ENDBRANCH  22  23
ENDBRANCH  20  22
ENDBRANCH   1  20
TORSDOF 3
ENDMDL
MODEL 5
REMARK VINA RESULT:      -6.7      2.998      5.772
REMARK  3 active torsions:
REMARK  status: ('A' for Active; 'I' for Inactive)
REMARK    1  A    between atoms: C1_2  and  C2_3 
REMARK    2  A    between atoms: C2_3  and  N1_4 
REMARK    3  A    between atoms: N1_4  and  C3_5 
ROOT
HETATM    1  C3  UNL     1      26.374   1.632  52.292  1.00  0.00     0.350 C 
HETATM    2  N2  UNL     1      25.201   1.048  52.863  1.00  0.00    -0.265 NA
HETATM    3  C4  UNL     1      25.048  -0.194  53.042  1.00  0.00     0.126 C 
HETATM    4  C5  UNL     1      23.915  -0.970  53.613  1.00  0.00     0.108 C 
HETATM    5  N3  UNL     1      22.954  -0.197  53.964  1.00  0.00    -0.161 NA
HETATM    6  C6  UNL     1      21.773  -0.707  54.530  1.00  0.00     0.195 A 
HETATM    7  N4  UNL     1      21.592   0.315  53.798  1.00  0.00    -0.272 N 
HETATM    8  C7  UNL     1      20.256   0.848  53.611  1.00  0.00     0.413 C 
HETATM    9  N5  UNL     1      20.370   2.126  52.881  1.00  0.00     0.105 N 
HETATM   10  C8  UNL     1      20.995   1.836  51.571  1.00  0.00     0.301 C 
HETATM   11  C9  UNL     1      21.377   3.124  50.980  1.00  0.00     0.030 C 
HETATM   12  C10 UNL     1      22.587   3.514  50.672  1.00  0.00     0.070 C 
HETATM   13 CL1  UNL     1      23.215   4.987  49.974  1.00  0.00    -0.081 Cl
HETATM   14  C11 UNL     1      23.978   3.128  50.661  1.00  0.00     0.140 C 
HETATM   15  F1  UNL     1      23.615   1.920  51.119  1.00  0.00    -0.204 F 
HETATM   16  C12 UNL     1      25.277   3.056  50.532  1.00  0.00    -0.031 A 
HETATM   17  C13 UNL     1      26.762   3.226  50.283  1.00  0.00     0.051 A 
HETATM   18  C14 UNL     1      26.223   2.029  50.870  1.00  0.00     0.076 A 
HETATM   19  H11 UNL     1      19.414   2.539  52.762  1.00  0.00     0.318 HD
ENDROOT
BRANCH   1  20
HETATM   20  N1  UNL     1      26.942   2.617  53.173  1.00  0.00     0.115 N 
HETATM   21  H4  UNL     1      26.738   3.600  52.907  1.00  0.00     0.319 HD
BRANCH  20  22
HETATM   22  C2  UNL     1      28.321   2.381  53.533  1.00  0.00     0.341 C 
BRANCH  22  23
HETATM   23  C1  UNL     1      28.511   0.908  53.565  1.00  0.00     0.261 C 
HETATM   24  O1  UNL     1      29.710   0.754  53.854  1.00  0.00    -0.305 OA
ENDBRANCH  22  23
ENDBRANCH  20  22
ENDBRANCH   1  20
TORSDOF 3
ENDMDL
MODEL 6
REMARK VINA RESULT:      -6.3      3.079      4.804
REMARK  3 active torsions:
REMARK  status: ('A' for Active; 'I' for Inactive)
REMARK    1  A    between atoms: C1_2  and  C2_3 
REMARK    2  A    between atoms: C2_3  and  N1_4 
REMARK    3  A    between atoms: N1_4  and  C3_5 
ROOT
HETATM    1  C3  UNL     1      23.565   3.589  50.301  1.00  0.00     0.350 C 
HETATM    2  N2  UNL     1      22.552   2.870  51.008  1.00  0.00    -0.265 NA
HETATM    3  C4  UNL     1      21.608   3.423  51.642  1.00  0.00     0.126 C 
HETATM    4  C5  UNL     1      20.483   2.845  52.424  1.00  0.00     0.108 C 
HETATM    5  N3  UNL     1      20.527   1.564  52.424  1.00  0.00    -0.161 NA
HETATM    6  C6  UNL     1      19.563   0.797  53.102  1.00  0.00     0.195 A 
HETATM    7  N4  UNL     1      20.726   0.286  53.112  1.00  0.00    -0.272 N 
HETATM    8  C7  UNL     1      20.958  -0.978  53.784  1.00  0.00     0.413 C 
HETATM    9  N5  UNL     1      22.334  -1.415  53.476  1.00  0.00     0.105 N 
HETATM   10  C8  UNL     1      23.256  -0.381  53.994  1.00  0.00     0.301 C 
HETATM   11  C9  UNL     1      24.582  -0.663  53.431  1.00  0.00     0.030 C 
HETATM   12  C10 UNL     1      25.281   0.117  52.648  1.00  0.00     0.070 C 
HETATM   13 CL1  UNL     1      26.849  -0.054  51.897  1.00  0.00    -0.081 Cl
HETATM   14  C11 UNL     1      25.301   1.397  51.980  1.00  0.00     0.140 C 
HETATM   15  F1  UNL     1      24.130   1.687  52.567  1.00  0.00    -0.204 F 
HETATM   16  C12 UNL     1      25.591   2.460  51.276  1.00  0.00    -0.031 A 
HETATM   17  C13 UNL     1      26.156   3.559  50.400  1.00  0.00     0.051 A 
HETATM   18  C14 UNL     1      24.862   3.670  51.016  1.00  0.00     0.076 A 
HETATM   19  H11 UNL     1      22.509  -2.343  53.932  1.00  0.00     0.318 HD
ENDROOT
BRANCH   1  20
HETATM   20  N1  UNL     1      23.621   3.181  48.923  1.00  0.00     0.115 N 
HETATM   21  H4  UNL     1      24.581   3.111  48.533  1.00  0.00     0.319 HD
BRANCH  20  22
HETATM   22  C2  UNL     1      22.684   3.857  48.055  1.00  0.00     0.341 C 
BRANCH  22  23
HETATM   23  C1  UNL     1      21.897   2.801  47.367  1.00  0.00     0.261 C 
HETATM   24  O1  UNL     1      22.612   1.786  47.430  1.00  0.00    -0.305 OA
ENDBRANCH  22  23
ENDBRANCH  20  22
ENDBRANCH   1  20
TORSDOF 3
ENDMDL
MODEL 7
REMARK VINA RESULT:      -6.2      2.982      4.606
REMARK  3 active torsions:
REMARK  status: ('A' for Active; 'I' for Inactive)
REMARK    1  A    between atoms: C1_2  and  C2_3 
REMARK    2  A    between atoms: C2_3  and  N1_4 
REMARK    3  A    between atoms: N1_4  and  C3_5 
ROOT
HETATM    1  C3  UNL     1      19.188   1.977  50.742  1.00  0.00     0.350 C 
HETATM    2  N2  UNL     1      20.378   2.663  50.349  1.00  0.00    -0.265 NA
HETATM    3  C4  UNL     1      20.679   2.922  49.149  1.00  0.00     0.126 C 
HETATM    4  C5  UNL     1      21.856   3.616  48.560  1.00  0.00     0.108 C 
HETATM    5  N3  UNL     1      22.675   3.993  49.471  1.00  0.00    -0.161 NA
HETATM    6  C6  UNL     1      23.864   4.671  49.152  1.00  0.00     0.195 A 
HETATM    7  N4  UNL     1      23.967   3.899  50.156  1.00  0.00    -0.272 N 
HETATM    8  C7  UNL     1      25.231   3.781  50.856  1.00  0.00     0.413 C 
HETATM    9  N5  UNL     1      25.008   2.975  52.073  1.00  0.00     0.105 N 
HETATM   10  C8  UNL     1      24.533   1.641  51.642  1.00  0.00     0.301 C 
HETATM   11  C9  UNL     1      24.033   0.954  52.838  1.00  0.00     0.030 C 
HETATM   12  C10 UNL     1      22.811   0.537  53.047  1.00  0.00     0.070 C 
HETATM   13 CL1  UNL     1      22.051  -0.285  54.388  1.00  0.00    -0.081 Cl
HETATM   14  C11 UNL     1      21.488   0.445  52.475  1.00  0.00     0.140 C 
HETATM   15  F1  UNL     1      21.969   0.994  51.349  1.00  0.00    -0.204 F 
HETATM   16  C12 UNL     1      20.224   0.226  52.222  1.00  0.00    -0.031 A 
HETATM   17  C13 UNL     1      18.754  -0.139  52.177  1.00  0.00     0.051 A 
HETATM   18  C14 UNL     1      19.398   0.551  51.092  1.00  0.00     0.076 A 
HETATM   19  H11 UNL     1      25.907   2.903  52.606  1.00  0.00     0.318 HD
ENDROOT
BRANCH   1  20
HETATM   20  N1  UNL     1      18.427   2.759  51.679  1.00  0.00     0.115 N 
HETATM   21  H4  UNL     1      18.076   2.226  52.499  1.00  0.00     0.319 HD
BRANCH  20  22
HETATM   22  C2  UNL     1      17.440   3.628  51.080  1.00  0.00     0.341 C 
BRANCH  22  23
HETATM   23  C1  UNL     1      16.209   3.511  51.903  1.00  0.00     0.261 C 
HETATM   24  O1  UNL     1      16.304   4.425  52.740  1.00  0.00    -0.305 OA
ENDBRANCH  22  23
ENDBRANCH  20  22
ENDBRANCH   1  20
TORSDOF 3
ENDMDL
MODEL 8
REMARK VINA RESULT:      -6.2      2.886      5.495
REMARK  3 active torsions:
REMARK  status: ('A' for Active; 'I' for Inactive)
REMARK    1  A    between atoms: C1_2  and  C2_3 
REMARK    2  A    between atoms: C2_3  and  N1_4 
REMARK    3  A    between atoms: N1_4  and  C3_5 
ROOT
HETATM    1  C3  UNL     1      23.790   3.685  51.427  1.00  0.00     0.350 C 
HETATM    2  N2  UNL     1      22.406   3.514  51.114  1.00  0.00    -0.265 NA
HETATM    3  C4  UNL     1      21.556   4.449  51.146  1.00  0.00     0.126 C 
HETATM    4  C5  UNL     1      20.097   4.459  50.857  1.00  0.00     0.108 C 
HETATM    5  N3  UNL     1      19.682   3.292  50.525  1.00  0.00    -0.161 NA
HETATM    6  C6  UNL     1      18.334   3.056  50.207  1.00  0.00     0.195 A 
HETATM    7  N4  UNL     1      18.900   2.083  50.793  1.00  0.00    -0.272 N 
HETATM    8  C7  UNL     1      18.156   0.871  51.074  1.00  0.00     0.413 C 
HETATM    9  N5  UNL     1      19.102  -0.142  51.582  1.00  0.00     0.105 N 
HETATM   10  C8  UNL     1      19.703   0.392  52.824  1.00  0.00     0.301 C 
HETATM   11  C9  UNL     1      20.844  -0.469  53.156  1.00  0.00     0.030 C 
HETATM   12  C10 UNL     1      22.098  -0.107  53.237  1.00  0.00     0.070 C 
HETATM   13 CL1  UNL     1      23.563  -0.982  53.614  1.00  0.00    -0.081 Cl
HETATM   14  C11 UNL     1      23.009   1.008  53.120  1.00  0.00     0.140 C 
HETATM   15  F1  UNL     1      21.953   1.808  52.903  1.00  0.00    -0.204 F 
HETATM   16  C12 UNL     1      24.043   1.807  53.083  1.00  0.00    -0.031 A 
HETATM   17  C13 UNL     1      25.385   2.510  53.101  1.00  0.00     0.051 A 
HETATM   18  C14 UNL     1      24.168   3.206  52.780  1.00  0.00     0.076 A 
HETATM   19  H11 UNL     1      18.584  -1.035  51.764  1.00  0.00     0.318 HD
ENDROOT
BRANCH   1  20
HETATM   20  N1  UNL     1      24.623   3.248  50.339  1.00  0.00     0.115 N 
HETATM   21  H4  UNL     1      25.024   2.297  50.459  1.00  0.00     0.319 HD
BRANCH  20  22
HETATM   22  C2  UNL     1      25.575   4.231  49.876  1.00  0.00     0.341 C 
BRANCH  22  23
HETATM   23  C1  UNL     1      26.772   3.484  49.412  1.00  0.00     0.261 C 
HETATM   24  O1  UNL     1      27.530   4.358  48.958  1.00  0.00    -0.305 OA
ENDBRANCH  22  23
ENDBRANCH  20  22
ENDBRANCH   1  20
TORSDOF 3
ENDMDL
MODEL 9
REMARK VINA RESULT:      -6.2      3.386      6.317
REMARK  3 active torsions:
REMARK  status: ('A' for Active; 'I' for Inactive)
REMARK    1  A    between atoms: C1_2  and  C2_3 
REMARK    2  A    between atoms: C2_3  and  N1_4 
REMARK    3  A    between atoms: N1_4  and  C3_5 
ROOT
HETATM    1  C3  UNL     1      22.629   0.725  53.256  1.00  0.00     0.350 C 
HETATM    2  N2  UNL     1      22.010   1.457  52.196  1.00  0.00    -0.265 NA
HETATM    3  C4  UNL     1      22.115   2.708  52.048  1.00  0.00     0.126 C 
HETATM    4  C5  UNL     1      21.550   3.625  51.022  1.00  0.00     0.108 C 
HETATM    5  N3  UNL     1      20.842   2.984  50.167  1.00  0.00    -0.161 NA
HETATM    6  C6  UNL     1      20.205   3.643  49.101  1.00  0.00     0.195 A 
HETATM    7  N4  UNL     1      19.551   2.654  49.557  1.00  0.00    -0.272 N 
HETATM    8  C7  UNL     1      18.270   2.301  48.978  1.00  0.00     0.413 C 
HETATM    9  N5  UNL     1      17.836   1.020  49.570  1.00  0.00     0.105 N 
HETATM   10  C8  UNL     1      17.701   1.227  51.029  1.00  0.00     0.301 C 
HETATM   11  C9  UNL     1      17.566  -0.099  51.643  1.00  0.00     0.030 C 
HETATM   12  C10 UNL     1      18.377  -0.644  52.512  1.00  0.00     0.070 C 
HETATM   13 CL1  UNL     1      18.372  -2.186  53.334  1.00  0.00    -0.081 Cl
HETATM   14  C11 UNL     1      19.584  -0.443  53.279  1.00  0.00     0.140 C 
HETATM   15  F1  UNL     1      19.655   0.801  52.783  1.00  0.00    -0.204 F 
HETATM   16  C12 UNL     1      20.616  -0.542  54.076  1.00  0.00    -0.031 A 
HETATM   17  C13 UNL     1      21.714  -0.904  55.054  1.00  0.00     0.051 A 
HETATM   18  C14 UNL     1      21.705   0.352  54.355  1.00  0.00     0.076 A 
HETATM   19  H11 UNL     1      16.924   0.735  49.141  1.00  0.00     0.318 HD
ENDROOT
BRANCH   1  20
HETATM   20  N1  UNL     1      23.463  -0.326  52.739  1.00  0.00     0.115 N 
HETATM   21  H4  UNL     1      23.041  -1.274  52.788  1.00  0.00     0.319 HD
BRANCH  20  22
HETATM   22  C2  UNL     1      24.839  -0.275  53.176  1.00  0.00     0.341 C 
BRANCH  22  23
HETATM   23  C1  UNL     1      25.564   0.592  52.212  1.00  0.00     0.261 C 
HETATM   24  O1  UNL     1      26.573  -0.062  51.899  1.00  0.00    -0.305 OA
ENDBRANCH  22  23
ENDBRANCH  20  22
ENDBRANCH   1  20
TORSDOF 3
ENDMDL
