MODEL 1
REMARK VINA RESULT:      -7.9      0.000      0.000
REMARK  9 active torsions:
REMARK  status: ('A' for Active; 'I' for Inactive)
REMARK    1  A    between atoms: O1_2  and  C2_3 
REMARK    2  A    between atoms: C6_9  and  N3_10 
REMARK    3  A    between atoms: N3_10  and  C7_11 
REMARK    4  A    between atoms: C7_11  and  C8_12 
REMARK    5  A    between atoms: C15_22  and  O3_23 
REMARK    6  A    between atoms: O3_23  and  C16_24 
REMARK    7  A    between atoms: C16_24  and  C17_25 
REMARK    8  A    between atoms: C17_25  and  C18_26 
REMARK    9  A    between atoms: C18_26  and  N4_27 
ROOT
HETATM    1  C2  UNL     1      22.033   0.111  53.167  1.00  0.00     0.103 A 
HETATM    2  C3  UNL     1      20.888   0.768  52.766  1.00  0.00     0.072 A 
HETATM    3  C4  UNL     1      20.886   2.062  52.299  1.00  0.00     0.075 A 
HETATM    4  N1  UNL     1      19.757   2.681  51.915  1.00  0.00    -0.241 NA
HETATM    5  C5  UNL     1      19.764   3.946  51.461  1.00  0.00     0.235 A 
HETATM    6  N2  UNL     1      20.918   4.623  51.382  1.00  0.00    -0.224 NA
HETATM    7  C6  UNL     1      22.095   4.089  51.742  1.00  0.00     0.137 A 
HETATM    8  C13 UNL     1      22.047   2.792  52.201  1.00  0.00     0.041 A 
HETATM    9  C14 UNL     1      23.189   2.145  52.598  1.00  0.00     0.057 A 
HETATM   10  C15 UNL     1      23.247   0.833  53.080  1.00  0.00     0.103 A 
ENDROOT
BRANCH   7  11
HETATM   11  N3  UNL     1      23.300   4.845  51.646  1.00  0.00    -0.370 N 
HETATM   12  H6  UNL     1      24.034   4.899  52.377  1.00  0.00     0.161 HD
BRANCH  11  13
HETATM   13  C7  UNL     1      23.510   5.598  50.427  1.00  0.00     0.160 C 
BRANCH  13  14
HETATM   14  C8  UNL     1      24.734   5.127  49.771  1.00  0.00    -0.007 C 
HETATM   15  C9  UNL     1      25.831   5.867  49.649  1.00  0.00     0.042 C 
HETATM   16 CL1  UNL     1      25.891   7.501  50.281  1.00  0.00    -0.086 Cl
HETATM   17  C10 UNL     1      27.026   5.299  48.967  1.00  0.00     0.219 C 
HETATM   18  O2  UNL     1      27.284   3.987  49.268  1.00  0.00    -0.383 OA
HETATM   19  C11 UNL     1      26.223   3.257  49.746  1.00  0.00     0.210 C 
HETATM   20  C12 UNL     1      24.901   3.774  49.166  1.00  0.00     0.226 C 
HETATM   21  F1  UNL     1      23.875   2.916  49.426  1.00  0.00    -0.242 F 
ENDBRANCH  13  14
ENDBRANCH  11  13
ENDBRANCH   7  11
BRANCH  10  22
HETATM   22  O3  UNL     1      24.316   0.207  53.461  1.00  0.00    -0.348 OA
BRANCH  22  23
HETATM   23  C16 UNL     1      25.296  -0.672  53.416  1.00  0.00     0.177 C 
BRANCH  23  24
HETATM   24  C17 UNL     1      26.277  -0.686  52.267  1.00  0.00     0.057 C 
BRANCH  24  25
HETATM   25  C18 UNL     1      27.648  -0.318  52.665  1.00  0.00     0.277 C 
BRANCH  25  26
HETATM   26  N4  UNL     1      27.732   0.725  53.657  1.00  0.00     0.113 N 
HETATM   27  C19 UNL     1      28.675   0.544  54.692  1.00  0.00     0.301 C 
HETATM   28  C20 UNL     1      29.512   1.785  54.675  1.00  0.00     0.200 C 
HETATM   29  O4  UNL     1      28.679   2.724  54.100  1.00  0.00    -0.361 OA
HETATM   30  C21 UNL     1      27.888   2.048  53.143  1.00  0.00     0.440 C 
ENDBRANCH  25  26
ENDBRANCH  24  25
ENDBRANCH  23  24
ENDBRANCH  22  23
ENDBRANCH  10  22
BRANCH   1  31
HETATM   31  O1  UNL     1      22.109  -1.172  53.640  1.00  0.00    -0.353 OA
HETATM   32  C1  UNL     1      21.716  -1.541  54.918  1.00  0.00     0.210 C 
ENDBRANCH   1  31
TORSDOF 9
ENDMDL
MODEL 2
REMARK VINA RESULT:      -7.6      2.833      6.070
REMARK  9 active torsions:
REMARK  status: ('A' for Active; 'I' for Inactive)
REMARK    1  A    between atoms: O1_2  and  C2_3 
REMARK    2  A    between atoms: C6_9  and  N3_10 
REMARK    3  A    between atoms: N3_10  and  C7_11 
REMARK    4  A    between atoms: C7_11  and  C8_12 
REMARK    5  A    between atoms: C15_22  and  O3_23 
REMARK    6  A    between atoms: O3_23  and  C16_24 
REMARK    7  A    between atoms: C16_24  and  C17_25 
REMARK    8  A    between atoms: C17_25  and  C18_26 
REMARK    9  A    between atoms: C18_26  and  N4_27 
ROOT
HETATM    1  C2  UNL     1      20.144  -0.561  53.241  1.00  0.00     0.103 A 
HETATM    2  C3  UNL     1      20.851  -1.045  54.323  1.00  0.00     0.072 A 
HETATM    3  C4  UNL     1      22.220  -0.963  54.426  1.00  0.00     0.075 A 
HETATM    4  N1  UNL     1      22.886  -1.444  55.490  1.00  0.00    -0.241 NA
HETATM    5  C5  UNL     1      24.224  -1.361  55.583  1.00  0.00     0.235 A 
HETATM    6  N2  UNL     1      24.930  -0.787  54.598  1.00  0.00    -0.224 NA
HETATM    7  C6  UNL     1      24.353  -0.279  53.499  1.00  0.00     0.137 A 
HETATM    8  C13 UNL     1      22.982  -0.382  53.440  1.00  0.00     0.041 A 
HETATM    9  C14 UNL     1      22.286   0.102  52.362  1.00  0.00     0.057 A 
HETATM   10  C15 UNL     1      20.897   0.044  52.206  1.00  0.00     0.103 A 
ENDROOT
BRANCH   7  11
HETATM   11  N3  UNL     1      25.141   0.321  52.472  1.00  0.00    -0.370 N 
HETATM   12  H6  UNL     1      24.882   1.173  51.937  1.00  0.00     0.161 HD
BRANCH  11  13
HETATM   13  C7  UNL     1      26.401  -0.315  52.152  1.00  0.00     0.160 C 
BRANCH  13  14
HETATM   14  C8  UNL     1      27.491   0.413  52.809  1.00  0.00    -0.007 C 
HETATM   15  C9  UNL     1      27.591   1.739  52.808  1.00  0.00     0.042 C 
HETATM   16 CL1  UNL     1      26.395   2.733  52.000  1.00  0.00    -0.086 Cl
HETATM   17  C10 UNL     1      28.737   2.388  53.504  1.00  0.00     0.219 C 
HETATM   18  O2  UNL     1      29.071   1.817  54.704  1.00  0.00    -0.383 OA
HETATM   19  C11 UNL     1      28.665   0.517  54.889  1.00  0.00     0.210 C 
HETATM   20  C12 UNL     1      28.611  -0.232  53.553  1.00  0.00     0.226 C 
HETATM   21  F1  UNL     1      28.457  -1.572  53.740  1.00  0.00    -0.242 F 
ENDBRANCH  13  14
ENDBRANCH  11  13
ENDBRANCH   7  11
BRANCH  10  22
HETATM   22  O3  UNL     1      20.224   0.494  51.195  1.00  0.00    -0.348 OA
BRANCH  22  23
HETATM   23  C16 UNL     1      19.845   1.346  50.263  1.00  0.00     0.177 C 
BRANCH  23  24
HETATM   24  C17 UNL     1      19.407   2.747  50.619  1.00  0.00     0.057 C 
BRANCH  24  25
HETATM   25  C18 UNL     1      20.075   3.789  49.820  1.00  0.00     0.277 C 
BRANCH  25  26
HETATM   26  N4  UNL     1      21.216   4.402  50.453  1.00  0.00     0.113 N 
HETATM   27  C19 UNL     1      21.283   4.319  51.861  1.00  0.00     0.301 C 
HETATM   28  C20 UNL     1      22.626   3.722  52.150  1.00  0.00     0.200 C 
HETATM   29  O4  UNL     1      23.368   4.048  51.032  1.00  0.00    -0.361 OA
HETATM   30  C21 UNL     1      22.487   4.022  49.926  1.00  0.00     0.440 C 
ENDBRANCH  25  26
ENDBRANCH  24  25
ENDBRANCH  23  24
ENDBRANCH  22  23
ENDBRANCH  10  22
BRANCH   1  31
HETATM   31  O1  UNL     1      18.787  -0.607  53.072  1.00  0.00    -0.353 OA
HETATM   32  C1  UNL     1      17.995  -1.657  53.515  1.00  0.00     0.210 C 
ENDBRANCH   1  31
TORSDOF 9
ENDMDL
MODEL 3
REMARK VINA RESULT:      -7.6      3.147      6.465
REMARK  9 active torsions:
REMARK  status: ('A' for Active; 'I' for Inactive)
REMARK    1  A    between atoms: O1_2  and  C2_3 
REMARK    2  A    between atoms: C6_9  and  N3_10 
REMARK    3  A    between atoms: N3_10  and  C7_11 
REMARK    4  A    between atoms: C7_11  and  C8_12 
REMARK    5  A    between atoms: C15_22  and  O3_23 
REMARK    6  A    between atoms: O3_23  and  C16_24 
REMARK    7  A    between atoms: C16_24  and  C17_25 
REMARK    8  A    between atoms: C17_25  and  C18_26 
REMARK    9  A    between atoms: C18_26  and  N4_27 
ROOT
HETATM    1  C2  UNL     1      27.003   0.823  53.254  1.00  0.00     0.103 A 
HETATM    2  C3  UNL     1      26.593   0.068  54.333  1.00  0.00     0.072 A 
HETATM    3  C4  UNL     1      25.305  -0.389  54.487  1.00  0.00     0.075 A 
HETATM    4  N1  UNL     1      24.929  -1.123  55.548  1.00  0.00    -0.241 NA
HETATM    5  C5  UNL     1      23.668  -1.565  55.691  1.00  0.00     0.235 A 
HETATM    6  N2  UNL     1      22.747  -1.276  54.761  1.00  0.00    -0.224 NA
HETATM    7  C6  UNL     1      23.028  -0.550  53.668  1.00  0.00     0.137 A 
HETATM    8  C13 UNL     1      24.329  -0.116  53.557  1.00  0.00     0.041 A 
HETATM    9  C14 UNL     1      24.730   0.635  52.481  1.00  0.00     0.057 A 
HETATM   10  C15 UNL     1      26.024   1.124  52.276  1.00  0.00     0.103 A 
ENDROOT
BRANCH   7  11
HETATM   11  N3  UNL     1      22.018  -0.262  52.703  1.00  0.00    -0.370 N 
HETATM   12  H6  UNL     1      22.006  -0.609  51.725  1.00  0.00     0.161 HD
BRANCH  11  13
HETATM   13  C7  UNL     1      20.925   0.587  53.128  1.00  0.00     0.160 C 
BRANCH  13  14
HETATM   14  C8  UNL     1      20.576   1.509  52.042  1.00  0.00    -0.007 C 
HETATM   15  C9  UNL     1      19.534   1.331  51.237  1.00  0.00     0.042 C 
HETATM   16 CL1  UNL     1      18.475  -0.053  51.425  1.00  0.00    -0.086 Cl
HETATM   17  C10 UNL     1      19.261   2.324  50.161  1.00  0.00     0.219 C 
HETATM   18  O2  UNL     1      19.448   3.630  50.531  1.00  0.00    -0.383 OA
HETATM   19  C11 UNL     1      20.268   3.840  51.614  1.00  0.00     0.210 C 
HETATM   20  C12 UNL     1      21.338   2.746  51.707  1.00  0.00     0.226 C 
HETATM   21  F1  UNL     1      22.302   3.070  52.613  1.00  0.00    -0.242 F 
ENDBRANCH  13  14
ENDBRANCH  11  13
ENDBRANCH   7  11
BRANCH  10  22
HETATM   22  O3  UNL     1      26.420   1.835  51.268  1.00  0.00    -0.348 OA
BRANCH  22  23
HETATM   23  C16 UNL     1      26.574   2.907  50.517  1.00  0.00     0.177 C 
BRANCH  23  24
HETATM   24  C17 UNL     1      25.406   3.513  49.775  1.00  0.00     0.057 C 
BRANCH  24  25
HETATM   25  C18 UNL     1      25.694   4.848  49.222  1.00  0.00     0.277 C 
BRANCH  25  26
HETATM   26  N4  UNL     1      24.719   5.861  49.543  1.00  0.00     0.113 N 
HETATM   27  C19 UNL     1      23.460   5.411  49.998  1.00  0.00     0.301 C 
HETATM   28  C20 UNL     1      23.242   6.122  51.297  1.00  0.00     0.200 C 
HETATM   29  O4  UNL     1      24.029   7.252  51.179  1.00  0.00    -0.361 OA
HETATM   30  C21 UNL     1      25.168   6.887  50.427  1.00  0.00     0.440 C 
ENDBRANCH  25  26
ENDBRANCH  24  25
ENDBRANCH  23  24
ENDBRANCH  22  23
ENDBRANCH  10  22
BRANCH   1  31
HETATM   31  O1  UNL     1      28.264   1.310  53.036  1.00  0.00    -0.353 OA
HETATM   32  C1  UNL     1      28.793   2.398  53.716  1.00  0.00     0.210 C 
ENDBRANCH   1  31
TORSDOF 9
ENDMDL
MODEL 4
REMARK VINA RESULT:      -7.5      2.374      5.600
REMARK  9 active torsions:
REMARK  status: ('A' for Active; 'I' for Inactive)
REMARK    1  A    between atoms: O1_2  and  C2_3 
REMARK    2  A    between atoms: C6_9  and  N3_10 
REMARK    3  A    between atoms: N3_10  and  C7_11 
REMARK    4  A    between atoms: C7_11  and  C8_12 
REMARK    5  A    between atoms: C15_22  and  O3_23 
REMARK    6  A    between atoms: O3_23  and  C16_24 
REMARK    7  A    between atoms: C16_24  and  C17_25 
REMARK    8  A    between atoms: C17_25  and  C18_26 
REMARK    9  A    between atoms: C18_26  and  N4_27 
ROOT
HETATM    1  C2  UNL     1      22.845   0.068  53.240  1.00  0.00     0.103 A 
HETATM    2  C3  UNL     1      24.092  -0.495  53.415  1.00  0.00     0.072 A 
HETATM    3  C4  UNL     1      25.259   0.122  53.027  1.00  0.00     0.075 A 
HETATM    4  N1  UNL     1      26.462  -0.448  53.208  1.00  0.00    -0.241 NA
HETATM    5  C5  UNL     1      27.598   0.161  52.825  1.00  0.00     0.235 A 
HETATM    6  N2  UNL     1      27.548   1.369  52.245  1.00  0.00    -0.224 NA
HETATM    7  C6  UNL     1      26.393   2.016  52.023  1.00  0.00     0.137 A 
HETATM    8  C13 UNL     1      25.253   1.360  52.429  1.00  0.00     0.041 A 
HETATM    9  C14 UNL     1      24.016   1.926  52.252  1.00  0.00     0.057 A 
HETATM   10  C15 UNL     1      22.801   1.344  52.627  1.00  0.00     0.103 A 
ENDROOT
BRANCH   7  11
HETATM   11  N3  UNL     1      26.382   3.298  51.399  1.00  0.00    -0.370 N 
HETATM   12  H6  UNL     1      26.451   4.207  51.896  1.00  0.00     0.161 HD
BRANCH  11  13
HETATM   13  C7  UNL     1      26.264   3.328  49.957  1.00  0.00     0.160 C 
BRANCH  13  14
HETATM   14  C8  UNL     1      25.819   4.660  49.535  1.00  0.00    -0.007 C 
HETATM   15  C9  UNL     1      26.598   5.521  48.887  1.00  0.00     0.042 C 
HETATM   16 CL1  UNL     1      28.253   5.113  48.483  1.00  0.00    -0.086 Cl
HETATM   17  C10 UNL     1      26.054   6.852  48.500  1.00  0.00     0.219 C 
HETATM   18  O2  UNL     1      24.764   6.828  48.037  1.00  0.00    -0.383 OA
HETATM   19  C11 UNL     1      24.010   5.741  48.407  1.00  0.00     0.210 C 
HETATM   20  C12 UNL     1      24.454   5.210  49.775  1.00  0.00     0.226 C 
HETATM   21  F1  UNL     1      23.567   4.303  50.269  1.00  0.00    -0.242 F 
ENDBRANCH  13  14
ENDBRANCH  11  13
ENDBRANCH   7  11
BRANCH  10  22
HETATM   22  O3  UNL     1      21.625   1.862  52.465  1.00  0.00    -0.348 OA
BRANCH  22  23
HETATM   23  C16 UNL     1      20.725   2.794  52.225  1.00  0.00     0.177 C 
BRANCH  23  24
HETATM   24  C17 UNL     1      20.414   3.231  50.812  1.00  0.00     0.057 C 
BRANCH  24  25
HETATM   25  C18 UNL     1      19.752   2.187  50.011  1.00  0.00     0.277 C 
BRANCH  25  26
HETATM   26  N4  UNL     1      20.424   1.849  48.780  1.00  0.00     0.113 N 
HETATM   27  C19 UNL     1      20.282   2.756  47.708  1.00  0.00     0.301 C 
HETATM   28  C20 UNL     1      21.682   3.079  47.287  1.00  0.00     0.200 C 
HETATM   29  O4  UNL     1      22.404   1.979  47.708  1.00  0.00    -0.361 OA
HETATM   30  C21 UNL     1      21.808   1.525  48.907  1.00  0.00     0.440 C 
ENDBRANCH  25  26
ENDBRANCH  24  25
ENDBRANCH  23  24
ENDBRANCH  22  23
ENDBRANCH  10  22
BRANCH   1  31
HETATM   31  O1  UNL     1      21.646  -0.486  53.601  1.00  0.00    -0.353 OA
HETATM   32  C1  UNL     1      21.514  -1.443  54.597  1.00  0.00     0.210 C 
ENDBRANCH   1  31
TORSDOF 9
ENDMDL
MODEL 5
REMARK VINA RESULT:      -7.5      3.135      6.042
REMARK  9 active torsions:
REMARK  status: ('A' for Active; 'I' for Inactive)
REMARK    1  A    between atoms: O1_2  and  C2_3 
REMARK    2  A    between atoms: C6_9  and  N3_10 
REMARK    3  A    between atoms: N3_10  and  C7_11 
REMARK    4  A    between atoms: C7_11  and  C8_12 
REMARK    5  A    between atoms: C15_22  and  O3_23 
REMARK    6  A    between atoms: O3_23  and  C16_24 
REMARK    7  A    between atoms: C16_24  and  C17_25 
REMARK    8  A    between atoms: C17_25  and  C18_26 
REMARK    9  A    between atoms: C18_26  and  N4_27 
ROOT
HETATM    1  C2  UNL     1      19.524  -0.135  52.475  1.00  0.00     0.103 A 
HETATM    2  C3  UNL     1      20.002  -0.880  53.533  1.00  0.00     0.072 A 
HETATM    3  C4  UNL     1      21.319  -0.868  53.929  1.00  0.00     0.075 A 
HETATM    4  N1  UNL     1      21.761  -1.604  54.963  1.00  0.00    -0.241 NA
HETATM    5  C5  UNL     1      23.050  -1.587  55.343  1.00  0.00     0.235 A 
HETATM    6  N2  UNL     1      23.933  -0.822  54.685  1.00  0.00    -0.224 NA
HETATM    7  C6  UNL     1      23.585  -0.054  53.642  1.00  0.00     0.137 A 
HETATM    8  C13 UNL     1      22.257  -0.097  53.283  1.00  0.00     0.041 A 
HETATM    9  C14 UNL     1      21.788   0.647  52.230  1.00  0.00     0.057 A 
HETATM   10  C15 UNL     1      20.462   0.671  51.786  1.00  0.00     0.103 A 
ENDROOT
BRANCH   7  11
HETATM   11  N3  UNL     1      24.556   0.744  52.966  1.00  0.00    -0.370 N 
HETATM   12  H6  UNL     1      24.527   1.778  52.878  1.00  0.00     0.161 HD
BRANCH  11  13
HETATM   13  C7  UNL     1      25.668   0.048  52.354  1.00  0.00     0.160 C 
BRANCH  13  14
HETATM   14  C8  UNL     1      26.872   0.249  53.167  1.00  0.00    -0.007 C 
HETATM   15  C9  UNL     1      27.767  -0.705  53.399  1.00  0.00     0.042 C 
HETATM   16 CL1  UNL     1      27.565  -2.313  52.729  1.00  0.00    -0.086 Cl
HETATM   17  C10 UNL     1      28.959  -0.404  54.239  1.00  0.00     0.219 C 
HETATM   18  O2  UNL     1      29.519   0.826  54.011  1.00  0.00    -0.383 OA
HETATM   19  C11 UNL     1      28.701   1.765  53.431  1.00  0.00     0.210 C 
HETATM   20  C12 UNL     1      27.239   1.534  53.830  1.00  0.00     0.226 C 
HETATM   21  F1  UNL     1      26.454   2.589  53.474  1.00  0.00    -0.242 F 
ENDBRANCH  13  14
ENDBRANCH  11  13
ENDBRANCH   7  11
BRANCH  10  22
HETATM   22  O3  UNL     1      20.003   1.365  50.793  1.00  0.00    -0.348 OA
BRANCH  22  23
HETATM   23  C16 UNL     1      19.603   2.433  50.133  1.00  0.00     0.177 C 
BRANCH  23  24
HETATM   24  C17 UNL     1      20.352   3.741  50.240  1.00  0.00     0.057 C 
BRANCH  24  25
HETATM   25  C18 UNL     1      21.367   3.920  49.187  1.00  0.00     0.277 C 
BRANCH  25  26
HETATM   26  N4  UNL     1      22.721   4.051  49.665  1.00  0.00     0.113 N 
HETATM   27  C19 UNL     1      22.924   4.899  50.775  1.00  0.00     0.301 C 
HETATM   28  C20 UNL     1      23.648   4.056  51.778  1.00  0.00     0.200 C 
HETATM   29  O4  UNL     1      24.265   3.094  51.002  1.00  0.00    -0.361 OA
HETATM   30  C21 UNL     1      23.404   2.822  49.915  1.00  0.00     0.440 C 
ENDBRANCH  25  26
ENDBRANCH  24  25
ENDBRANCH  23  24
ENDBRANCH  22  23
ENDBRANCH  10  22
BRANCH   1  31
HETATM   31  O1  UNL     1      18.231  -0.097  52.027  1.00  0.00    -0.353 OA
HETATM   32  C1  UNL     1      17.247  -0.980  52.452  1.00  0.00     0.210 C 
ENDBRANCH   1  31
TORSDOF 9
ENDMDL
MODEL 6
REMARK VINA RESULT:      -7.4      2.908      5.567
REMARK  9 active torsions:
REMARK  status: ('A' for Active; 'I' for Inactive)
REMARK    1  A    between atoms: O1_2  and  C2_3 
REMARK    2  A    between atoms: C6_9  and  N3_10 
REMARK    3  A    between atoms: N3_10  and  C7_11 
REMARK    4  A    between atoms: C7_11  and  C8_12 
REMARK    5  A    between atoms: C15_22  and  O3_23 
REMARK    6  A    between atoms: O3_23  and  C16_24 
REMARK    7  A    between atoms: C16_24  and  C17_25 
REMARK    8  A    between atoms: C17_25  and  C18_26 
REMARK    9  A    between atoms: C18_26  and  N4_27 
ROOT
HETATM    1  C2  UNL     1      25.745   0.293  52.648  1.00  0.00     0.103 A 
HETATM    2  C3  UNL     1      24.937  -0.479  53.456  1.00  0.00     0.072 A 
HETATM    3  C4  UNL     1      23.596  -0.230  53.639  1.00  0.00     0.075 A 
HETATM    4  N1  UNL     1      22.829  -0.997  54.432  1.00  0.00    -0.241 NA
HETATM    5  C5  UNL     1      21.520  -0.747  54.606  1.00  0.00     0.235 A 
HETATM    6  N2  UNL     1      20.947   0.291  53.980  1.00  0.00    -0.224 NA
HETATM    7  C6  UNL     1      21.632   1.112  53.169  1.00  0.00     0.137 A 
HETATM    8  C13 UNL     1      22.969   0.823  53.016  1.00  0.00     0.041 A 
HETATM    9  C14 UNL     1      23.767   1.595  52.211  1.00  0.00     0.057 A 
HETATM   10  C15 UNL     1      25.132   1.387  51.991  1.00  0.00     0.103 A 
ENDROOT
BRANCH   7  11
HETATM   11  N3  UNL     1      20.986   2.208  52.524  1.00  0.00    -0.370 N 
HETATM   12  H6  UNL     1      21.253   3.205  52.626  1.00  0.00     0.161 HD
BRANCH  11  13
HETATM   13  C7  UNL     1      19.866   1.896  51.661  1.00  0.00     0.160 C 
BRANCH  13  14
HETATM   14  C8  UNL     1      20.259   2.106  50.264  1.00  0.00    -0.007 C 
HETATM   15  C9  UNL     1      19.986   3.215  49.585  1.00  0.00     0.042 C 
HETATM   16 CL1  UNL     1      19.114   4.539  50.333  1.00  0.00    -0.086 Cl
HETATM   17  C10 UNL     1      20.427   3.335  48.168  1.00  0.00     0.219 C 
HETATM   18  O2  UNL     1      21.680   2.837  47.918  1.00  0.00    -0.383 OA
HETATM   19  C11 UNL     1      22.156   1.918  48.822  1.00  0.00     0.210 C 
HETATM   20  C12 UNL     1      21.006   1.114  49.438  1.00  0.00     0.226 C 
HETATM   21  F1  UNL     1      21.468   0.041  50.139  1.00  0.00    -0.242 F 
ENDBRANCH  13  14
ENDBRANCH  11  13
ENDBRANCH   7  11
BRANCH  10  22
HETATM   22  O3  UNL     1      25.901   2.107  51.237  1.00  0.00    -0.348 OA
BRANCH  22  23
HETATM   23  C16 UNL     1      26.225   3.006  50.329  1.00  0.00     0.177 C 
BRANCH  23  24
HETATM   24  C17 UNL     1      25.176   3.897  49.707  1.00  0.00     0.057 C 
BRANCH  24  25
HETATM   25  C18 UNL     1      25.310   5.314  50.089  1.00  0.00     0.277 C 
BRANCH  25  26
HETATM   26  N4  UNL     1      24.293   5.800  50.988  1.00  0.00     0.113 N 
HETATM   27  C19 UNL     1      23.975   7.173  50.906  1.00  0.00     0.301 C 
HETATM   28  C20 UNL     1      22.492   7.215  50.706  1.00  0.00     0.200 C 
HETATM   29  O4  UNL     1      22.063   6.018  51.244  1.00  0.00    -0.361 OA
HETATM   30  C21 UNL     1      23.071   5.062  50.988  1.00  0.00     0.440 C 
ENDBRANCH  25  26
ENDBRANCH  24  25
ENDBRANCH  23  24
ENDBRANCH  22  23
ENDBRANCH  10  22
BRANCH   1  31
HETATM   31  O1  UNL     1      27.082   0.105  52.420  1.00  0.00    -0.353 OA
HETATM   32  C1  UNL     1      27.847  -0.840  53.089  1.00  0.00     0.210 C 
ENDBRANCH   1  31
TORSDOF 9
ENDMDL
MODEL 7
REMARK VINA RESULT:      -7.4      3.761      7.554
REMARK  9 active torsions:
REMARK  status: ('A' for Active; 'I' for Inactive)
REMARK    1  A    between atoms: O1_2  and  C2_3 
REMARK    2  A    between atoms: C6_9  and  N3_10 
REMARK    3  A    between atoms: N3_10  and  C7_11 
REMARK    4  A    between atoms: C7_11  and  C8_12 
REMARK    5  A    between atoms: C15_22  and  O3_23 
REMARK    6  A    between atoms: O3_23  and  C16_24 
REMARK    7  A    between atoms: C16_24  and  C17_25 
REMARK    8  A    between atoms: C17_25  and  C18_26 
REMARK    9  A    between atoms: C18_26  and  N4_27 
ROOT
HETATM    1  C2  UNL     1      20.180  -0.693  53.355  1.00  0.00     0.103 A 
HETATM    2  C3  UNL     1      20.910  -1.134  54.439  1.00  0.00     0.072 A 
HETATM    3  C4  UNL     1      22.278  -1.017  54.524  1.00  0.00     0.075 A 
HETATM    4  N1  UNL     1      22.967  -1.456  55.591  1.00  0.00    -0.241 NA
HETATM    5  C5  UNL     1      24.304  -1.338  55.666  1.00  0.00     0.235 A 
HETATM    6  N2  UNL     1      24.985  -0.770  54.660  1.00  0.00    -0.224 NA
HETATM    7  C6  UNL     1      24.383  -0.302  53.556  1.00  0.00     0.137 A 
HETATM    8  C13 UNL     1      23.015  -0.441  53.516  1.00  0.00     0.041 A 
HETATM    9  C14 UNL     1      22.294   0.001  52.435  1.00  0.00     0.057 A 
HETATM   10  C15 UNL     1      20.906  -0.094  52.298  1.00  0.00     0.103 A 
ENDROOT
BRANCH   7  11
HETATM   11  N3  UNL     1      25.144   0.292  52.506  1.00  0.00    -0.370 N 
HETATM   12  H6  UNL     1      24.860   1.127  51.957  1.00  0.00     0.161 HD
BRANCH  11  13
HETATM   13  C7  UNL     1      26.413  -0.325  52.182  1.00  0.00     0.160 C 
BRANCH  13  14
HETATM   14  C8  UNL     1      27.495   0.427  52.827  1.00  0.00    -0.007 C 
HETATM   15  C9  UNL     1      27.571   1.754  52.819  1.00  0.00     0.042 C 
HETATM   16 CL1  UNL     1      26.350   2.722  52.015  1.00  0.00    -0.086 Cl
HETATM   17  C10 UNL     1      28.709   2.427  53.502  1.00  0.00     0.219 C 
HETATM   18  O2  UNL     1      29.064   1.868  54.703  1.00  0.00    -0.383 OA
HETATM   19  C11 UNL     1      28.683   0.562  54.897  1.00  0.00     0.210 C 
HETATM   20  C12 UNL     1      28.632  -0.194  53.564  1.00  0.00     0.226 C 
HETATM   21  F1  UNL     1      28.504  -1.536  53.759  1.00  0.00    -0.242 F 
ENDBRANCH  13  14
ENDBRANCH  11  13
ENDBRANCH   7  11
BRANCH  10  22
HETATM   22  O3  UNL     1      20.210   0.315  51.284  1.00  0.00    -0.348 OA
BRANCH  22  23
HETATM   23  C16 UNL     1      19.407   1.097  50.591  1.00  0.00     0.177 C 
BRANCH  23  24
HETATM   24  C17 UNL     1      18.320   1.896  51.272  1.00  0.00     0.057 C 
BRANCH  24  25
HETATM   25  C18 UNL     1      17.216   2.268  50.370  1.00  0.00     0.277 C 
BRANCH  25  26
HETATM   26  N4  UNL     1      16.291   3.233  50.909  1.00  0.00     0.113 N 
HETATM   27  C19 UNL     1      15.116   2.724  51.504  1.00  0.00     0.301 C 
HETATM   28  C20 UNL     1      15.084   3.326  52.874  1.00  0.00     0.200 C 
HETATM   29  O4  UNL     1      15.836   4.477  52.736  1.00  0.00    -0.361 OA
HETATM   30  C21 UNL     1      16.857   4.195  51.799  1.00  0.00     0.440 C 
ENDBRANCH  25  26
ENDBRANCH  24  25
ENDBRANCH  23  24
ENDBRANCH  22  23
ENDBRANCH  10  22
BRANCH   1  31
HETATM   31  O1  UNL     1      18.822  -0.776  53.203  1.00  0.00    -0.353 OA
HETATM   32  C1  UNL     1      18.078  -1.892  53.562  1.00  0.00     0.210 C 
ENDBRANCH   1  31
TORSDOF 9
ENDMDL
MODEL 8
REMARK VINA RESULT:      -7.4      2.657      5.334
REMARK  9 active torsions:
REMARK  status: ('A' for Active; 'I' for Inactive)
REMARK    1  A    between atoms: O1_2  and  C2_3 
REMARK    2  A    between atoms: C6_9  and  N3_10 
REMARK    3  A    between atoms: N3_10  and  C7_11 
REMARK    4  A    between atoms: C7_11  and  C8_12 
REMARK    5  A    between atoms: C15_22  and  O3_23 
REMARK    6  A    between atoms: O3_23  and  C16_24 
REMARK    7  A    between atoms: C16_24  and  C17_25 
REMARK    8  A    between atoms: C17_25  and  C18_26 
REMARK    9  A    between atoms: C18_26  and  N4_27 
ROOT
HETATM    1  C2  UNL     1      25.925   0.251  52.961  1.00  0.00     0.103 A 
HETATM    2  C3  UNL     1      25.061  -0.462  53.764  1.00  0.00     0.072 A 
HETATM    3  C4  UNL     1      23.696  -0.294  53.738  1.00  0.00     0.075 A 
HETATM    4  N1  UNL     1      22.874  -1.001  54.532  1.00  0.00    -0.241 NA
HETATM    5  C5  UNL     1      21.541  -0.831  54.501  1.00  0.00     0.235 A 
HETATM    6  N2  UNL     1      20.999   0.064  53.662  1.00  0.00    -0.224 NA
HETATM    7  C6  UNL     1      21.739   0.815  52.832  1.00  0.00     0.137 A 
HETATM    8  C13 UNL     1      23.099   0.611  52.893  1.00  0.00     0.041 A 
HETATM    9  C14 UNL     1      23.953   1.324  52.090  1.00  0.00     0.057 A 
HETATM   10  C15 UNL     1      25.345   1.193  52.078  1.00  0.00     0.103 A 
ENDROOT
BRANCH   7  11
HETATM   11  N3  UNL     1      21.124   1.758  51.957  1.00  0.00    -0.370 N 
HETATM   12  H6  UNL     1      21.036   1.653  50.928  1.00  0.00     0.161 HD
BRANCH  11  13
HETATM   13  C7  UNL     1      20.581   2.957  52.558  1.00  0.00     0.160 C 
BRANCH  13  14
HETATM   14  C8  UNL     1      20.712   4.074  51.616  1.00  0.00    -0.007 C 
HETATM   15  C9  UNL     1      21.740   4.915  51.616  1.00  0.00     0.042 C 
HETATM   16 CL1  UNL     1      23.046   4.744  52.773  1.00  0.00    -0.086 Cl
HETATM   17  C10 UNL     1      21.784   6.019  50.618  1.00  0.00     0.219 C 
HETATM   18  O2  UNL     1      21.367   5.667  49.360  1.00  0.00    -0.383 OA
HETATM   19  C11 UNL     1      20.561   4.557  49.280  1.00  0.00     0.210 C 
HETATM   20  C12 UNL     1      19.720   4.401  50.552  1.00  0.00     0.226 C 
HETATM   21  F1  UNL     1      18.744   3.465  50.392  1.00  0.00    -0.242 F 
ENDBRANCH  13  14
ENDBRANCH  11  13
ENDBRANCH   7  11
BRANCH  10  22
HETATM   22  O3  UNL     1      26.166   1.859  51.329  1.00  0.00    -0.348 OA
BRANCH  22  23
HETATM   23  C16 UNL     1      26.748   2.914  50.794  1.00  0.00     0.177 C 
BRANCH  23  24
HETATM   24  C17 UNL     1      26.152   3.606  49.590  1.00  0.00     0.057 C 
BRANCH  24  25
HETATM   25  C18 UNL     1      27.071   4.564  48.951  1.00  0.00     0.277 C 
BRANCH  25  26
HETATM   26  N4  UNL     1      26.521   5.878  48.728  1.00  0.00     0.113 N 
HETATM   27  C19 UNL     1      25.498   6.296  49.608  1.00  0.00     0.301 C 
HETATM   28  C20 UNL     1      25.968   7.611  50.148  1.00  0.00     0.200 C 
HETATM   29  O4  UNL     1      26.833   8.067  49.173  1.00  0.00    -0.361 OA
HETATM   30  C21 UNL     1      27.476   6.933  48.625  1.00  0.00     0.440 C 
ENDBRANCH  25  26
ENDBRANCH  24  25
ENDBRANCH  23  24
ENDBRANCH  22  23
ENDBRANCH  10  22
BRANCH   1  31
HETATM   31  O1  UNL     1      27.289   0.137  52.933  1.00  0.00    -0.353 OA
HETATM   32  C1  UNL     1      28.047  -0.255  54.028  1.00  0.00     0.210 C 
ENDBRANCH   1  31
TORSDOF 9
ENDMDL
MODEL 9
REMARK VINA RESULT:      -7.3      2.588      3.212
REMARK  9 active torsions:
REMARK  status: ('A' for Active; 'I' for Inactive)
REMARK    1  A    between atoms: O1_2  and  C2_3 
REMARK    2  A    between atoms: C6_9  and  N3_10 
REMARK    3  A    between atoms: N3_10  and  C7_11 
REMARK    4  A    between atoms: C7_11  and  C8_12 
REMARK    5  A    between atoms: C15_22  and  O3_23 
REMARK    6  A    between atoms: O3_23  and  C16_24 
REMARK    7  A    between atoms: C16_24  and  C17_25 
REMARK    8  A    between atoms: C17_25  and  C18_26 
REMARK    9  A    between atoms: C18_26  and  N4_27 
ROOT
HETATM    1  C2  UNL     1      21.560  -0.108  53.756  1.00  0.00     0.103 A 
HETATM    2  C3  UNL     1      20.203  -0.291  53.588  1.00  0.00     0.072 A 
HETATM    3  C4  UNL     1      19.544  -0.007  52.415  1.00  0.00     0.075 A 
HETATM    4  N1  UNL     1      18.220  -0.193  52.277  1.00  0.00    -0.241 NA
HETATM    5  C5  UNL     1      17.583   0.089  51.128  1.00  0.00     0.235 A 
HETATM    6  N2  UNL     1      18.269   0.569  50.081  1.00  0.00    -0.224 NA
HETATM    7  C6  UNL     1      19.592   0.787  50.124  1.00  0.00     0.137 A 
HETATM    8  C13 UNL     1      20.209   0.486  51.318  1.00  0.00     0.041 A 
HETATM    9  C14 UNL     1      21.559   0.670  51.477  1.00  0.00     0.057 A 
HETATM   10  C15 UNL     1      22.278   0.398  52.645  1.00  0.00     0.103 A 
ENDROOT
BRANCH   7  11
HETATM   11  N3  UNL     1      20.285   1.302  48.989  1.00  0.00    -0.370 N 
HETATM   12  H6  UNL     1      20.895   0.749  48.357  1.00  0.00     0.161 HD
BRANCH  11  13
HETATM   13  C7  UNL     1      20.123   2.712  48.703  1.00  0.00     0.160 C 
BRANCH  13  14
HETATM   14  C8  UNL     1      21.333   3.432  49.112  1.00  0.00    -0.007 C 
HETATM   15  C9  UNL     1      21.428   4.121  50.244  1.00  0.00     0.042 C 
HETATM   16 CL1  UNL     1      20.076   4.219  51.355  1.00  0.00    -0.086 Cl
HETATM   17  C10 UNL     1      22.701   4.819  50.573  1.00  0.00     0.219 C 
HETATM   18  O2  UNL     1      23.834   4.110  50.270  1.00  0.00    -0.383 OA
HETATM   19  C11 UNL     1      23.694   3.120  49.327  1.00  0.00     0.210 C 
HETATM   20  C12 UNL     1      22.595   3.480  48.319  1.00  0.00     0.226 C 
HETATM   21  F1  UNL     1      22.612   2.643  47.245  1.00  0.00    -0.242 F 
ENDBRANCH  13  14
ENDBRANCH  11  13
ENDBRANCH   7  11
BRANCH  10  22
HETATM   22  O3  UNL     1      23.551   0.568  52.814  1.00  0.00    -0.348 OA
BRANCH  22  23
HETATM   23  C16 UNL     1      24.683   1.221  52.985  1.00  0.00     0.177 C 
BRANCH  23  24
HETATM   24  C17 UNL     1      25.731   1.260  51.898  1.00  0.00     0.057 C 
BRANCH  24  25
HETATM   25  C18 UNL     1      26.711   0.163  51.992  1.00  0.00     0.277 C 
BRANCH  25  26
HETATM   26  N4  UNL     1      27.537   0.186  53.174  1.00  0.00     0.113 N 
HETATM   27  C19 UNL     1      28.328  -0.958  53.418  1.00  0.00     0.301 C 
HETATM   28  C20 UNL     1      29.722  -0.436  53.576  1.00  0.00     0.200 C 
HETATM   29  O4  UNL     1      29.532   0.874  53.971  1.00  0.00    -0.361 OA
HETATM   30  C21 UNL     1      28.367   1.338  53.320  1.00  0.00     0.440 C 
ENDBRANCH  25  26
ENDBRANCH  24  25
ENDBRANCH  23  24
ENDBRANCH  22  23
ENDBRANCH  10  22
BRANCH   1  31
HETATM   31  O1  UNL     1      22.281  -0.370  54.890  1.00  0.00    -0.353 OA
HETATM   32  C1  UNL     1      22.659  -1.647  55.279  1.00  0.00     0.210 C 
ENDBRANCH   1  31
TORSDOF 9
ENDMDL
