MODEL 1
REMARK VINA RESULT:      -8.2      0.000      0.000
REMARK  2 active torsions:
REMARK  status: ('A' for Active; 'I' for Inactive)
REMARK    1  A    between atoms: C1_2  and  N2_17 
REMARK    2  A    between atoms: C4_6  and  C5_7 
ROOT
HETATM    1 CL1  UNL     1      26.433   2.603  50.359  1.00  0.00    -0.064 Cl
HETATM    2  C1  UNL     1      25.953   1.646  51.768  1.00  0.00     0.112 C 
HETATM    3  C2  UNL     1      24.788   1.209  52.246  1.00  0.00     0.024 C 
HETATM    4  C3  UNL     1      24.176   0.430  53.355  1.00  0.00     0.310 C 
HETATM    5  N1  UNL     1      22.960   1.194  53.147  1.00  0.00     0.100 N 
HETATM    6  C4  UNL     1      23.369   1.359  51.764  1.00  0.00     0.288 C 
HETATM    7  H3  UNL     1      23.022   2.104  53.646  1.00  0.00     0.317 HD
ENDROOT
BRANCH   6   8
HETATM    8  C5  UNL     1      23.045   2.693  51.264  1.00  0.00    -0.010 A 
HETATM    9  C6  UNL     1      23.065   3.653  52.279  1.00  0.00     0.010 A 
HETATM   10  C7  UNL     1      22.785   4.992  51.981  1.00  0.00     0.002 A 
HETATM   11  C8  UNL     1      22.484   5.389  50.686  1.00  0.00     0.012 A 
HETATM   12  C9  UNL     1      22.461   4.448  49.677  1.00  0.00    -0.025 A 
HETATM   13  C10 UNL     1      22.176   4.727  48.360  1.00  0.00     0.012 A 
HETATM   14  C14 UNL     1      22.741   3.138  50.000  1.00  0.00    -0.017 A 
HETATM   15  C11 UNL     1      22.169   3.726  47.385  1.00  0.00     0.001 A 
HETATM   16  C12 UNL     1      22.454   2.399  47.725  1.00  0.00     0.001 A 
HETATM   17  C13 UNL     1      22.738   2.142  49.049  1.00  0.00     0.013 A 
ENDBRANCH   6   8
BRANCH   2  18
HETATM   18  N2  UNL     1      27.101   1.275  52.548  1.00  0.00    -0.343 N 
HETATM   19  C15 UNL     1      27.878   2.205  53.299  1.00  0.00     0.092 A 
HETATM   20  C16 UNL     1      28.915   1.716  53.974  1.00  0.00     0.018 A 
HETATM   21  C17 UNL     1      29.255   0.301  53.958  1.00  0.00     0.018 A 
HETATM   22  C18 UNL     1      28.534  -0.566  53.261  1.00  0.00     0.007 A 
HETATM   23 BR1  UNL     1      28.918  -2.439  53.191  1.00  0.00    -0.054 Br
HETATM   24  C19 UNL     1      27.339  -0.140  52.457  1.00  0.00     0.175 A 
ENDBRANCH   2  18
TORSDOF 2
ENDMDL
MODEL 2
REMARK VINA RESULT:      -8.1      3.332      6.281
REMARK  2 active torsions:
REMARK  status: ('A' for Active; 'I' for Inactive)
REMARK    1  A    between atoms: C1_2  and  N2_17 
REMARK    2  A    between atoms: C4_6  and  C5_7 
ROOT
HETATM    1 CL1  UNL     1      23.809   4.507  53.231  1.00  0.00    -0.064 Cl
HETATM    2  C1  UNL     1      23.491   4.497  51.491  1.00  0.00     0.112 C 
HETATM    3  C2  UNL     1      22.920   3.635  50.651  1.00  0.00     0.024 C 
HETATM    4  C3  UNL     1      22.560   3.426  49.223  1.00  0.00     0.310 C 
HETATM    5  N1  UNL     1      22.634   1.998  49.470  1.00  0.00     0.100 N 
HETATM    6  C4  UNL     1      22.295   2.279  50.853  1.00  0.00     0.288 C 
HETATM    7  H3  UNL     1      23.621   1.676  49.405  1.00  0.00     0.317 HD
ENDROOT
BRANCH   6   8
HETATM    8  C5  UNL     1      23.031   1.413  51.772  1.00  0.00    -0.010 A 
HETATM    9  C6  UNL     1      24.409   1.457  51.545  1.00  0.00     0.010 A 
HETATM   10  C7  UNL     1      25.274   0.694  52.339  1.00  0.00     0.002 A 
HETATM   11  C8  UNL     1      24.785  -0.113  53.356  1.00  0.00     0.012 A 
HETATM   12  C9  UNL     1      23.427  -0.164  53.588  1.00  0.00    -0.025 A 
HETATM   13  C10 UNL     1      22.832  -0.927  54.566  1.00  0.00     0.012 A 
HETATM   14  C14 UNL     1      22.600   0.598  52.791  1.00  0.00    -0.017 A 
HETATM   15  C11 UNL     1      21.447  -0.934  54.749  1.00  0.00     0.001 A 
HETATM   16  C12 UNL     1      20.617  -0.157  53.934  1.00  0.00     0.001 A 
HETATM   17  C13 UNL     1      21.233   0.601  52.960  1.00  0.00     0.013 A 
ENDBRANCH   6   8
BRANCH   2  18
HETATM   18  N2  UNL     1      23.969   5.707  50.878  1.00  0.00    -0.343 N 
HETATM   19  C15 UNL     1      23.309   6.964  50.997  1.00  0.00     0.092 A 
HETATM   20  C16 UNL     1      23.869   7.998  50.374  1.00  0.00     0.018 A 
HETATM   21  C17 UNL     1      25.097   7.870  49.603  1.00  0.00     0.018 A 
HETATM   22  C18 UNL     1      25.712   6.701  49.491  1.00  0.00     0.007 A 
HETATM   23 BR1  UNL     1      27.327   6.454  48.497  1.00  0.00    -0.054 Br
HETATM   24  C19 UNL     1      25.182   5.458  50.147  1.00  0.00     0.175 A 
ENDBRANCH   2  18
TORSDOF 2
ENDMDL
MODEL 3
REMARK VINA RESULT:      -8.1      2.924      6.938
REMARK  2 active torsions:
REMARK  status: ('A' for Active; 'I' for Inactive)
REMARK    1  A    between atoms: C1_2  and  N2_17 
REMARK    2  A    between atoms: C4_6  and  C5_7 
ROOT
HETATM    1 CL1  UNL     1      26.469   2.762  50.119  1.00  0.00    -0.064 Cl
HETATM    2  C1  UNL     1      24.781   2.926  50.620  1.00  0.00     0.112 C 
HETATM    3  C2  UNL     1      24.117   2.698  51.753  1.00  0.00     0.024 C 
HETATM    4  C3  UNL     1      22.767   2.761  52.373  1.00  0.00     0.310 C 
HETATM    5  N1  UNL     1      23.194   1.712  53.279  1.00  0.00     0.100 N 
HETATM    6  C4  UNL     1      24.552   2.194  53.104  1.00  0.00     0.288 C 
HETATM    7  H3  UNL     1      23.087   0.783  52.825  1.00  0.00     0.317 HD
ENDROOT
BRANCH   6   8
HETATM    8  C5  UNL     1      25.510   1.092  53.050  1.00  0.00    -0.010 A 
HETATM    9  C6  UNL     1      24.895  -0.124  52.736  1.00  0.00     0.010 A 
HETATM   10  C7  UNL     1      25.662  -1.290  52.634  1.00  0.00     0.002 A 
HETATM   11  C8  UNL     1      27.034  -1.265  52.842  1.00  0.00     0.012 A 
HETATM   12  C9  UNL     1      27.650  -0.070  53.153  1.00  0.00    -0.025 A 
HETATM   13  C10 UNL     1      29.000   0.073  53.378  1.00  0.00     0.012 A 
HETATM   14  C14 UNL     1      26.870   1.062  53.246  1.00  0.00    -0.017 A 
HETATM   15  C11 UNL     1      29.562   1.314  53.691  1.00  0.00     0.001 A 
HETATM   16  C12 UNL     1      28.760   2.456  53.783  1.00  0.00     0.001 A 
HETATM   17  C13 UNL     1      27.411   2.290  53.552  1.00  0.00     0.013 A 
ENDBRANCH   6   8
BRANCH   2  18
HETATM   18  N2  UNL     1      23.973   3.418  49.538  1.00  0.00    -0.343 N 
HETATM   19  C15 UNL     1      23.056   2.607  48.808  1.00  0.00     0.092 A 
HETATM   20  C16 UNL     1      22.375   3.200  47.830  1.00  0.00     0.018 A 
HETATM   21  C17 UNL     1      22.544   4.609  47.509  1.00  0.00     0.018 A 
HETATM   22  C18 UNL     1      23.396   5.365  48.187  1.00  0.00     0.007 A 
HETATM   23 BR1  UNL     1      23.673   7.223  47.824  1.00  0.00    -0.054 Br
HETATM   24  C19 UNL     1      24.224   4.816  49.313  1.00  0.00     0.175 A 
ENDBRANCH   2  18
TORSDOF 2
ENDMDL
MODEL 4
REMARK VINA RESULT:      -7.6      3.682      6.512
REMARK  2 active torsions:
REMARK  status: ('A' for Active; 'I' for Inactive)
REMARK    1  A    between atoms: C1_2  and  N2_17 
REMARK    2  A    between atoms: C4_6  and  C5_7 
ROOT
HETATM    1 CL1  UNL     1      25.885   3.571  49.916  1.00  0.00    -0.064 Cl
HETATM    2  C1  UNL     1      24.863   4.988  50.187  1.00  0.00     0.112 C 
HETATM    3  C2  UNL     1      24.027   5.366  51.153  1.00  0.00     0.024 C 
HETATM    4  C3  UNL     1      23.107   6.457  51.572  1.00  0.00     0.310 C 
HETATM    5  N1  UNL     1      22.369   5.469  52.334  1.00  0.00     0.100 N 
HETATM    6  C4  UNL     1      23.604   4.716  52.445  1.00  0.00     0.288 C 
HETATM    7  H3  UNL     1      21.702   4.967  51.715  1.00  0.00     0.317 HD
ENDROOT
BRANCH   6   8
HETATM    8  C5  UNL     1      23.367   3.278  52.341  1.00  0.00    -0.010 A 
HETATM    9  C6  UNL     1      22.164   2.990  51.690  1.00  0.00     0.010 A 
HETATM   10  C7  UNL     1      21.776   1.659  51.494  1.00  0.00     0.002 A 
HETATM   11  C8  UNL     1      22.569   0.610  51.938  1.00  0.00     0.012 A 
HETATM   12  C9  UNL     1      23.758   0.884  52.581  1.00  0.00    -0.025 A 
HETATM   13  C10 UNL     1      24.621  -0.073  53.061  1.00  0.00     0.012 A 
HETATM   14  C14 UNL     1      24.115   2.203  52.760  1.00  0.00    -0.017 A 
HETATM   15  C11 UNL     1      25.812   0.272  53.706  1.00  0.00     0.001 A 
HETATM   16  C12 UNL     1      26.163   1.614  53.882  1.00  0.00     0.001 A 
HETATM   17  C13 UNL     1      25.285   2.557  53.393  1.00  0.00     0.013 A 
ENDBRANCH   6   8
BRANCH   2  18
HETATM   18  N2  UNL     1      24.986   5.921  49.100  1.00  0.00    -0.343 N 
HETATM   19  C15 UNL     1      23.889   6.337  48.290  1.00  0.00     0.092 A 
HETATM   20  C16 UNL     1      24.155   7.207  47.319  1.00  0.00     0.018 A 
HETATM   21  C17 UNL     1      25.495   7.721  47.081  1.00  0.00     0.018 A 
HETATM   22  C18 UNL     1      26.517   7.336  47.833  1.00  0.00     0.007 A 
HETATM   23 BR1  UNL     1      28.305   7.967  47.582  1.00  0.00    -0.054 Br
HETATM   24  C19 UNL     1      26.349   6.359  48.961  1.00  0.00     0.175 A 
ENDBRANCH   2  18
TORSDOF 2
ENDMDL
MODEL 5
REMARK VINA RESULT:      -7.6      3.482      6.832
REMARK  2 active torsions:
REMARK  status: ('A' for Active; 'I' for Inactive)
REMARK    1  A    between atoms: C1_2  and  N2_17 
REMARK    2  A    between atoms: C4_6  and  C5_7 
ROOT
HETATM    1 CL1  UNL     1      24.971   3.229  49.770  1.00  0.00    -0.064 Cl
HETATM    2  C1  UNL     1      23.577   4.297  49.975  1.00  0.00     0.112 C 
HETATM    3  C2  UNL     1      22.737   4.555  50.977  1.00  0.00     0.024 C 
HETATM    4  C3  UNL     1      21.554   5.372  51.357  1.00  0.00     0.310 C 
HETATM    5  N1  UNL     1      21.222   4.343  52.323  1.00  0.00     0.100 N 
HETATM    6  C4  UNL     1      22.637   4.024  52.383  1.00  0.00     0.288 C 
HETATM    7  H3  UNL     1      20.704   3.571  51.858  1.00  0.00     0.317 HD
ENDROOT
BRANCH   6   8
HETATM    8  C5  UNL     1      22.858   2.585  52.495  1.00  0.00    -0.010 A 
HETATM    9  C6  UNL     1      21.754   1.848  52.059  1.00  0.00     0.010 A 
HETATM   10  C7  UNL     1      21.790   0.449  52.087  1.00  0.00     0.002 A 
HETATM   11  C8  UNL     1      22.911  -0.228  52.546  1.00  0.00     0.012 A 
HETATM   12  C9  UNL     1      24.007   0.490  52.979  1.00  0.00    -0.025 A 
HETATM   13  C10 UNL     1      25.169  -0.074  53.452  1.00  0.00     0.012 A 
HETATM   14  C14 UNL     1      23.943   1.865  52.939  1.00  0.00    -0.017 A 
HETATM   15  C11 UNL     1      26.244   0.712  53.878  1.00  0.00     0.001 A 
HETATM   16  C12 UNL     1      26.167   2.107  53.832  1.00  0.00     0.001 A 
HETATM   17  C13 UNL     1      24.994   2.652  53.354  1.00  0.00     0.013 A 
ENDBRANCH   6   8
BRANCH   2  18
HETATM   18  N2  UNL     1      23.320   5.038  48.769  1.00  0.00    -0.343 N 
HETATM   19  C15 UNL     1      23.755   6.379  48.562  1.00  0.00     0.092 A 
HETATM   20  C16 UNL     1      23.443   6.938  47.395  1.00  0.00     0.018 A 
HETATM   21  C17 UNL     1      22.696   6.229  46.367  1.00  0.00     0.018 A 
HETATM   22  C18 UNL     1      22.292   4.980  46.559  1.00  0.00     0.007 A 
HETATM   23 BR1  UNL     1      21.306   3.983  45.257  1.00  0.00    -0.054 Br
HETATM   24  C19 UNL     1      22.579   4.238  47.832  1.00  0.00     0.175 A 
ENDBRANCH   2  18
TORSDOF 2
ENDMDL
MODEL 6
REMARK VINA RESULT:      -7.5      3.533      5.904
REMARK  2 active torsions:
REMARK  status: ('A' for Active; 'I' for Inactive)
REMARK    1  A    between atoms: C1_2  and  N2_17 
REMARK    2  A    between atoms: C4_6  and  C5_7 
ROOT
HETATM    1 CL1  UNL     1      23.850   3.971  53.117  1.00  0.00    -0.064 Cl
HETATM    2  C1  UNL     1      23.697   3.580  51.399  1.00  0.00     0.112 C 
HETATM    3  C2  UNL     1      22.888   2.795  50.689  1.00  0.00     0.024 C 
HETATM    4  C3  UNL     1      22.590   2.334  49.307  1.00  0.00     0.310 C 
HETATM    5  N1  UNL     1      22.045   1.122  49.886  1.00  0.00     0.100 N 
HETATM    6  C4  UNL     1      21.744   1.895  51.076  1.00  0.00     0.288 C 
HETATM    7  H3  UNL     1      22.811   0.447  50.086  1.00  0.00     0.317 HD
ENDROOT
BRANCH   6   8
HETATM    8  C5  UNL     1      21.978   1.121  52.293  1.00  0.00    -0.010 A 
HETATM    9  C6  UNL     1      20.816   0.979  53.057  1.00  0.00     0.010 A 
HETATM   10  C7  UNL     1      20.850   0.259  54.257  1.00  0.00     0.002 A 
HETATM   11  C8  UNL     1      22.027  -0.322  54.708  1.00  0.00     0.012 A 
HETATM   12  C9  UNL     1      23.179  -0.188  53.962  1.00  0.00    -0.025 A 
HETATM   13  C10 UNL     1      24.399  -0.720  54.311  1.00  0.00     0.012 A 
HETATM   14  C14 UNL     1      23.115   0.526  52.785  1.00  0.00    -0.017 A 
HETATM   15  C11 UNL     1      25.530  -0.546  53.509  1.00  0.00     0.001 A 
HETATM   16  C12 UNL     1      25.453   0.181  52.317  1.00  0.00     0.001 A 
HETATM   17  C13 UNL     1      24.221   0.705  51.986  1.00  0.00     0.013 A 
ENDBRANCH   6   8
BRANCH   2  18
HETATM   18  N2  UNL     1      24.681   4.287  50.625  1.00  0.00    -0.343 N 
HETATM   19  C15 UNL     1      25.776   3.650  49.974  1.00  0.00     0.092 A 
HETATM   20  C16 UNL     1      26.609   4.434  49.292  1.00  0.00     0.018 A 
HETATM   21  C17 UNL     1      26.425   5.874  49.205  1.00  0.00     0.018 A 
HETATM   22  C18 UNL     1      25.406   6.469  49.810  1.00  0.00     0.007 A 
HETATM   23 BR1  UNL     1      25.097   8.356  49.742  1.00  0.00    -0.054 Br
HETATM   24  C19 UNL     1      24.397   5.696  50.610  1.00  0.00     0.175 A 
ENDBRANCH   2  18
TORSDOF 2
ENDMDL
MODEL 7
REMARK VINA RESULT:      -7.4      2.709      3.976
REMARK  2 active torsions:
REMARK  status: ('A' for Active; 'I' for Inactive)
REMARK    1  A    between atoms: C1_2  and  N2_17 
REMARK    2  A    between atoms: C4_6  and  C5_7 
ROOT
HETATM    1 CL1  UNL     1      23.179   2.445  49.565  1.00  0.00    -0.064 Cl
HETATM    2  C1  UNL     1      23.528   2.862  51.249  1.00  0.00     0.112 C 
HETATM    3  C2  UNL     1      23.486   3.989  51.959  1.00  0.00     0.024 C 
HETATM    4  C3  UNL     1      23.722   4.548  53.317  1.00  0.00     0.310 C 
HETATM    5  N1  UNL     1      23.981   5.827  52.686  1.00  0.00     0.100 N 
HETATM    6  C4  UNL     1      23.112   5.404  51.604  1.00  0.00     0.288 C 
HETATM    7  H3  UNL     1      24.965   5.868  52.354  1.00  0.00     0.317 HD
ENDROOT
BRANCH   6   8
HETATM    8  C5  UNL     1      23.616   5.847  50.306  1.00  0.00    -0.010 A 
HETATM    9  C6  UNL     1      24.975   6.168  50.352  1.00  0.00     0.010 A 
HETATM   10  C7  UNL     1      25.631   6.606  49.195  1.00  0.00     0.002 A 
HETATM   11  C8  UNL     1      24.951   6.729  47.991  1.00  0.00     0.012 A 
HETATM   12  C9  UNL     1      23.610   6.414  47.935  1.00  0.00    -0.025 A 
HETATM   13  C10 UNL     1      22.838   6.497  46.799  1.00  0.00     0.012 A 
HETATM   14  C14 UNL     1      22.990   5.985  49.089  1.00  0.00    -0.017 A 
HETATM   15  C11 UNL     1      21.481   6.164  46.809  1.00  0.00     0.001 A 
HETATM   16  C12 UNL     1      20.863   5.730  47.987  1.00  0.00     0.001 A 
HETATM   17  C13 UNL     1      21.655   5.653  49.114  1.00  0.00     0.013 A 
ENDBRANCH   6   8
BRANCH   2  18
HETATM   18  N2  UNL     1      23.948   1.702  51.985  1.00  0.00    -0.343 N 
HETATM   19  C15 UNL     1      25.295   1.236  52.019  1.00  0.00     0.092 A 
HETATM   20  C16 UNL     1      25.535   0.146  52.744  1.00  0.00     0.018 A 
HETATM   21  C17 UNL     1      24.486  -0.550  53.475  1.00  0.00     0.018 A 
HETATM   22  C18 UNL     1      23.234  -0.117  53.445  1.00  0.00     0.007 A 
HETATM   23 BR1  UNL     1      21.801  -0.976  54.379  1.00  0.00    -0.054 Br
HETATM   24  C19 UNL     1      22.832   1.101  52.664  1.00  0.00     0.175 A 
ENDBRANCH   2  18
TORSDOF 2
ENDMDL
MODEL 8
REMARK VINA RESULT:      -7.3      2.633      3.995
REMARK  2 active torsions:
REMARK  status: ('A' for Active; 'I' for Inactive)
REMARK    1  A    between atoms: C1_2  and  N2_17 
REMARK    2  A    between atoms: C4_6  and  C5_7 
ROOT
HETATM    1 CL1  UNL     1      23.638  -0.880  53.243  1.00  0.00    -0.064 Cl
HETATM    2  C1  UNL     1      24.802   0.381  52.814  1.00  0.00     0.112 C 
HETATM    3  C2  UNL     1      24.701   1.636  52.378  1.00  0.00     0.024 C 
HETATM    4  C3  UNL     1      25.500   2.822  51.972  1.00  0.00     0.310 C 
HETATM    5  N1  UNL     1      24.381   3.225  51.143  1.00  0.00     0.100 N 
HETATM    6  C4  UNL     1      23.516   2.512  52.065  1.00  0.00     0.288 C 
HETATM    7  H3  UNL     1      24.416   2.727  50.231  1.00  0.00     0.317 HD
ENDROOT
BRANCH   6   8
HETATM    8  C5  UNL     1      22.434   1.826  51.363  1.00  0.00    -0.010 A 
HETATM    9  C6  UNL     1      22.591   1.879  49.975  1.00  0.00     0.010 A 
HETATM   10  C7  UNL     1      21.649   1.267  49.140  1.00  0.00     0.002 A 
HETATM   11  C8  UNL     1      20.552   0.601  49.667  1.00  0.00     0.012 A 
HETATM   12  C9  UNL     1      20.388   0.543  51.035  1.00  0.00    -0.025 A 
HETATM   13  C10 UNL     1      19.340  -0.088  51.667  1.00  0.00     0.012 A 
HETATM   14  C14 UNL     1      21.330   1.154  51.833  1.00  0.00    -0.017 A 
HETATM   15  C11 UNL     1      19.232  -0.110  53.060  1.00  0.00     0.001 A 
HETATM   16  C12 UNL     1      20.196   0.515  53.859  1.00  0.00     0.001 A 
HETATM   17  C13 UNL     1      21.236   1.140  53.206  1.00  0.00     0.013 A 
ENDBRANCH   6   8
BRANCH   2  18
HETATM   18  N2  UNL     1      26.150  -0.089  52.988  1.00  0.00    -0.343 N 
HETATM   19  C15 UNL     1      26.586  -1.389  52.601  1.00  0.00     0.092 A 
HETATM   20  C16 UNL     1      27.865  -1.685  52.824  1.00  0.00     0.018 A 
HETATM   21  C17 UNL     1      28.788  -0.738  53.433  1.00  0.00     0.018 A 
HETATM   22  C18 UNL     1      28.382   0.472  53.793  1.00  0.00     0.007 A 
HETATM   23 BR1  UNL     1      29.535   1.771  54.598  1.00  0.00    -0.054 Br
HETATM   24  C19 UNL     1      26.965   0.928  53.595  1.00  0.00     0.175 A 
ENDBRANCH   2  18
TORSDOF 2
ENDMDL
MODEL 9
REMARK VINA RESULT:      -7.3      1.843      2.610
REMARK  2 active torsions:
REMARK  status: ('A' for Active; 'I' for Inactive)
REMARK    1  A    between atoms: C1_2  and  N2_17 
REMARK    2  A    between atoms: C4_6  and  C5_7 
ROOT
HETATM    1 CL1  UNL     1      24.306  -0.654  53.117  1.00  0.00    -0.064 Cl
HETATM    2  C1  UNL     1      24.949   0.992  53.181  1.00  0.00     0.112 C 
HETATM    3  C2  UNL     1      24.410   2.209  53.113  1.00  0.00     0.024 C 
HETATM    4  C3  UNL     1      24.738   3.659  53.143  1.00  0.00     0.310 C 
HETATM    5  N1  UNL     1      23.541   3.891  52.359  1.00  0.00     0.100 N 
HETATM    6  C4  UNL     1      22.990   2.686  52.950  1.00  0.00     0.288 C 
HETATM    7  H3  UNL     1      23.739   3.733  51.351  1.00  0.00     0.317 HD
ENDROOT
BRANCH   6   8
HETATM    8  C5  UNL     1      22.211   1.920  51.980  1.00  0.00    -0.010 A 
HETATM    9  C6  UNL     1      21.293   1.067  52.600  1.00  0.00     0.010 A 
HETATM   10  C7  UNL     1      20.454   0.259  51.823  1.00  0.00     0.002 A 
HETATM   11  C8  UNL     1      20.515   0.289  50.437  1.00  0.00     0.012 A 
HETATM   12  C9  UNL     1      21.416   1.128  49.816  1.00  0.00    -0.025 A 
HETATM   13  C10 UNL     1      21.563   1.239  48.453  1.00  0.00     0.012 A 
HETATM   14  C14 UNL     1      22.230   1.911  50.605  1.00  0.00    -0.017 A 
HETATM   15  C11 UNL     1      22.499   2.109  47.886  1.00  0.00     0.001 A 
HETATM   16  C12 UNL     1      23.319   2.899  48.698  1.00  0.00     0.001 A 
HETATM   17  C13 UNL     1      23.155   2.773  50.061  1.00  0.00     0.013 A 
ENDBRANCH   6   8
BRANCH   2  18
HETATM   18  N2  UNL     1      26.377   0.976  53.343  1.00  0.00    -0.343 N 
HETATM   19  C15 UNL     1      27.152   2.141  53.613  1.00  0.00     0.092 A 
HETATM   20  C16 UNL     1      28.467   1.973  53.738  1.00  0.00     0.018 A 
HETATM   21  C17 UNL     1      29.100   0.668  53.611  1.00  0.00     0.018 A 
HETATM   22  C18 UNL     1      28.380  -0.416  53.360  1.00  0.00     0.007 A 
HETATM   23 BR1  UNL     1      29.138  -2.163  53.179  1.00  0.00    -0.054 Br
HETATM   24  C19 UNL     1      26.888  -0.360  53.197  1.00  0.00     0.175 A 
ENDBRANCH   2  18
TORSDOF 2
ENDMDL
