MODEL 1
REMARK VINA RESULT:      -7.3      0.000      0.000
REMARK  8 active torsions:
REMARK  status: ('A' for Active; 'I' for Inactive)
REMARK    1  A    between atoms: C2_3  and  C3_4 
REMARK    2  A    between atoms: C3_4  and  N1_5 
REMARK    3  A    between atoms: N1_5  and  C4_6 
REMARK    4  A    between atoms: C8_12  and  O1_13 
REMARK    5  A    between atoms: O1_13  and  C9_14 
REMARK    6  A    between atoms: C9_14  and  C10_15 
REMARK    7  A    between atoms: C10_15  and  C11_16 
REMARK    8  A    between atoms: C11_16  and  N4_17 
ROOT
HETATM    1 CL1  UNL     1      27.872   9.237  49.865  1.00  0.00    -0.023 Cl
HETATM    2  C1  UNL     1      26.520   8.184  50.143  1.00  0.00     0.006 C 
HETATM    3  C2  UNL     1      25.572   7.459  50.318  1.00  0.00    -0.070 C 
ENDROOT
BRANCH   3   4
HETATM    4  C3  UNL     1      24.407   6.559  50.517  1.00  0.00     0.217 C 
BRANCH   4   5
HETATM    5  N1  UNL     1      24.901   5.287  50.930  1.00  0.00    -0.364 N 
HETATM    6  H3  UNL     1      25.907   5.049  50.923  1.00  0.00     0.162 HD
BRANCH   5   7
HETATM    7  C4  UNL     1      23.987   4.276  51.381  1.00  0.00     0.125 C 
HETATM    8  N2  UNL     1      24.127   3.688  50.146  1.00  0.00    -0.225 NA
HETATM    9  C5  UNL     1      23.061   3.266  49.404  1.00  0.00     0.235 C 
HETATM   10  N3  UNL     1      21.881   2.516  49.195  1.00  0.00    -0.246 NA
HETATM   11  C6  UNL     1      21.325   2.038  50.373  1.00  0.00     0.045 C 
HETATM   12  C7  UNL     1      21.794   0.822  50.838  1.00  0.00     0.065 C 
HETATM   13  C17 UNL     1      20.489   3.099  50.887  1.00  0.00     0.073 C 
HETATM   14  C8  UNL     1      22.550   1.064  52.054  1.00  0.00     0.081 C 
HETATM   15  C16 UNL     1      22.270   2.362  51.951  1.00  0.00     0.030 A 
HETATM   16  O3  UNL     1      21.919   3.655  51.744  1.00  0.00     0.000 OA
HETATM   17  C19 UNL     1      22.283   3.851  51.988  1.00  0.00     0.152 A 
HETATM   18  O4  UNL     1      21.491   4.971  51.493  1.00  0.00    -0.366 OA
HETATM   19  C20 UNL     1      23.433   4.351  52.709  1.00  0.00     0.070 C 
HETATM   20  C18 UNL     1      20.550   4.499  50.362  1.00  0.00     0.181 C 
BRANCH  14  21
HETATM   21  O1  UNL     1      23.315   0.795  53.154  1.00  0.00    -0.350 OA
BRANCH  21  22
HETATM   22  C9  UNL     1      23.773  -0.516  53.346  1.00  0.00     0.177 C 
BRANCH  22  23
HETATM   23  C10 UNL     1      24.748  -0.665  54.481  1.00  0.00     0.046 C 
BRANCH  23  24
HETATM   24  C11 UNL     1      26.161  -0.559  53.905  1.00  0.00     0.119 C 
BRANCH  24  25
HETATM   25  N4  UNL     1      26.885   0.502  54.521  1.00  0.00    -0.408 N 
HETATM   26  C12 UNL     1      26.664   1.810  54.001  1.00  0.00     0.143 C 
HETATM   27  C13 UNL     1      27.558   1.968  52.785  1.00  0.00     0.187 C 
HETATM   28  O2  UNL     1      28.902   1.803  53.082  1.00  0.00    -0.388 OA
HETATM   29  C14 UNL     1      29.203   0.589  53.681  1.00  0.00     0.187 C 
HETATM   30  C15 UNL     1      28.263   0.233  54.806  1.00  0.00     0.143 C 
ENDBRANCH  24  25
ENDBRANCH  23  24
ENDBRANCH  22  23
ENDBRANCH  21  22
ENDBRANCH  14  21
ENDBRANCH   5   7
ENDBRANCH   4   5
ENDBRANCH   3   4
TORSDOF 8
ENDMDL
MODEL 2
REMARK VINA RESULT:      -7.0      2.213      5.754
REMARK  8 active torsions:
REMARK  status: ('A' for Active; 'I' for Inactive)
REMARK    1  A    between atoms: C2_3  and  C3_4 
REMARK    2  A    between atoms: C3_4  and  N1_5 
REMARK    3  A    between atoms: N1_5  and  C4_6 
REMARK    4  A    between atoms: C8_12  and  O1_13 
REMARK    5  A    between atoms: O1_13  and  C9_14 
REMARK    6  A    between atoms: C9_14  and  C10_15 
REMARK    7  A    between atoms: C10_15  and  C11_16 
REMARK    8  A    between atoms: C11_16  and  N4_17 
ROOT
HETATM    1 CL1  UNL     1      22.297   8.067  50.060  1.00  0.00    -0.023 Cl
HETATM    2  C1  UNL     1      23.216   6.622  50.349  1.00  0.00     0.006 C 
HETATM    3  C2  UNL     1      23.869   5.631  50.557  1.00  0.00    -0.070 C 
ENDROOT
BRANCH   3   4
HETATM    4  C3  UNL     1      24.676   4.414  50.832  1.00  0.00     0.217 C 
BRANCH   4   5
HETATM    5  N1  UNL     1      24.302   3.919  52.115  1.00  0.00    -0.364 N 
HETATM    6  H3  UNL     1      23.982   4.536  52.880  1.00  0.00     0.162 HD
BRANCH   5   7
HETATM    7  C4  UNL     1      24.360   2.510  52.384  1.00  0.00     0.125 C 
HETATM    8  N2  UNL     1      24.819   2.833  53.639  1.00  0.00    -0.225 NA
HETATM    9  C5  UNL     1      25.905   2.229  54.206  1.00  0.00     0.235 C 
HETATM   10  N3  UNL     1      26.642   1.108  54.651  1.00  0.00    -0.246 NA
HETATM   11  C6  UNL     1      26.172  -0.091  54.134  1.00  0.00     0.045 C 
HETATM   12  C7  UNL     1      25.154  -0.718  54.831  1.00  0.00     0.065 C 
HETATM   13  C17 UNL     1      26.810  -0.256  52.846  1.00  0.00     0.073 C 
HETATM   14  C8  UNL     1      23.946  -0.645  54.029  1.00  0.00     0.081 C 
HETATM   15  C16 UNL     1      24.633  -0.015  53.078  1.00  0.00     0.030 A 
HETATM   16  O3  UNL     1      25.434   0.613  52.182  1.00  0.00     0.000 OA
HETATM   17  C19 UNL     1      25.086   0.854  51.957  1.00  0.00     0.152 A 
HETATM   18  O4  UNL     1      26.325   1.225  51.282  1.00  0.00    -0.366 OA
HETATM   19  C20 UNL     1      23.977   1.568  51.363  1.00  0.00     0.070 C 
HETATM   20  C18 UNL     1      27.541   0.856  52.161  1.00  0.00     0.181 C 
BRANCH  14  21
HETATM   21  O1  UNL     1      22.635  -0.814  53.682  1.00  0.00    -0.350 OA
BRANCH  21  22
HETATM   22  C9  UNL     1      21.647  -0.249  54.500  1.00  0.00     0.177 C 
BRANCH  22  23
HETATM   23  C10 UNL     1      20.813   0.801  53.818  1.00  0.00     0.046 C 
BRANCH  23  24
HETATM   24  C11 UNL     1      20.608   0.370  52.365  1.00  0.00     0.119 C 
BRANCH  24  25
HETATM   25  N4  UNL     1      19.698   1.238  51.698  1.00  0.00    -0.408 N 
HETATM   26  C12 UNL     1      19.498   1.004  50.307  1.00  0.00     0.143 C 
HETATM   27  C13 UNL     1      20.627   1.696  49.567  1.00  0.00     0.187 C 
HETATM   28  O2  UNL     1      20.672   3.060  49.811  1.00  0.00    -0.388 OA
HETATM   29  C14 UNL     1      20.774   3.390  51.154  1.00  0.00     0.187 C 
HETATM   30  C15 UNL     1      19.808   2.628  52.028  1.00  0.00     0.143 C 
ENDBRANCH  24  25
ENDBRANCH  23  24
ENDBRANCH  22  23
ENDBRANCH  21  22
ENDBRANCH  14  21
ENDBRANCH   5   7
ENDBRANCH   4   5
ENDBRANCH   3   4
TORSDOF 8
ENDMDL
MODEL 3
REMARK VINA RESULT:      -6.8      5.934      9.110
REMARK  8 active torsions:
REMARK  status: ('A' for Active; 'I' for Inactive)
REMARK    1  A    between atoms: C2_3  and  C3_4 
REMARK    2  A    between atoms: C3_4  and  N1_5 
REMARK    3  A    between atoms: N1_5  and  C4_6 
REMARK    4  A    between atoms: C8_12  and  O1_13 
REMARK    5  A    between atoms: O1_13  and  C9_14 
REMARK    6  A    between atoms: C9_14  and  C10_15 
REMARK    7  A    between atoms: C10_15  and  C11_16 
REMARK    8  A    between atoms: C11_16  and  N4_17 
ROOT
HETATM    1 CL1  UNL     1      31.705   0.308  46.447  1.00  0.00    -0.023 Cl
HETATM    2  C1  UNL     1      32.663   1.633  47.030  1.00  0.00     0.006 C 
HETATM    3  C2  UNL     1      33.317   2.554  47.453  1.00  0.00    -0.070 C 
ENDROOT
BRANCH   3   4
HETATM    4  C3  UNL     1      34.127   3.678  47.990  1.00  0.00     0.217 C 
BRANCH   4   5
HETATM    5  N1  UNL     1      33.685   4.878  47.361  1.00  0.00    -0.364 N 
HETATM    6  H3  UNL     1      34.217   5.342  46.606  1.00  0.00     0.162 HD
BRANCH   5   7
HETATM    7  C4  UNL     1      32.452   5.489  47.771  1.00  0.00     0.125 C 
HETATM    8  N2  UNL     1      32.213   5.749  46.442  1.00  0.00    -0.225 NA
HETATM    9  C5  UNL     1      31.804   6.972  45.991  1.00  0.00     0.235 C 
HETATM   10  N3  UNL     1      30.934   8.085  45.964  1.00  0.00    -0.246 NA
HETATM   11  C6  UNL     1      30.097   8.148  47.069  1.00  0.00     0.045 C 
HETATM   12  C7  UNL     1      28.905   7.451  46.993  1.00  0.00     0.065 C 
HETATM   13  C17 UNL     1      30.842   8.831  48.104  1.00  0.00     0.073 C 
HETATM   14  C8  UNL     1      28.975   6.334  47.919  1.00  0.00     0.081 C 
HETATM   15  C16 UNL     1      30.191   6.735  48.286  1.00  0.00     0.030 A 
HETATM   16  O3  UNL     1      31.414   7.239  48.581  1.00  0.00     0.000 OA
HETATM   17  C19 UNL     1      31.605   6.829  48.741  1.00  0.00     0.152 A 
HETATM   18  O4  UNL     1      32.658   7.831  48.866  1.00  0.00    -0.366 OA
HETATM   19  C20 UNL     1      32.108   5.542  49.169  1.00  0.00     0.070 C 
HETATM   20  C18 UNL     1      32.316   9.071  48.009  1.00  0.00     0.181 C 
BRANCH  14  21
HETATM   21  O1  UNL     1      28.585   5.211  48.592  1.00  0.00    -0.350 OA
BRANCH  21  22
HETATM   22  C9  UNL     1      27.215   4.927  48.684  1.00  0.00     0.177 C 
BRANCH  22  23
HETATM   23  C10 UNL     1      26.896   3.696  49.488  1.00  0.00     0.046 C 
BRANCH  23  24
HETATM   24  C11 UNL     1      25.673   4.003  50.354  1.00  0.00     0.119 C 
BRANCH  24  25
HETATM   25  N4  UNL     1      24.946   2.815  50.648  1.00  0.00    -0.408 N 
HETATM   26  C12 UNL     1      23.535   2.952  50.790  1.00  0.00     0.143 C 
HETATM   27  C13 UNL     1      23.268   3.411  52.212  1.00  0.00     0.187 C 
HETATM   28  O2  UNL     1      23.751   2.524  53.161  1.00  0.00    -0.388 OA
HETATM   29  C14 UNL     1      25.106   2.255  53.045  1.00  0.00     0.187 C 
HETATM   30  C15 UNL     1      25.532   1.951  51.629  1.00  0.00     0.143 C 
ENDBRANCH  24  25
ENDBRANCH  23  24
ENDBRANCH  22  23
ENDBRANCH  21  22
ENDBRANCH  14  21
ENDBRANCH   5   7
ENDBRANCH   4   5
ENDBRANCH   3   4
TORSDOF 8
ENDMDL
MODEL 4
REMARK VINA RESULT:      -6.6      3.163      4.173
REMARK  8 active torsions:
REMARK  status: ('A' for Active; 'I' for Inactive)
REMARK    1  A    between atoms: C2_3  and  C3_4 
REMARK    2  A    between atoms: C3_4  and  N1_5 
REMARK    3  A    between atoms: N1_5  and  C4_6 
REMARK    4  A    between atoms: C8_12  and  O1_13 
REMARK    5  A    between atoms: O1_13  and  C9_14 
REMARK    6  A    between atoms: C9_14  and  C10_15 
REMARK    7  A    between atoms: C10_15  and  C11_16 
REMARK    8  A    between atoms: C11_16  and  N4_17 
ROOT
HETATM    1 CL1  UNL     1      18.988   3.250  44.007  1.00  0.00    -0.023 Cl
HETATM    2  C1  UNL     1      19.708   3.686  45.526  1.00  0.00     0.006 C 
HETATM    3  C2  UNL     1      20.212   4.008  46.573  1.00  0.00    -0.070 C 
ENDROOT
BRANCH   3   4
HETATM    4  C3  UNL     1      20.821   4.419  47.865  1.00  0.00     0.217 C 
BRANCH   4   5
HETATM    5  N1  UNL     1      21.757   3.416  48.249  1.00  0.00    -0.364 N 
HETATM    6  H3  UNL     1      22.247   2.817  47.563  1.00  0.00     0.162 HD
BRANCH   5   7
HETATM    7  C4  UNL     1      22.051   3.204  49.638  1.00  0.00     0.125 C 
HETATM    8  N2  UNL     1      22.112   1.860  49.355  1.00  0.00    -0.225 NA
HETATM    9  C5  UNL     1      21.480   0.917  50.114  1.00  0.00     0.235 C 
HETATM   10  N3  UNL     1      21.194   0.251  51.327  1.00  0.00    -0.246 NA
HETATM   11  C6  UNL     1      21.596   0.965  52.446  1.00  0.00     0.045 C 
HETATM   12  C7  UNL     1      22.900   0.783  52.871  1.00  0.00     0.065 C 
HETATM   13  C17 UNL     1      20.515   1.874  52.758  1.00  0.00     0.073 C 
HETATM   14  C8  UNL     1      23.632   2.013  52.623  1.00  0.00     0.081 C 
HETATM   15  C16 UNL     1      22.515   2.563  52.149  1.00  0.00     0.030 A 
HETATM   16  O3  UNL     1      21.321   3.016  51.694  1.00  0.00     0.000 OA
HETATM   17  C19 UNL     1      21.498   3.356  51.405  1.00  0.00     0.152 A 
HETATM   18  O4  UNL     1      20.048   3.436  51.269  1.00  0.00    -0.366 OA
HETATM   19  C20 UNL     1      22.121   4.330  50.535  1.00  0.00     0.070 C 
HETATM   20  C18 UNL     1      19.391   2.145  51.808  1.00  0.00     0.181 C 
BRANCH  14  21
HETATM   21  O1  UNL     1      24.685   2.883  52.582  1.00  0.00    -0.350 OA
BRANCH  21  22
HETATM   22  C9  UNL     1      25.325   3.100  51.354  1.00  0.00     0.177 C 
BRANCH  22  23
HETATM   23  C10 UNL     1      26.514   2.209  51.117  1.00  0.00     0.046 C 
BRANCH  23  24
HETATM   24  C11 UNL     1      27.244   2.033  52.449  1.00  0.00     0.119 C 
BRANCH  24  25
HETATM   25  N4  UNL     1      27.630   0.677  52.644  1.00  0.00    -0.408 N 
HETATM   26  C12 UNL     1      26.583  -0.253  52.902  1.00  0.00     0.143 C 
HETATM   27  C13 UNL     1      26.269  -0.179  54.385  1.00  0.00     0.187 C 
HETATM   28  O2  UNL     1      27.365  -0.475  55.180  1.00  0.00    -0.388 OA
HETATM   29  C14 UNL     1      28.473   0.322  54.935  1.00  0.00     0.187 C 
HETATM   30  C15 UNL     1      28.785   0.469  53.466  1.00  0.00     0.143 C 
ENDBRANCH  24  25
ENDBRANCH  23  24
ENDBRANCH  22  23
ENDBRANCH  21  22
ENDBRANCH  14  21
ENDBRANCH   5   7
ENDBRANCH   4   5
ENDBRANCH   3   4
TORSDOF 8
ENDMDL
MODEL 5
REMARK VINA RESULT:      -6.4      3.127      4.499
REMARK  8 active torsions:
REMARK  status: ('A' for Active; 'I' for Inactive)
REMARK    1  A    between atoms: C2_3  and  C3_4 
REMARK    2  A    between atoms: C3_4  and  N1_5 
REMARK    3  A    between atoms: N1_5  and  C4_6 
REMARK    4  A    between atoms: C8_12  and  O1_13 
REMARK    5  A    between atoms: O1_13  and  C9_14 
REMARK    6  A    between atoms: C9_14  and  C10_15 
REMARK    7  A    between atoms: C10_15  and  C11_16 
REMARK    8  A    between atoms: C11_16  and  N4_17 
ROOT
HETATM    1 CL1  UNL     1      27.280  -0.905  52.807  1.00  0.00    -0.023 Cl
HETATM    2  C1  UNL     1      26.899   0.579  51.989  1.00  0.00     0.006 C 
HETATM    3  C2  UNL     1      26.654   1.610  51.414  1.00  0.00    -0.070 C 
ENDROOT
BRANCH   3   4
HETATM    4  C3  UNL     1      26.360   2.873  50.689  1.00  0.00     0.217 C 
BRANCH   4   5
HETATM    5  N1  UNL     1      25.459   3.637  51.487  1.00  0.00    -0.364 N 
HETATM    6  H3  UNL     1      25.778   4.265  52.244  1.00  0.00     0.162 HD
BRANCH   5   7
HETATM    7  C4  UNL     1      24.045   3.553  51.252  1.00  0.00     0.125 C 
HETATM    8  N2  UNL     1      24.322   3.716  49.915  1.00  0.00    -0.225 NA
HETATM    9  C5  UNL     1      23.645   4.600  49.124  1.00  0.00     0.235 C 
HETATM   10  N3  UNL     1      22.476   5.147  48.549  1.00  0.00    -0.246 NA
HETATM   11  C6  UNL     1      21.315   4.750  49.197  1.00  0.00     0.045 C 
HETATM   12  C7  UNL     1      20.740   3.562  48.780  1.00  0.00     0.065 C 
HETATM   13  C17 UNL     1      21.131   5.667  50.300  1.00  0.00     0.073 C 
HETATM   14  C8  UNL     1      20.897   2.586  49.844  1.00  0.00     0.081 C 
HETATM   15  C16 UNL     1      21.498   3.514  50.586  1.00  0.00     0.030 A 
HETATM   16  O3  UNL     1      22.090   4.539  51.247  1.00  0.00     0.000 OA
HETATM   17  C19 UNL     1      22.355   4.269  51.542  1.00  0.00     0.152 A 
HETATM   18  O4  UNL     1      22.661   5.651  51.892  1.00  0.00    -0.366 OA
HETATM   19  C20 UNL     1      23.144   3.375  52.362  1.00  0.00     0.070 C 
HETATM   20  C18 UNL     1      22.207   6.600  50.760  1.00  0.00     0.181 C 
BRANCH  14  21
HETATM   21  O1  UNL     1      20.811   1.389  50.498  1.00  0.00    -0.350 OA
BRANCH  21  22
HETATM   22  C9  UNL     1      19.735   1.180  51.371  1.00  0.00     0.177 C 
BRANCH  22  23
HETATM   23  C10 UNL     1      19.982   0.116  52.405  1.00  0.00     0.046 C 
BRANCH  23  24
HETATM   24  C11 UNL     1      21.342   0.392  53.049  1.00  0.00     0.119 C 
BRANCH  24  25
HETATM   25  N4  UNL     1      22.147  -0.782  53.065  1.00  0.00    -0.408 N 
HETATM   26  C12 UNL     1      21.768  -1.802  53.984  1.00  0.00     0.143 C 
HETATM   27  C13 UNL     1      22.360  -1.435  55.333  1.00  0.00     0.187 C 
HETATM   28  O2  UNL     1      23.741  -1.323  55.299  1.00  0.00    -0.388 OA
HETATM   29  C14 UNL     1      24.212  -0.416  54.363  1.00  0.00     0.187 C 
HETATM   30  C15 UNL     1      23.563  -0.568  53.009  1.00  0.00     0.143 C 
ENDBRANCH  24  25
ENDBRANCH  23  24
ENDBRANCH  22  23
ENDBRANCH  21  22
ENDBRANCH  14  21
ENDBRANCH   5   7
ENDBRANCH   4   5
ENDBRANCH   3   4
TORSDOF 8
ENDMDL
MODEL 6
REMARK VINA RESULT:      -6.3      2.696      6.121
REMARK  8 active torsions:
REMARK  status: ('A' for Active; 'I' for Inactive)
REMARK    1  A    between atoms: C2_3  and  C3_4 
REMARK    2  A    between atoms: C3_4  and  N1_5 
REMARK    3  A    between atoms: N1_5  and  C4_6 
REMARK    4  A    between atoms: C8_12  and  O1_13 
REMARK    5  A    between atoms: O1_13  and  C9_14 
REMARK    6  A    between atoms: C9_14  and  C10_15 
REMARK    7  A    between atoms: C10_15  and  C11_16 
REMARK    8  A    between atoms: C11_16  and  N4_17 
ROOT
HETATM    1 CL1  UNL     1      30.536   5.402  47.775  1.00  0.00    -0.023 Cl
HETATM    2  C1  UNL     1      28.874   5.658  48.208  1.00  0.00     0.006 C 
HETATM    3  C2  UNL     1      27.715   5.836  48.487  1.00  0.00    -0.070 C 
ENDROOT
BRANCH   3   4
HETATM    4  C3  UNL     1      26.281   6.040  48.822  1.00  0.00     0.217 C 
BRANCH   4   5
HETATM    5  N1  UNL     1      26.044   5.466  50.104  1.00  0.00    -0.364 N 
HETATM    6  H3  UNL     1      26.427   5.868  50.976  1.00  0.00     0.162 HD
BRANCH   5   7
HETATM    7  C4  UNL     1      25.243   4.280  50.221  1.00  0.00     0.125 C 
HETATM    8  N2  UNL     1      24.317   5.048  50.887  1.00  0.00    -0.225 NA
HETATM    9  C5  UNL     1      23.738   4.654  52.060  1.00  0.00     0.235 C 
HETATM   10  N3  UNL     1      23.005   3.760  52.873  1.00  0.00    -0.246 NA
HETATM   11  C6  UNL     1      22.912   2.486  52.332  1.00  0.00     0.045 C 
HETATM   12  C7  UNL     1      21.866   2.252  51.456  1.00  0.00     0.065 C 
HETATM   13  C17 UNL     1      24.108   1.783  52.740  1.00  0.00     0.073 C 
HETATM   14  C8  UNL     1      22.423   2.073  50.126  1.00  0.00     0.081 C 
HETATM   15  C16 UNL     1      23.645   2.229  50.634  1.00  0.00     0.030 A 
HETATM   16  O3  UNL     1      24.834   2.397  51.262  1.00  0.00     0.000 OA
HETATM   17  C19 UNL     1      25.078   2.550  50.878  1.00  0.00     0.152 A 
HETATM   18  O4  UNL     1      26.035   2.544  51.978  1.00  0.00    -0.366 OA
HETATM   19  C20 UNL     1      25.722   3.035  49.677  1.00  0.00     0.070 C 
HETATM   20  C18 UNL     1      25.291   2.482  53.331  1.00  0.00     0.181 C 
BRANCH  14  21
HETATM   21  O1  UNL     1      22.456   1.860  48.777  1.00  0.00    -0.350 OA
BRANCH  21  22
HETATM   22  C9  UNL     1      21.449   2.429  47.985  1.00  0.00     0.177 C 
BRANCH  22  23
HETATM   23  C10 UNL     1      21.919   3.566  47.120  1.00  0.00     0.046 C 
BRANCH  23  24
HETATM   24  C11 UNL     1      22.093   4.796  48.013  1.00  0.00     0.119 C 
BRANCH  24  25
HETATM   25  N4  UNL     1      20.843   5.225  48.541  1.00  0.00    -0.408 N 
HETATM   26  C12 UNL     1      20.131   6.199  47.782  1.00  0.00     0.143 C 
HETATM   27  C13 UNL     1      20.698   7.558  48.148  1.00  0.00     0.187 C 
HETATM   28  O2  UNL     1      20.583   7.840  49.500  1.00  0.00    -0.388 OA
HETATM   29  C14 UNL     1      21.168   6.894  50.327  1.00  0.00     0.187 C 
HETATM   30  C15 UNL     1      20.815   5.476  49.951  1.00  0.00     0.143 C 
ENDBRANCH  24  25
ENDBRANCH  23  24
ENDBRANCH  22  23
ENDBRANCH  21  22
ENDBRANCH  14  21
ENDBRANCH   5   7
ENDBRANCH   4   5
ENDBRANCH   3   4
TORSDOF 8
ENDMDL
MODEL 7
REMARK VINA RESULT:      -6.2      4.105      6.816
REMARK  8 active torsions:
REMARK  status: ('A' for Active; 'I' for Inactive)
REMARK    1  A    between atoms: C2_3  and  C3_4 
REMARK    2  A    between atoms: C3_4  and  N1_5 
REMARK    3  A    between atoms: N1_5  and  C4_6 
REMARK    4  A    between atoms: C8_12  and  O1_13 
REMARK    5  A    between atoms: O1_13  and  C9_14 
REMARK    6  A    between atoms: C9_14  and  C10_15 
REMARK    7  A    between atoms: C10_15  and  C11_16 
REMARK    8  A    between atoms: C11_16  and  N4_17 
ROOT
HETATM    1 CL1  UNL     1      20.017   0.266  53.118  1.00  0.00    -0.023 Cl
HETATM    2  C1  UNL     1      21.738   0.498  53.136  1.00  0.00     0.006 C 
HETATM    3  C2  UNL     1      22.931   0.674  53.132  1.00  0.00    -0.070 C 
ENDROOT
BRANCH   3   4
HETATM    4  C3  UNL     1      24.398   0.909  53.130  1.00  0.00     0.217 C 
BRANCH   4   5
HETATM    5  N1  UNL     1      24.618   2.313  53.236  1.00  0.00    -0.364 N 
HETATM    6  H3  UNL     1      24.804   2.783  54.138  1.00  0.00     0.162 HD
BRANCH   5   7
HETATM    7  C4  UNL     1      24.588   3.134  52.059  1.00  0.00     0.125 C 
HETATM    8  N2  UNL     1      23.733   3.968  52.740  1.00  0.00    -0.225 NA
HETATM    9  C5  UNL     1      22.574   4.443  52.195  1.00  0.00     0.235 C 
HETATM   10  N3  UNL     1      21.825   5.121  51.207  1.00  0.00    -0.246 NA
HETATM   11  C6  UNL     1      22.525   5.304  50.023  1.00  0.00     0.045 C 
HETATM   12  C7  UNL     1      23.317   6.435  49.932  1.00  0.00     0.065 C 
HETATM   13  C17 UNL     1      22.339   4.096  49.251  1.00  0.00     0.073 C 
HETATM   14  C8  UNL     1      24.707   6.015  49.933  1.00  0.00     0.081 C 
HETATM   15  C16 UNL     1      24.307   4.746  49.996  1.00  0.00     0.030 A 
HETATM   16  O3  UNL     1      23.782   3.497  50.055  1.00  0.00     0.000 OA
HETATM   17  C19 UNL     1      24.164   3.287  50.256  1.00  0.00     0.152 A 
HETATM   18  O4  UNL     1      23.175   2.228  50.081  1.00  0.00    -0.366 OA
HETATM   19  C20 UNL     1      25.344   2.747  50.895  1.00  0.00     0.070 C 
HETATM   20  C18 UNL     1      21.777   2.841  49.841  1.00  0.00     0.181 C 
BRANCH  14  21
HETATM   21  O1  UNL     1      26.069   6.118  49.911  1.00  0.00    -0.350 OA
BRANCH  21  22
HETATM   22  C9  UNL     1      26.696   6.439  48.699  1.00  0.00     0.177 C 
BRANCH  22  23
HETATM   23  C10 UNL     1      27.920   5.615  48.405  1.00  0.00     0.046 C 
BRANCH  23  24
HETATM   24  C11 UNL     1      28.944   6.521  47.719  1.00  0.00     0.119 C 
BRANCH  24  25
HETATM   25  N4  UNL     1      29.771   7.173  48.677  1.00  0.00    -0.408 N 
HETATM   26  C12 UNL     1      29.753   8.598  48.669  1.00  0.00     0.143 C 
HETATM   27  C13 UNL     1      30.721   9.054  47.593  1.00  0.00     0.187 C 
HETATM   28  O2  UNL     1      32.013   8.603  47.808  1.00  0.00    -0.388 OA
HETATM   29  C14 UNL     1      32.119   7.225  47.923  1.00  0.00     0.187 C 
HETATM   30  C15 UNL     1      31.084   6.625  48.844  1.00  0.00     0.143 C 
ENDBRANCH  24  25
ENDBRANCH  23  24
ENDBRANCH  22  23
ENDBRANCH  21  22
ENDBRANCH  14  21
ENDBRANCH   5   7
ENDBRANCH   4   5
ENDBRANCH   3   4
TORSDOF 8
ENDMDL
MODEL 8
REMARK VINA RESULT:      -6.2      6.718      9.328
REMARK  8 active torsions:
REMARK  status: ('A' for Active; 'I' for Inactive)
REMARK    1  A    between atoms: C2_3  and  C3_4 
REMARK    2  A    between atoms: C3_4  and  N1_5 
REMARK    3  A    between atoms: N1_5  and  C4_6 
REMARK    4  A    between atoms: C8_12  and  O1_13 
REMARK    5  A    between atoms: O1_13  and  C9_14 
REMARK    6  A    between atoms: C9_14  and  C10_15 
REMARK    7  A    between atoms: C10_15  and  C11_16 
REMARK    8  A    between atoms: C11_16  and  N4_17 
ROOT
HETATM    1 CL1  UNL     1      22.665   8.644  47.426  1.00  0.00    -0.023 Cl
HETATM    2  C1  UNL     1      24.009   7.644  47.883  1.00  0.00     0.006 C 
HETATM    3  C2  UNL     1      24.942   6.958  48.219  1.00  0.00    -0.070 C 
ENDROOT
BRANCH   3   4
HETATM    4  C3  UNL     1      26.082   6.107  48.649  1.00  0.00     0.217 C 
BRANCH   4   5
HETATM    5  N1  UNL     1      26.964   6.913  49.426  1.00  0.00    -0.364 N 
HETATM    6  H3  UNL     1      26.953   6.917  50.460  1.00  0.00     0.162 HD
BRANCH   5   7
HETATM    7  C4  UNL     1      27.918   7.766  48.774  1.00  0.00     0.125 C 
HETATM    8  N2  UNL     1      27.717   8.665  49.795  1.00  0.00    -0.225 NA
HETATM    9  C5  UNL     1      27.498   9.994  49.574  1.00  0.00     0.235 C 
HETATM   10  N3  UNL     1      27.830  11.262  49.046  1.00  0.00    -0.246 NA
HETATM   11  C6  UNL     1      28.810  11.202  48.065  1.00  0.00     0.045 C 
HETATM   12  C7  UNL     1      30.126  11.241  48.490  1.00  0.00     0.065 C 
HETATM   13  C17 UNL     1      28.123  10.930  46.822  1.00  0.00     0.073 C 
HETATM   14  C8  UNL     1      30.717   9.937  48.248  1.00  0.00     0.081 C 
HETATM   15  C16 UNL     1      29.565   9.529  47.720  1.00  0.00     0.030 A 
HETATM   16  O3  UNL     1      28.348   9.229  47.203  1.00  0.00     0.000 OA
HETATM   17  C19 UNL     1      28.375   8.755  47.269  1.00  0.00     0.152 A 
HETATM   18  O4  UNL     1      27.077   8.993  46.649  1.00  0.00    -0.366 OA
HETATM   19  C20 UNL     1      28.532   7.342  47.541  1.00  0.00     0.070 C 
HETATM   20  C18 UNL     1      26.695  10.485  46.771  1.00  0.00     0.181 C 
BRANCH  14  21
HETATM   21  O1  UNL     1      31.662   8.949  48.233  1.00  0.00    -0.350 OA
BRANCH  21  22
HETATM   22  C9  UNL     1      31.637   7.984  49.249  1.00  0.00     0.177 C 
BRANCH  22  23
HETATM   23  C10 UNL     1      32.707   6.934  49.124  1.00  0.00     0.046 C 
BRANCH  23  24
HETATM   24  C11 UNL     1      32.054   5.657  48.594  1.00  0.00     0.119 C 
BRANCH  24  25
HETATM   25  N4  UNL     1      32.728   5.183  47.433  1.00  0.00    -0.408 N 
HETATM   26  C12 UNL     1      32.306   3.922  46.922  1.00  0.00     0.143 C 
HETATM   27  C13 UNL     1      33.023   2.849  47.720  1.00  0.00     0.187 C 
HETATM   28  O2  UNL     1      34.403   2.950  47.636  1.00  0.00    -0.388 OA
HETATM   29  C14 UNL     1      34.904   4.183  48.027  1.00  0.00     0.187 C 
HETATM   30  C15 UNL     1      34.151   5.346  47.429  1.00  0.00     0.143 C 
ENDBRANCH  24  25
ENDBRANCH  23  24
ENDBRANCH  22  23
ENDBRANCH  21  22
ENDBRANCH  14  21
ENDBRANCH   5   7
ENDBRANCH   4   5
ENDBRANCH   3   4
TORSDOF 8
ENDMDL
MODEL 9
REMARK VINA RESULT:      -6.1      2.582      6.274
REMARK  8 active torsions:
REMARK  status: ('A' for Active; 'I' for Inactive)
REMARK    1  A    between atoms: C2_3  and  C3_4 
REMARK    2  A    between atoms: C3_4  and  N1_5 
REMARK    3  A    between atoms: N1_5  and  C4_6 
REMARK    4  A    between atoms: C8_12  and  O1_13 
REMARK    5  A    between atoms: O1_13  and  C9_14 
REMARK    6  A    between atoms: C9_14  and  C10_15 
REMARK    7  A    between atoms: C10_15  and  C11_16 
REMARK    8  A    between atoms: C11_16  and  N4_17 
ROOT
HETATM    1 CL1  UNL     1      21.489   9.436  49.059  1.00  0.00    -0.023 Cl
HETATM    2  C1  UNL     1      22.791   8.457  49.660  1.00  0.00     0.006 C 
HETATM    3  C2  UNL     1      23.701   7.793  50.089  1.00  0.00    -0.070 C 
ENDROOT
BRANCH   3   4
HETATM    4  C3  UNL     1      24.817   6.978  50.635  1.00  0.00     0.217 C 
BRANCH   4   5
HETATM    5  N1  UNL     1      24.272   6.067  51.585  1.00  0.00    -0.364 N 
HETATM    6  H3  UNL     1      24.012   6.350  52.545  1.00  0.00     0.162 HD
BRANCH   5   7
HETATM    7  C4  UNL     1      24.063   4.693  51.223  1.00  0.00     0.125 C 
HETATM    8  N2  UNL     1      23.779   4.453  52.547  1.00  0.00    -0.225 NA
HETATM    9  C5  UNL     1      24.323   3.411  53.242  1.00  0.00     0.235 C 
HETATM   10  N3  UNL     1      24.604   2.043  53.457  1.00  0.00    -0.246 NA
HETATM   11  C6  UNL     1      24.406   1.262  52.328  1.00  0.00     0.045 C 
HETATM   12  C7  UNL     1      23.128   0.775  52.120  1.00  0.00     0.065 C 
HETATM   13  C17 UNL     1      25.632   1.333  51.564  1.00  0.00     0.073 C 
HETATM   14  C8  UNL     1      22.570   1.448  50.960  1.00  0.00     0.081 C 
HETATM   15  C16 UNL     1      23.714   2.116  50.817  1.00  0.00     0.030 A 
HETATM   16  O3  UNL     1      24.921   2.730  50.770  1.00  0.00     0.000 OA
HETATM   17  C19 UNL     1      24.775   3.121  50.534  1.00  0.00     0.152 A 
HETATM   18  O4  UNL     1      26.204   3.306  50.755  1.00  0.00    -0.366 OA
HETATM   19  C20 UNL     1      24.235   4.279  49.854  1.00  0.00     0.070 C 
HETATM   20  C18 UNL     1      26.703   2.339  51.852  1.00  0.00     0.181 C 
BRANCH  14  21
HETATM   21  O1  UNL     1      21.659   1.789  50.000  1.00  0.00    -0.350 OA
BRANCH  21  22
HETATM   22  C9  UNL     1      22.003   1.601  48.655  1.00  0.00     0.177 C 
BRANCH  22  23
HETATM   23  C10 UNL     1      21.245   2.482  47.699  1.00  0.00     0.046 C 
BRANCH  23  24
HETATM   24  C11 UNL     1      20.348   3.407  48.523  1.00  0.00     0.119 C 
BRANCH  24  25
HETATM   25  N4  UNL     1      20.931   4.700  48.654  1.00  0.00    -0.408 N 
HETATM   26  C12 UNL     1      20.597   5.433  49.829  1.00  0.00     0.143 C 
HETATM   27  C13 UNL     1      19.264   6.112  49.572  1.00  0.00     0.187 C 
HETATM   28  O2  UNL     1      19.299   6.966  48.480  1.00  0.00    -0.388 OA
HETATM   29  C14 UNL     1      19.706   6.359  47.302  1.00  0.00     0.187 C 
HETATM   30  C15 UNL     1      20.938   5.504  47.468  1.00  0.00     0.143 C 
ENDBRANCH  24  25
ENDBRANCH  23  24
ENDBRANCH  22  23
ENDBRANCH  21  22
ENDBRANCH  14  21
ENDBRANCH   5   7
ENDBRANCH   4   5
ENDBRANCH   3   4
TORSDOF 8
ENDMDL
