MODEL 1
REMARK VINA RESULT:      -8.1      0.000      0.000
REMARK  7 active torsions:
REMARK  status: ('A' for Active; 'I' for Inactive)
REMARK    1  A    between atoms: N1_1  and  C1_2 
REMARK    2  A    between atoms: N2_4  and  C3_5 
REMARK    3  A    between atoms: C8_11  and  O1_12 
REMARK    4  A    between atoms: O1_12  and  O2_13 
REMARK    5  A    between atoms: C9_14  and  C10_15 
REMARK    6  A    between atoms: C10_15  and  C11_16 
REMARK    7  A    between atoms: C11_16  and  N4_17 
ROOT
HETATM    1  C3  UNL     1      21.804   2.424  51.911  1.00  0.00     0.034 C 
HETATM    2  C4  UNL     1      22.542   1.396  52.304  1.00  0.00    -0.046 C 
HETATM    3  C5  UNL     1      21.599   0.176  52.277  1.00  0.00     0.075 C 
HETATM    4  C6  UNL     1      21.376   0.626  53.721  1.00  0.00     0.111 C 
HETATM    5  N3  UNL     1      20.314   1.284  53.338  1.00  0.00    -0.307 NA
HETATM    6  C7  UNL     1      20.334   2.303  52.281  1.00  0.00     0.201 C 
HETATM    7  C8  UNL     1      22.663  -0.200  53.963  1.00  0.00     0.201 C 
HETATM    8  C9  UNL     1      23.555   0.391  52.788  1.00  0.00     0.053 C 
ENDROOT
BRANCH   1   9
HETATM    9  N2  UNL     1      22.831   3.258  51.301  1.00  0.00    -0.353 N 
HETATM   10  C2  UNL     1      23.159   4.499  51.931  1.00  0.00     0.122 A 
HETATM   11  C1  UNL     1      24.063   5.281  51.379  1.00  0.00     0.063 A 
HETATM   12  C18 UNL     1      24.758   4.918  50.136  1.00  0.00     0.059 A 
HETATM   13  C17 UNL     1      24.451   3.767  49.575  1.00  0.00     0.019 A 
HETATM   14 CL1  UNL     1      25.955   5.988  49.433  1.00  0.00    -0.082 Cl
HETATM   15  C16 UNL     1      23.475   2.790  50.061  1.00  0.00     0.157 A 
BRANCH  11  16
HETATM   16  N1  UNL     1      24.385   6.514  52.009  1.00  0.00    -0.397 N 
HETATM   17  H1  UNL     1      23.774   7.328  52.144  1.00  0.00     0.156 HD
HETATM   18  H2  UNL     1      25.298   6.788  52.435  1.00  0.00     0.156 HD
ENDBRANCH  11  16
ENDBRANCH   1   9
BRANCH   8  19
HETATM   19  C10 UNL     1      24.804   0.985  53.307  1.00  0.00     0.031 C 
BRANCH  19  20
HETATM   20  C11 UNL     1      25.884   1.050  52.277  1.00  0.00     0.117 C 
BRANCH  20  21
HETATM   21  N4  UNL     1      27.130   0.513  52.677  1.00  0.00    -0.408 N 
HETATM   22  C12 UNL     1      27.907   1.233  53.611  1.00  0.00     0.143 C 
HETATM   23  C13 UNL     1      28.310   0.349  54.766  1.00  0.00     0.187 C 
HETATM   24  O3  UNL     1      28.952  -0.808  54.389  1.00  0.00    -0.388 OA
HETATM   25  C14 UNL     1      28.508  -1.372  53.221  1.00  0.00     0.187 C 
HETATM   26  C15 UNL     1      27.157  -0.911  52.777  1.00  0.00     0.143 C 
ENDBRANCH  20  21
ENDBRANCH  19  20
ENDBRANCH   8  19
BRANCH   7  27
HETATM   27  O1  UNL     1      22.326  -1.483  53.795  1.00  0.00    -0.234 OA
BRANCH  27  28
HETATM   28  O2  UNL     1      21.831  -2.141  54.795  1.00  0.00    -0.250 OA
HETATM   29  H9  UNL     1      22.306  -2.055  55.636  1.00  0.00     0.253 HD
ENDBRANCH  27  28
ENDBRANCH   7  27
TORSDOF 7
ENDMDL
MODEL 2
REMARK VINA RESULT:      -7.4      2.292      5.420
REMARK  7 active torsions:
REMARK  status: ('A' for Active; 'I' for Inactive)
REMARK    1  A    between atoms: N1_1  and  C1_2 
REMARK    2  A    between atoms: N2_4  and  C3_5 
REMARK    3  A    between atoms: C8_11  and  O1_12 
REMARK    4  A    between atoms: O1_12  and  O2_13 
REMARK    5  A    between atoms: C9_14  and  C10_15 
REMARK    6  A    between atoms: C10_15  and  C11_16 
REMARK    7  A    between atoms: C11_16  and  N4_17 
ROOT
HETATM    1  C3  UNL     1      25.274   1.885  51.872  1.00  0.00     0.034 C 
HETATM    2  C4  UNL     1      24.767   1.141  52.845  1.00  0.00    -0.046 C 
HETATM    3  C5  UNL     1      25.903   0.979  53.875  1.00  0.00     0.075 C 
HETATM    4  C6  UNL     1      26.178  -0.253  53.014  1.00  0.00     0.111 C 
HETATM    5  N3  UNL     1      27.068   0.431  52.344  1.00  0.00    -0.307 NA
HETATM    6  C7  UNL     1      26.771   1.702  51.674  1.00  0.00     0.201 C 
HETATM    7  C8  UNL     1      25.083  -0.876  53.914  1.00  0.00     0.201 C 
HETATM    8  C9  UNL     1      23.996   0.277  53.808  1.00  0.00     0.053 C 
ENDROOT
BRANCH   1   9
HETATM    9  N2  UNL     1      24.065   2.544  51.397  1.00  0.00    -0.353 N 
HETATM   10  C2  UNL     1      23.779   3.861  51.873  1.00  0.00     0.122 A 
HETATM   11  C1  UNL     1      22.676   4.462  51.480  1.00  0.00     0.063 A 
HETATM   12  C18 UNL     1      21.726   3.827  50.554  1.00  0.00     0.059 A 
HETATM   13  C17 UNL     1      22.011   2.619  50.118  1.00  0.00     0.019 A 
HETATM   14 CL1  UNL     1      20.268   4.662  50.056  1.00  0.00    -0.082 Cl
HETATM   15  C16 UNL     1      23.190   1.820  50.457  1.00  0.00     0.157 A 
BRANCH  11  16
HETATM   16  N1  UNL     1      22.396   5.772  51.958  1.00  0.00    -0.397 N 
HETATM   17  H1  UNL     1      21.682   6.051  52.641  1.00  0.00     0.156 HD
HETATM   18  H2  UNL     1      22.873   6.660  51.687  1.00  0.00     0.156 HD
ENDBRANCH  11  16
ENDBRANCH   1   9
BRANCH   8  19
HETATM   19  C10 UNL     1      22.716  -0.235  53.278  1.00  0.00     0.031 C 
BRANCH  19  20
HETATM   20  C11 UNL     1      21.614  -0.193  54.285  1.00  0.00     0.117 C 
BRANCH  20  21
HETATM   21  N4  UNL     1      20.313  -0.054  53.749  1.00  0.00    -0.408 N 
HETATM   22  C12 UNL     1      20.107   0.881  52.710  1.00  0.00     0.143 C 
HETATM   23  C13 UNL     1      19.417   0.232  51.535  1.00  0.00     0.187 C 
HETATM   24  O3  UNL     1      18.240  -0.404  51.857  1.00  0.00    -0.388 OA
HETATM   25  C14 UNL     1      18.221  -1.018  53.083  1.00  0.00     0.187 C 
HETATM   26  C15 UNL     1      19.569  -1.271  53.678  1.00  0.00     0.143 C 
ENDBRANCH  20  21
ENDBRANCH  19  20
ENDBRANCH   8  19
BRANCH   7  27
HETATM   27  O1  UNL     1      25.622  -1.003  55.131  1.00  0.00    -0.234 OA
BRANCH  27  28
HETATM   28  O2  UNL     1      24.918  -1.533  56.081  1.00  0.00    -0.250 OA
HETATM   29  H9  UNL     1      24.947  -2.500  56.141  1.00  0.00     0.253 HD
ENDBRANCH  27  28
ENDBRANCH   7  27
TORSDOF 7
ENDMDL
MODEL 3
REMARK VINA RESULT:      -7.2      3.191      5.604
REMARK  7 active torsions:
REMARK  status: ('A' for Active; 'I' for Inactive)
REMARK    1  A    between atoms: N1_1  and  C1_2 
REMARK    2  A    between atoms: N2_4  and  C3_5 
REMARK    3  A    between atoms: C8_11  and  O1_12 
REMARK    4  A    between atoms: O1_12  and  O2_13 
REMARK    5  A    between atoms: C9_14  and  C10_15 
REMARK    6  A    between atoms: C10_15  and  C11_16 
REMARK    7  A    between atoms: C11_16  and  N4_17 
ROOT
HETATM    1  C3  UNL     1      23.931  -0.059  53.171  1.00  0.00     0.034 C 
HETATM    2  C4  UNL     1      23.679   1.082  52.545  1.00  0.00    -0.046 C 
HETATM    3  C5  UNL     1      22.273   1.507  53.013  1.00  0.00     0.075 C 
HETATM    4  C6  UNL     1      21.884   0.693  51.780  1.00  0.00     0.111 C 
HETATM    5  N3  UNL     1      21.676  -0.345  52.547  1.00  0.00    -0.307 NA
HETATM    6  C7  UNL     1      22.690  -0.891  53.456  1.00  0.00     0.201 C 
HETATM    7  C8  UNL     1      22.196   2.023  51.053  1.00  0.00     0.201 C 
HETATM    8  C9  UNL     1      23.603   2.340  51.721  1.00  0.00     0.053 C 
ENDROOT
BRANCH   1   9
HETATM    9  N2  UNL     1      25.383   0.014  53.261  1.00  0.00    -0.353 N 
HETATM   10  C2  UNL     1      25.975   1.246  53.678  1.00  0.00     0.122 A 
HETATM   11  C1  UNL     1      27.287   1.342  53.736  1.00  0.00     0.063 A 
HETATM   12  C18 UNL     1      28.170   0.217  53.396  1.00  0.00     0.059 A 
HETATM   13  C17 UNL     1      27.607  -0.913  53.025  1.00  0.00     0.019 A 
HETATM   14 CL1  UNL     1      29.912   0.387  53.487  1.00  0.00    -0.082 Cl
HETATM   15  C16 UNL     1      26.172  -1.180  52.910  1.00  0.00     0.157 A 
BRANCH  11  16
HETATM   16  N1  UNL     1      27.871   2.571  54.151  1.00  0.00    -0.397 N 
HETATM   17  H1  UNL     1      28.184   2.830  55.094  1.00  0.00     0.156 HD
HETATM   18  H2  UNL     1      28.074   3.406  53.560  1.00  0.00     0.156 HD
ENDBRANCH  11  16
ENDBRANCH   1   9
BRANCH   8  19
HETATM   19  C10 UNL     1      24.666   2.469  50.704  1.00  0.00     0.031 C 
BRANCH  19  20
HETATM   20  C11 UNL     1      24.206   3.178  49.473  1.00  0.00     0.117 C 
BRANCH  20  21
HETATM   21  N4  UNL     1      24.535   4.552  49.410  1.00  0.00    -0.408 N 
HETATM   22  C12 UNL     1      23.637   5.488  49.969  1.00  0.00     0.143 C 
HETATM   23  C13 UNL     1      24.350   6.407  50.931  1.00  0.00     0.187 C 
HETATM   24  O3  UNL     1      25.443   7.045  50.390  1.00  0.00    -0.388 OA
HETATM   25  C14 UNL     1      26.165   6.309  49.487  1.00  0.00     0.187 C 
HETATM   26  C15 UNL     1      25.928   4.835  49.548  1.00  0.00     0.143 C 
ENDBRANCH  20  21
ENDBRANCH  19  20
ENDBRANCH   8  19
BRANCH   7  27
HETATM   27  O1  UNL     1      21.228   2.879  51.397  1.00  0.00    -0.234 OA
BRANCH  27  28
HETATM   28  O2  UNL     1      20.580   3.505  50.466  1.00  0.00    -0.250 OA
HETATM   29  H9  UNL     1      19.763   3.948  50.744  1.00  0.00     0.253 HD
ENDBRANCH  27  28
ENDBRANCH   7  27
TORSDOF 7
ENDMDL
MODEL 4
REMARK VINA RESULT:      -7.1      3.327      6.225
REMARK  7 active torsions:
REMARK  status: ('A' for Active; 'I' for Inactive)
REMARK    1  A    between atoms: N1_1  and  C1_2 
REMARK    2  A    between atoms: N2_4  and  C3_5 
REMARK    3  A    between atoms: C8_11  and  O1_12 
REMARK    4  A    between atoms: O1_12  and  O2_13 
REMARK    5  A    between atoms: C9_14  and  C10_15 
REMARK    6  A    between atoms: C10_15  and  C11_16 
REMARK    7  A    between atoms: C11_16  and  N4_17 
ROOT
HETATM    1  C3  UNL     1      23.997  -0.382  54.038  1.00  0.00     0.034 C 
HETATM    2  C4  UNL     1      24.623   0.567  53.356  1.00  0.00    -0.046 C 
HETATM    3  C5  UNL     1      26.067   0.058  53.171  1.00  0.00     0.075 C 
HETATM    4  C6  UNL     1      26.244   0.821  54.482  1.00  0.00     0.111 C 
HETATM    5  N3  UNL     1      26.079  -0.296  55.140  1.00  0.00    -0.307 NA
HETATM    6  C7  UNL     1      24.901  -1.158  54.984  1.00  0.00     0.201 C 
HETATM    7  C8  UNL     1      26.398   2.028  53.525  1.00  0.00     0.201 C 
HETATM    8  C9  UNL     1      25.128   1.770  52.604  1.00  0.00     0.053 C 
ENDROOT
BRANCH   1   9
HETATM    9  N2  UNL     1      22.638  -0.193  53.551  1.00  0.00    -0.353 N 
HETATM   10  C2  UNL     1      22.443   0.023  52.151  1.00  0.00     0.122 A 
HETATM   11  C1  UNL     1      21.225   0.227  51.695  1.00  0.00     0.063 A 
HETATM   12  C18 UNL     1      20.049   0.229  52.577  1.00  0.00     0.059 A 
HETATM   13  C17 UNL     1      20.246   0.018  53.861  1.00  0.00     0.019 A 
HETATM   14 CL1  UNL     1      18.444   0.505  51.929  1.00  0.00    -0.082 Cl
HETATM   15  C16 UNL     1      21.530  -0.224  54.522  1.00  0.00     0.157 A 
BRANCH  11  16
HETATM   16  N1  UNL     1      21.037   0.442  50.302  1.00  0.00    -0.397 N 
HETATM   17  H1  UNL     1      20.152   0.451  49.783  1.00  0.00     0.156 HD
HETATM   18  H2  UNL     1      21.773   0.625  49.585  1.00  0.00     0.156 HD
ENDBRANCH  11  16
ENDBRANCH   1   9
BRANCH   8  19
HETATM   19  C10 UNL     1      24.210   2.927  52.616  1.00  0.00     0.031 C 
BRANCH  19  20
HETATM   20  C11 UNL     1      23.995   3.508  51.257  1.00  0.00     0.117 C 
BRANCH  20  21
HETATM   21  N4  UNL     1      24.797   4.631  50.947  1.00  0.00    -0.408 N 
HETATM   22  C12 UNL     1      25.812   4.488  49.976  1.00  0.00     0.143 C 
HETATM   23  C13 UNL     1      25.696   5.560  48.919  1.00  0.00     0.187 C 
HETATM   24  O3  UNL     1      25.679   6.841  49.420  1.00  0.00    -0.388 OA
HETATM   25  C14 UNL     1      25.035   6.994  50.620  1.00  0.00     0.187 C 
HETATM   26  C15 UNL     1      24.105   5.880  50.979  1.00  0.00     0.143 C 
ENDBRANCH  20  21
ENDBRANCH  19  20
ENDBRANCH   8  19
BRANCH   7  27
HETATM   27  O1  UNL     1      27.566   1.864  52.895  1.00  0.00    -0.234 OA
BRANCH  27  28
HETATM   28  O2  UNL     1      28.087   2.866  52.261  1.00  0.00    -0.250 OA
HETATM   29  H9  UNL     1      28.618   2.644  51.481  1.00  0.00     0.253 HD
ENDBRANCH  27  28
ENDBRANCH   7  27
TORSDOF 7
ENDMDL
MODEL 5
REMARK VINA RESULT:      -7.1      2.032      2.320
REMARK  7 active torsions:
REMARK  status: ('A' for Active; 'I' for Inactive)
REMARK    1  A    between atoms: N1_1  and  C1_2 
REMARK    2  A    between atoms: N2_4  and  C3_5 
REMARK    3  A    between atoms: C8_11  and  O1_12 
REMARK    4  A    between atoms: O1_12  and  O2_13 
REMARK    5  A    between atoms: C9_14  and  C10_15 
REMARK    6  A    between atoms: C10_15  and  C11_16 
REMARK    7  A    between atoms: C11_16  and  N4_17 
ROOT
HETATM    1  C3  UNL     1      21.078   0.436  52.403  1.00  0.00     0.034 C 
HETATM    2  C4  UNL     1      22.329   0.154  52.739  1.00  0.00    -0.046 C 
HETATM    3  C5  UNL     1      22.271  -1.223  53.431  1.00  0.00     0.075 C 
HETATM    4  C6  UNL     1      22.097  -0.326  54.656  1.00  0.00     0.111 C 
HETATM    5  N3  UNL     1      20.801  -0.471  54.562  1.00  0.00    -0.307 NA
HETATM    6  C7  UNL     1      20.041  -0.154  53.347  1.00  0.00     0.201 C 
HETATM    7  C8  UNL     1      23.642  -0.272  54.585  1.00  0.00     0.201 C 
HETATM    8  C9  UNL     1      23.802   0.056  53.038  1.00  0.00     0.053 C 
ENDROOT
BRANCH   1   9
HETATM    9  N2  UNL     1      21.309   1.265  51.229  1.00  0.00    -0.353 N 
HETATM   10  C2  UNL     1      21.381   2.682  51.403  1.00  0.00     0.122 A 
HETATM   11  C1  UNL     1      21.558   3.452  50.351  1.00  0.00     0.063 A 
HETATM   12  C18 UNL     1      21.696   2.903  48.994  1.00  0.00     0.059 A 
HETATM   13  C17 UNL     1      21.638   1.596  48.853  1.00  0.00     0.019 A 
HETATM   14 CL1  UNL     1      21.930   3.963  47.618  1.00  0.00    -0.082 Cl
HETATM   15  C16 UNL     1      21.447   0.608  49.917  1.00  0.00     0.157 A 
BRANCH  11  16
HETATM   16  N1  UNL     1      21.628   4.861  50.530  1.00  0.00    -0.397 N 
HETATM   17  H1  UNL     1      20.869   5.545  50.425  1.00  0.00     0.156 HD
HETATM   18  H2  UNL     1      22.465   5.425  50.796  1.00  0.00     0.156 HD
ENDBRANCH  11  16
ENDBRANCH   1   9
BRANCH   8  19
HETATM   19  C10 UNL     1      24.552   1.311  52.828  1.00  0.00     0.031 C 
BRANCH  19  20
HETATM   20  C11 UNL     1      25.742   1.131  51.943  1.00  0.00     0.117 C 
BRANCH  20  21
HETATM   21  N4  UNL     1      26.922   0.710  52.599  1.00  0.00    -0.408 N 
HETATM   22  C12 UNL     1      27.287   1.345  53.807  1.00  0.00     0.143 C 
HETATM   23  C13 UNL     1      27.539   0.326  54.892  1.00  0.00     0.187 C 
HETATM   24  O3  UNL     1      28.460  -0.639  54.553  1.00  0.00    -0.388 OA
HETATM   25  C14 UNL     1      28.442  -1.031  53.239  1.00  0.00     0.187 C 
HETATM   26  C15 UNL     1      27.188  -0.690  52.501  1.00  0.00     0.143 C 
ENDBRANCH  20  21
ENDBRANCH  19  20
ENDBRANCH   8  19
BRANCH   7  27
HETATM   27  O1  UNL     1      24.079  -1.487  54.929  1.00  0.00    -0.234 OA
BRANCH  27  28
HETATM   28  O2  UNL     1      24.795  -1.620  56.001  1.00  0.00    -0.250 OA
HETATM   29  H9  UNL     1      24.880  -0.828  56.554  1.00  0.00     0.253 HD
ENDBRANCH  27  28
ENDBRANCH   7  27
TORSDOF 7
ENDMDL
MODEL 6
REMARK VINA RESULT:      -7.1      3.174      6.500
REMARK  7 active torsions:
REMARK  status: ('A' for Active; 'I' for Inactive)
REMARK    1  A    between atoms: N1_1  and  C1_2 
REMARK    2  A    between atoms: N2_4  and  C3_5 
REMARK    3  A    between atoms: C8_11  and  O1_12 
REMARK    4  A    between atoms: O1_12  and  O2_13 
REMARK    5  A    between atoms: C9_14  and  C10_15 
REMARK    6  A    between atoms: C10_15  and  C11_16 
REMARK    7  A    between atoms: C11_16  and  N4_17 
ROOT
HETATM    1  C3  UNL     1      24.428  -0.166  53.590  1.00  0.00     0.034 C 
HETATM    2  C4  UNL     1      25.099   0.770  52.934  1.00  0.00    -0.046 C 
HETATM    3  C5  UNL     1      26.552   0.260  52.858  1.00  0.00     0.075 C 
HETATM    4  C6  UNL     1      26.639   1.048  54.164  1.00  0.00     0.111 C 
HETATM    5  N3  UNL     1      26.429  -0.057  54.830  1.00  0.00    -0.307 NA
HETATM    6  C7  UNL     1      25.265  -0.923  54.609  1.00  0.00     0.201 C 
HETATM    7  C8  UNL     1      26.858   2.236  53.197  1.00  0.00     0.201 C 
HETATM    8  C9  UNL     1      25.655   1.960  52.197  1.00  0.00     0.053 C 
ENDROOT
BRANCH   1   9
HETATM    9  N2  UNL     1      23.105   0.012  53.007  1.00  0.00    -0.353 N 
HETATM   10  C2  UNL     1      21.966  -0.370  53.782  1.00  0.00     0.122 A 
HETATM   11  C1  UNL     1      20.763  -0.245  53.261  1.00  0.00     0.063 A 
HETATM   12  C18 UNL     1      20.547   0.286  51.908  1.00  0.00     0.059 A 
HETATM   13  C17 UNL     1      21.607   0.642  51.213  1.00  0.00     0.019 A 
HETATM   14 CL1  UNL     1      18.929   0.435  51.252  1.00  0.00    -0.082 Cl
HETATM   15  C16 UNL     1      23.003   0.567  51.646  1.00  0.00     0.157 A 
BRANCH  11  16
HETATM   16  N1  UNL     1      19.633  -0.627  54.036  1.00  0.00    -0.397 N 
HETATM   17  H1  UNL     1      19.622  -0.956  55.009  1.00  0.00     0.156 HD
HETATM   18  H2  UNL     1      18.634  -0.634  53.737  1.00  0.00     0.156 HD
ENDBRANCH  11  16
ENDBRANCH   1   9
BRANCH   8  19
HETATM   19  C10 UNL     1      24.739   3.116  52.124  1.00  0.00     0.031 C 
BRANCH  19  20
HETATM   20  C11 UNL     1      24.841   3.855  50.830  1.00  0.00     0.117 C 
BRANCH  20  21
HETATM   21  N4  UNL     1      23.792   4.767  50.572  1.00  0.00    -0.408 N 
HETATM   22  C12 UNL     1      22.466   4.282  50.546  1.00  0.00     0.143 C 
HETATM   23  C13 UNL     1      21.579   5.096  51.457  1.00  0.00     0.187 C 
HETATM   24  O3  UNL     1      21.607   6.448  51.204  1.00  0.00    -0.388 OA
HETATM   25  C14 UNL     1      22.821   6.947  50.810  1.00  0.00     0.187 C 
HETATM   26  C15 UNL     1      23.991   6.070  51.123  1.00  0.00     0.143 C 
ENDBRANCH  20  21
ENDBRANCH  19  20
ENDBRANCH   8  19
BRANCH   7  27
HETATM   27  O1  UNL     1      28.067   2.062  52.653  1.00  0.00    -0.234 OA
BRANCH  27  28
HETATM   28  O2  UNL     1      29.031   2.861  52.988  1.00  0.00    -0.250 OA
HETATM   29  H9  UNL     1      29.564   2.585  53.749  1.00  0.00     0.253 HD
ENDBRANCH  27  28
ENDBRANCH   7  27
TORSDOF 7
ENDMDL
MODEL 7
REMARK VINA RESULT:      -6.9      3.065      6.037
REMARK  7 active torsions:
REMARK  status: ('A' for Active; 'I' for Inactive)
REMARK    1  A    between atoms: N1_1  and  C1_2 
REMARK    2  A    between atoms: N2_4  and  C3_5 
REMARK    3  A    between atoms: C8_11  and  O1_12 
REMARK    4  A    between atoms: O1_12  and  O2_13 
REMARK    5  A    between atoms: C9_14  and  C10_15 
REMARK    6  A    between atoms: C10_15  and  C11_16 
REMARK    7  A    between atoms: C11_16  and  N4_17 
ROOT
HETATM    1  C3  UNL     1      26.224   2.952  50.589  1.00  0.00     0.034 C 
HETATM    2  C4  UNL     1      24.944   2.724  50.848  1.00  0.00    -0.046 C 
HETATM    3  C5  UNL     1      24.199   3.006  49.528  1.00  0.00     0.075 C 
HETATM    4  C6  UNL     1      24.124   4.399  50.152  1.00  0.00     0.111 C 
HETATM    5  N3  UNL     1      25.183   4.748  49.471  1.00  0.00    -0.307 NA
HETATM    6  C7  UNL     1      26.456   4.020  49.531  1.00  0.00     0.201 C 
HETATM    7  C8  UNL     1      22.899   3.787  50.875  1.00  0.00     0.201 C 
HETATM    8  C9  UNL     1      23.562   2.431  51.370  1.00  0.00     0.053 C 
ENDROOT
BRANCH   1   9
HETATM    9  N2  UNL     1      26.844   2.034  51.534  1.00  0.00    -0.353 N 
HETATM   10  C2  UNL     1      27.758   2.566  52.496  1.00  0.00     0.122 A 
HETATM   11  C1  UNL     1      28.352   1.748  53.339  1.00  0.00     0.063 A 
HETATM   12  C18 UNL     1      28.100   0.300  53.335  1.00  0.00     0.059 A 
HETATM   13  C17 UNL     1      27.247  -0.171  52.450  1.00  0.00     0.019 A 
HETATM   14 CL1  UNL     1      28.912  -0.754  54.475  1.00  0.00    -0.082 Cl
HETATM   15  C16 UNL     1      26.507   0.602  51.450  1.00  0.00     0.157 A 
BRANCH  11  16
HETATM   16  N1  UNL     1      29.263   2.282  54.293  1.00  0.00    -0.397 N 
HETATM   17  H1  UNL     1      30.285   2.347  54.217  1.00  0.00     0.156 HD
HETATM   18  H2  UNL     1      29.034   2.693  55.224  1.00  0.00     0.156 HD
ENDBRANCH  11  16
ENDBRANCH   1   9
BRANCH   8  19
HETATM   19  C10 UNL     1      23.481   2.297  52.839  1.00  0.00     0.031 C 
BRANCH  19  20
HETATM   20  C11 UNL     1      23.516   0.874  53.292  1.00  0.00     0.117 C 
BRANCH  20  21
HETATM   21  N4  UNL     1      22.322   0.145  53.084  1.00  0.00    -0.408 N 
HETATM   22  C12 UNL     1      22.321  -1.241  53.357  1.00  0.00     0.143 C 
HETATM   23  C13 UNL     1      21.178  -1.605  54.274  1.00  0.00     0.187 C 
HETATM   24  O3  UNL     1      19.944  -1.197  53.822  1.00  0.00    -0.388 OA
HETATM   25  C14 UNL     1      19.929   0.001  53.156  1.00  0.00     0.187 C 
HETATM   26  C15 UNL     1      21.127   0.864  53.392  1.00  0.00     0.143 C 
ENDBRANCH  20  21
ENDBRANCH  19  20
ENDBRANCH   8  19
BRANCH   7  27
HETATM   27  O1  UNL     1      21.955   3.620  49.942  1.00  0.00    -0.234 OA
BRANCH  27  28
HETATM   28  O2  UNL     1      21.078   4.556  49.758  1.00  0.00    -0.250 OA
HETATM   29  H9  UNL     1      21.119   5.012  48.903  1.00  0.00     0.253 HD
ENDBRANCH  27  28
ENDBRANCH   7  27
TORSDOF 7
ENDMDL
MODEL 8
REMARK VINA RESULT:      -6.9      2.991      5.694
REMARK  7 active torsions:
REMARK  status: ('A' for Active; 'I' for Inactive)
REMARK    1  A    between atoms: N1_1  and  C1_2 
REMARK    2  A    between atoms: N2_4  and  C3_5 
REMARK    3  A    between atoms: C8_11  and  O1_12 
REMARK    4  A    between atoms: O1_12  and  O2_13 
REMARK    5  A    between atoms: C9_14  and  C10_15 
REMARK    6  A    between atoms: C10_15  and  C11_16 
REMARK    7  A    between atoms: C11_16  and  N4_17 
ROOT
HETATM    1  C3  UNL     1      24.507   3.449  50.254  1.00  0.00     0.034 C 
HETATM    2  C4  UNL     1      23.394   2.778  49.992  1.00  0.00    -0.046 C 
HETATM    3  C5  UNL     1      23.191   2.894  48.468  1.00  0.00     0.075 C 
HETATM    4  C6  UNL     1      22.399   4.123  48.914  1.00  0.00     0.111 C 
HETATM    5  N3  UNL     1      23.453   4.865  48.693  1.00  0.00    -0.307 NA
HETATM    6  C7  UNL     1      24.761   4.613  49.308  1.00  0.00     0.201 C 
HETATM    7  C8  UNL     1      21.280   3.075  49.124  1.00  0.00     0.201 C 
HETATM    8  C9  UNL     1      22.112   1.991  49.935  1.00  0.00     0.053 C 
ENDROOT
BRANCH   1   9
HETATM    9  N2  UNL     1      24.973   2.724  51.429  1.00  0.00    -0.353 N 
HETATM   10  C2  UNL     1      25.784   1.564  51.232  1.00  0.00     0.122 A 
HETATM   11  C1  UNL     1      26.190   0.877  52.279  1.00  0.00     0.063 A 
HETATM   12  C18 UNL     1      25.845   1.269  53.654  1.00  0.00     0.059 A 
HETATM   13  C17 UNL     1      25.105   2.346  53.816  1.00  0.00     0.019 A 
HETATM   14 CL1  UNL     1      26.405   0.326  55.020  1.00  0.00    -0.082 Cl
HETATM   15  C16 UNL     1      24.578   3.214  52.762  1.00  0.00     0.157 A 
BRANCH  11  16
HETATM   16  N1  UNL     1      26.996  -0.277  52.078  1.00  0.00    -0.397 N 
HETATM   17  H1  UNL     1      27.060  -1.109  52.675  1.00  0.00     0.156 HD
HETATM   18  H2  UNL     1      27.654  -0.459  51.288  1.00  0.00     0.156 HD
ENDBRANCH  11  16
ENDBRANCH   1   9
BRANCH   8  19
HETATM   19  C10 UNL     1      21.503   1.720  51.253  1.00  0.00     0.031 C 
BRANCH  19  20
HETATM   20  C11 UNL     1      21.438   0.262  51.571  1.00  0.00     0.117 C 
BRANCH  20  21
HETATM   21  N4  UNL     1      21.615  -0.066  52.936  1.00  0.00    -0.408 N 
HETATM   22  C12 UNL     1      20.490  -0.482  53.682  1.00  0.00     0.143 C 
HETATM   23  C13 UNL     1      20.768  -1.787  54.387  1.00  0.00     0.187 C 
HETATM   24  O3  UNL     1      21.896  -1.770  55.176  1.00  0.00    -0.388 OA
HETATM   25  C14 UNL     1      22.937  -1.018  54.695  1.00  0.00     0.187 C 
HETATM   26  C15 UNL     1      22.859  -0.700  53.237  1.00  0.00     0.143 C 
ENDBRANCH  20  21
ENDBRANCH  19  20
ENDBRANCH   8  19
BRANCH   7  27
HETATM   27  O1  UNL     1      20.907   2.671  47.905  1.00  0.00    -0.234 OA
BRANCH  27  28
HETATM   28  O2  UNL     1      19.693   2.258  47.722  1.00  0.00    -0.250 OA
HETATM   29  H9  UNL     1      19.147   2.795  47.127  1.00  0.00     0.253 HD
ENDBRANCH  27  28
ENDBRANCH   7  27
TORSDOF 7
ENDMDL
MODEL 9
REMARK VINA RESULT:      -6.8      2.297      5.589
REMARK  7 active torsions:
REMARK  status: ('A' for Active; 'I' for Inactive)
REMARK    1  A    between atoms: N1_1  and  C1_2 
REMARK    2  A    between atoms: N2_4  and  C3_5 
REMARK    3  A    between atoms: C8_11  and  O1_12 
REMARK    4  A    between atoms: O1_12  and  O2_13 
REMARK    5  A    between atoms: C9_14  and  C10_15 
REMARK    6  A    between atoms: C10_15  and  C11_16 
REMARK    7  A    between atoms: C11_16  and  N4_17 
ROOT
HETATM    1  C3  UNL     1      24.648   1.696  51.855  1.00  0.00     0.034 C 
HETATM    2  C4  UNL     1      23.859   1.107  52.742  1.00  0.00    -0.046 C 
HETATM    3  C5  UNL     1      24.773   0.742  53.929  1.00  0.00     0.075 C 
HETATM    4  C6  UNL     1      24.899  -0.547  53.119  1.00  0.00     0.111 C 
HETATM    5  N3  UNL     1      26.002  -0.089  52.587  1.00  0.00    -0.307 NA
HETATM    6  C7  UNL     1      26.084   1.195  51.880  1.00  0.00     0.201 C 
HETATM    7  C8  UNL     1      23.579  -0.895  53.847  1.00  0.00     0.201 C 
HETATM    8  C9  UNL     1      22.790   0.458  53.582  1.00  0.00     0.053 C 
ENDROOT
BRANCH   1   9
HETATM    9  N2  UNL     1      23.689   2.581  51.207  1.00  0.00    -0.353 N 
HETATM   10  C2  UNL     1      23.419   3.847  51.811  1.00  0.00     0.122 A 
HETATM   11  C1  UNL     1      22.533   4.648  51.258  1.00  0.00     0.063 A 
HETATM   12  C18 UNL     1      21.814   4.289  50.026  1.00  0.00     0.059 A 
HETATM   13  C17 UNL     1      22.084   3.124  49.478  1.00  0.00     0.019 A 
HETATM   14 CL1  UNL     1      20.642   5.385  49.322  1.00  0.00    -0.082 Cl
HETATM   15  C16 UNL     1      23.037   2.125  49.966  1.00  0.00     0.157 A 
BRANCH  11  16
HETATM   16  N1  UNL     1      22.267   5.907  51.864  1.00  0.00    -0.397 N 
HETATM   17  H1  UNL     1      22.892   6.719  51.924  1.00  0.00     0.156 HD
HETATM   18  H2  UNL     1      21.391   6.204  52.346  1.00  0.00     0.156 HD
ENDBRANCH  11  16
ENDBRANCH   1   9
BRANCH   8  19
HETATM   19  C10 UNL     1      21.521   0.211  52.869  1.00  0.00     0.031 C 
BRANCH  19  20
HETATM   20  C11 UNL     1      20.613   1.397  52.875  1.00  0.00     0.117 C 
BRANCH  20  21
HETATM   21  N4  UNL     1      19.376   1.213  52.216  1.00  0.00    -0.408 N 
HETATM   22  C12 UNL     1      19.044   2.077  51.149  1.00  0.00     0.143 C 
HETATM   23  C13 UNL     1      18.652   1.289  49.923  1.00  0.00     0.187 C 
HETATM   24  O3  UNL     1      17.645   0.377  50.141  1.00  0.00    -0.388 OA
HETATM   25  C14 UNL     1      17.662  -0.234  51.368  1.00  0.00     0.187 C 
HETATM   26  C15 UNL     1      18.967  -0.150  52.093  1.00  0.00     0.143 C 
ENDBRANCH  20  21
ENDBRANCH  19  20
ENDBRANCH   8  19
BRANCH   7  27
HETATM   27  O1  UNL     1      23.897  -1.094  55.131  1.00  0.00    -0.234 OA
BRANCH  27  28
HETATM   28  O2  UNL     1      23.140  -1.855  55.858  1.00  0.00    -0.250 OA
HETATM   29  H9  UNL     1      22.808  -1.461  56.679  1.00  0.00     0.253 HD
ENDBRANCH  27  28
ENDBRANCH   7  27
TORSDOF 7
ENDMDL
