MODEL 1
REMARK VINA RESULT:      -7.7      0.000      0.000
REMARK  6 active torsions:
REMARK  status: ('A' for Active; 'I' for Inactive)
REMARK    1  A    between atoms: C4_4  and  O1_5 
REMARK    2  A    between atoms: N1_7  and  N2_8 
REMARK    3  A    between atoms: C6_9  and  S1_10 
REMARK    4  A    between atoms: S1_10  and  C7_11 
REMARK    5  A    between atoms: C7_11  and  C8_12 
REMARK    6  A    between atoms: C14_18  and  O2_19 
ROOT
HETATM    1  C1  UNL     1      29.610  -2.331  53.281  1.00  0.00     0.048 C 
HETATM    2  C2  UNL     1      28.790  -1.087  53.459  1.00  0.00    -0.060 A 
HETATM    3  C3  UNL     1      27.480  -1.144  53.278  1.00  0.00     0.017 A 
HETATM    4  C4  UNL     1      26.565   0.022  53.426  1.00  0.00     0.198 A 
HETATM    5  C5  UNL     1      27.311   1.251  53.802  1.00  0.00     0.122 A 
HETATM    6  N1  UNL     1      26.613   2.326  53.958  1.00  0.00    -0.149 NA
HETATM    7  C14 UNL     1      28.755   1.314  54.001  1.00  0.00     0.095 A 
HETATM    8  C15 UNL     1      29.451   0.180  53.832  1.00  0.00     0.045 A 
ENDROOT
BRANCH   4   9
HETATM    9  O1  UNL     1      25.578  -0.288  54.389  1.00  0.00    -0.385 OA
HETATM   10  H6  UNL     1      26.074  -0.589  55.190  1.00  0.00     0.210 HD
ENDBRANCH   4   9
BRANCH   6  11
HETATM   11  N2  UNL     1      25.231   2.184  53.748  1.00  0.00    -0.155 NA
HETATM   12  C6  UNL     1      24.590   2.957  52.918  1.00  0.00     0.186 C 
BRANCH  12  13
HETATM   13  S1  UNL     1      22.973   3.294  52.235  1.00  0.00    -0.116 SA
BRANCH  13  14
HETATM   14  C7  UNL     1      22.391   1.770  51.458  1.00  0.00     0.118 C 
BRANCH  14  15
HETATM   15  C8  UNL     1      22.011   0.819  52.541  1.00  0.00    -0.049 A 
HETATM   16  C9  UNL     1      21.019   1.088  53.456  1.00  0.00     0.008 A 
HETATM   17  C10 UNL     1      20.643   0.230  54.470  1.00  0.00     0.001 A 
HETATM   18  C11 UNL     1      21.303  -0.987  54.583  1.00  0.00     0.000 A 
HETATM   19  C12 UNL     1      22.293  -1.267  53.677  1.00  0.00     0.001 A 
HETATM   20  C13 UNL     1      22.653  -0.391  52.668  1.00  0.00     0.008 A 
ENDBRANCH  14  15
ENDBRANCH  13  14
ENDBRANCH  12  13
ENDBRANCH   6  11
BRANCH   7  21
HETATM   21  O2  UNL     1      29.417   2.482  54.353  1.00  0.00    -0.358 OA
HETATM   22  H15 UNL     1      29.796   3.044  53.614  1.00  0.00     0.217 HD
ENDBRANCH   7  21
TORSDOF 6
ENDMDL
MODEL 2
REMARK VINA RESULT:      -7.2      3.593      6.607
REMARK  6 active torsions:
REMARK  status: ('A' for Active; 'I' for Inactive)
REMARK    1  A    between atoms: C4_4  and  O1_5 
REMARK    2  A    between atoms: N1_7  and  N2_8 
REMARK    3  A    between atoms: C6_9  and  S1_10 
REMARK    4  A    between atoms: S1_10  and  C7_11 
REMARK    5  A    between atoms: C7_11  and  C8_12 
REMARK    6  A    between atoms: C14_18  and  O2_19 
ROOT
HETATM    1  C1  UNL     1      27.424   6.502  48.059  1.00  0.00     0.048 C 
HETATM    2  C2  UNL     1      26.603   5.567  48.899  1.00  0.00    -0.060 A 
HETATM    3  C3  UNL     1      27.133   4.420  49.295  1.00  0.00     0.017 A 
HETATM    4  C4  UNL     1      26.417   3.414  50.129  1.00  0.00     0.198 A 
HETATM    5  C5  UNL     1      25.040   3.864  50.457  1.00  0.00     0.122 A 
HETATM    6  N1  UNL     1      24.328   3.065  51.179  1.00  0.00    -0.149 NA
HETATM    7  C14 UNL     1      24.456   5.128  50.021  1.00  0.00     0.095 A 
HETATM    8  C15 UNL     1      25.222   5.935  49.272  1.00  0.00     0.045 A 
ENDROOT
BRANCH   4   9
HETATM    9  O1  UNL     1      27.167   3.174  51.302  1.00  0.00    -0.385 OA
HETATM   10  H6  UNL     1      28.073   3.525  51.115  1.00  0.00     0.210 HD
ENDBRANCH   4   9
BRANCH   6  11
HETATM   11  N2  UNL     1      24.959   1.869  51.558  1.00  0.00    -0.155 NA
HETATM   12  C6  UNL     1      24.635   1.252  52.658  1.00  0.00     0.186 C 
BRANCH  12  13
HETATM   13  S1  UNL     1      25.004  -0.185  53.656  1.00  0.00    -0.116 SA
BRANCH  13  14
HETATM   14  C7  UNL     1      26.120  -1.232  52.695  1.00  0.00     0.118 C 
BRANCH  14  15
HETATM   15  C8  UNL     1      27.517  -0.897  53.089  1.00  0.00    -0.049 A 
HETATM   16  C9  UNL     1      27.901   0.367  53.474  1.00  0.00     0.008 A 
HETATM   17  C10 UNL     1      29.185   0.711  53.845  1.00  0.00     0.001 A 
HETATM   18  C11 UNL     1      30.162  -0.276  53.832  1.00  0.00     0.000 A 
HETATM   19  C12 UNL     1      29.792  -1.541  53.451  1.00  0.00     0.001 A 
HETATM   20  C13 UNL     1      28.498  -1.862  53.083  1.00  0.00     0.008 A 
ENDBRANCH  14  15
ENDBRANCH  13  14
ENDBRANCH  12  13
ENDBRANCH   6  11
BRANCH   7  21
HETATM   21  O2  UNL     1      23.164   5.514  50.348  1.00  0.00    -0.358 OA
HETATM   22  H15 UNL     1      22.586   4.850  50.827  1.00  0.00     0.217 HD
ENDBRANCH   7  21
TORSDOF 6
ENDMDL
MODEL 3
REMARK VINA RESULT:      -7.2      2.584      4.386
REMARK  6 active torsions:
REMARK  status: ('A' for Active; 'I' for Inactive)
REMARK    1  A    between atoms: C4_4  and  O1_5 
REMARK    2  A    between atoms: N1_7  and  N2_8 
REMARK    3  A    between atoms: C6_9  and  S1_10 
REMARK    4  A    between atoms: S1_10  and  C7_11 
REMARK    5  A    between atoms: C7_11  and  C8_12 
REMARK    6  A    between atoms: C14_18  and  O2_19 
ROOT
HETATM    1  C1  UNL     1      29.708  -2.304  53.359  1.00  0.00     0.048 C 
HETATM    2  C2  UNL     1      28.873  -1.062  53.461  1.00  0.00    -0.060 A 
HETATM    3  C3  UNL     1      27.594  -1.112  53.122  1.00  0.00     0.017 A 
HETATM    4  C4  UNL     1      26.668   0.053  53.182  1.00  0.00     0.198 A 
HETATM    5  C5  UNL     1      27.363   1.272  53.671  1.00  0.00     0.122 A 
HETATM    6  N1  UNL     1      26.650   2.345  53.763  1.00  0.00    -0.149 NA
HETATM    7  C14 UNL     1      28.772   1.328  54.046  1.00  0.00     0.095 A 
HETATM    8  C15 UNL     1      29.483   0.196  53.939  1.00  0.00     0.045 A 
ENDROOT
BRANCH   4   9
HETATM    9  O1  UNL     1      25.572  -0.275  54.011  1.00  0.00    -0.385 OA
HETATM   10  H6  UNL     1      25.898  -0.986  54.615  1.00  0.00     0.210 HD
ENDBRANCH   4   9
BRANCH   6  11
HETATM   11  N2  UNL     1      25.305   2.212  53.384  1.00  0.00    -0.155 NA
HETATM   12  C6  UNL     1      24.675   3.174  52.774  1.00  0.00     0.186 C 
BRANCH  12  13
HETATM   13  S1  UNL     1      23.095   3.632  52.071  1.00  0.00    -0.116 SA
BRANCH  13  14
HETATM   14  C7  UNL     1      23.201   3.353  50.289  1.00  0.00     0.118 C 
BRANCH  14  15
HETATM   15  C8  UNL     1      24.424   4.041  49.788  1.00  0.00    -0.049 A 
HETATM   16  C9  UNL     1      25.642   3.410  49.677  1.00  0.00     0.008 A 
HETATM   17  C10 UNL     1      26.793   4.017  49.216  1.00  0.00     0.001 A 
HETATM   18  C11 UNL     1      26.729   5.352  48.838  1.00  0.00     0.000 A 
HETATM   19  C12 UNL     1      25.520   5.992  48.944  1.00  0.00     0.001 A 
HETATM   20  C13 UNL     1      24.379   5.363  49.408  1.00  0.00     0.008 A 
ENDBRANCH  14  15
ENDBRANCH  13  14
ENDBRANCH  12  13
ENDBRANCH   6  11
BRANCH   7  21
HETATM   21  O2  UNL     1      29.386   2.487  54.499  1.00  0.00    -0.358 OA
HETATM   22  H15 UNL     1      28.898   3.038  55.180  1.00  0.00     0.217 HD
ENDBRANCH   7  21
TORSDOF 6
ENDMDL
MODEL 4
REMARK VINA RESULT:      -7.0      2.124      2.567
REMARK  6 active torsions:
REMARK  status: ('A' for Active; 'I' for Inactive)
REMARK    1  A    between atoms: C4_4  and  O1_5 
REMARK    2  A    between atoms: N1_7  and  N2_8 
REMARK    3  A    between atoms: C6_9  and  S1_10 
REMARK    4  A    between atoms: S1_10  and  C7_11 
REMARK    5  A    between atoms: C7_11  and  C8_12 
REMARK    6  A    between atoms: C14_18  and  O2_19 
ROOT
HETATM    1  C1  UNL     1      30.091  -1.526  53.809  1.00  0.00     0.048 C 
HETATM    2  C2  UNL     1      28.904  -0.654  53.520  1.00  0.00    -0.060 A 
HETATM    3  C3  UNL     1      27.865  -1.166  52.879  1.00  0.00     0.017 A 
HETATM    4  C4  UNL     1      26.635  -0.399  52.537  1.00  0.00     0.198 A 
HETATM    5  C5  UNL     1      26.725   1.007  53.008  1.00  0.00     0.122 A 
HETATM    6  N1  UNL     1      25.708   1.764  52.763  1.00  0.00    -0.149 NA
HETATM    7  C14 UNL     1      27.870   1.572  53.714  1.00  0.00     0.095 A 
HETATM    8  C15 UNL     1      28.910   0.759  53.953  1.00  0.00     0.045 A 
ENDROOT
BRANCH   4   9
HETATM    9  O1  UNL     1      25.516  -1.053  53.100  1.00  0.00    -0.385 OA
HETATM   10  H6  UNL     1      25.217  -0.476  53.844  1.00  0.00     0.210 HD
ENDBRANCH   4   9
BRANCH   6  11
HETATM   11  N2  UNL     1      24.647   1.149  52.079  1.00  0.00    -0.155 NA
HETATM   12  C6  UNL     1      23.408   1.370  52.414  1.00  0.00     0.186 C 
BRANCH  12  13
HETATM   13  S1  UNL     1      21.718   0.951  52.003  1.00  0.00    -0.116 SA
BRANCH  13  14
HETATM   14  C7  UNL     1      21.006   0.123  53.443  1.00  0.00     0.118 C 
BRANCH  14  15
HETATM   15  C8  UNL     1      19.646  -0.358  53.070  1.00  0.00    -0.049 A 
HETATM   16  C9  UNL     1      19.029  -1.414  53.700  1.00  0.00     0.008 A 
HETATM   17  C10 UNL     1      17.771  -1.883  53.381  1.00  0.00     0.001 A 
HETATM   18  C11 UNL     1      17.073  -1.254  52.357  1.00  0.00     0.000 A 
HETATM   19  C12 UNL     1      17.677  -0.200  51.721  1.00  0.00     0.001 A 
HETATM   20  C13 UNL     1      18.939   0.253  52.059  1.00  0.00     0.008 A 
ENDBRANCH  14  15
ENDBRANCH  13  14
ENDBRANCH  12  13
ENDBRANCH   6  11
BRANCH   7  21
HETATM   21  O2  UNL     1      27.916   2.892  54.139  1.00  0.00    -0.358 OA
HETATM   22  H15 UNL     1      28.789   3.239  54.490  1.00  0.00     0.217 HD
ENDBRANCH   7  21
TORSDOF 6
ENDMDL
MODEL 5
REMARK VINA RESULT:      -6.9      3.584      5.828
REMARK  6 active torsions:
REMARK  status: ('A' for Active; 'I' for Inactive)
REMARK    1  A    between atoms: C4_4  and  O1_5 
REMARK    2  A    between atoms: N1_7  and  N2_8 
REMARK    3  A    between atoms: C6_9  and  S1_10 
REMARK    4  A    between atoms: S1_10  and  C7_11 
REMARK    5  A    between atoms: C7_11  and  C8_12 
REMARK    6  A    between atoms: C14_18  and  O2_19 
ROOT
HETATM    1  C1  UNL     1      29.622  -0.613  53.805  1.00  0.00     0.048 C 
HETATM    2  C2  UNL     1      28.321   0.068  53.497  1.00  0.00    -0.060 A 
HETATM    3  C3  UNL     1      28.302   1.381  53.323  1.00  0.00     0.017 A 
HETATM    4  C4  UNL     1      27.074   2.165  53.013  1.00  0.00     0.198 A 
HETATM    5  C5  UNL     1      25.880   1.286  52.925  1.00  0.00     0.122 A 
HETATM    6  N1  UNL     1      24.756   1.864  52.659  1.00  0.00    -0.149 NA
HETATM    7  C14 UNL     1      25.899  -0.160  53.116  1.00  0.00     0.095 A 
HETATM    8  C15 UNL     1      27.082  -0.730  53.391  1.00  0.00     0.045 A 
ENDROOT
BRANCH   4   9
HETATM    9  O1  UNL     1      27.275   2.874  51.808  1.00  0.00    -0.385 OA
HETATM   10  H6  UNL     1      28.206   2.679  51.537  1.00  0.00     0.210 HD
ENDBRANCH   4   9
BRANCH   6  11
HETATM   11  N2  UNL     1      24.818   3.257  52.490  1.00  0.00    -0.155 NA
HETATM   12  C6  UNL     1      24.073   3.866  51.612  1.00  0.00     0.186 C 
BRANCH  12  13
HETATM   13  S1  UNL     1      23.683   5.474  50.935  1.00  0.00    -0.116 SA
BRANCH  13  14
HETATM   14  C7  UNL     1      23.919   5.374  49.146  1.00  0.00     0.118 C 
BRANCH  14  15
HETATM   15  C8  UNL     1      25.364   5.600  48.860  1.00  0.00    -0.049 A 
HETATM   16  C9  UNL     1      26.310   4.606  48.969  1.00  0.00     0.008 A 
HETATM   17  C10 UNL     1      27.654   4.781  48.711  1.00  0.00     0.001 A 
HETATM   18  C11 UNL     1      28.092   6.039  48.315  1.00  0.00     0.000 A 
HETATM   19  C12 UNL     1      27.159   7.037  48.203  1.00  0.00     0.001 A 
HETATM   20  C13 UNL     1      25.816   6.838  48.466  1.00  0.00     0.008 A 
ENDBRANCH  14  15
ENDBRANCH  13  14
ENDBRANCH  12  13
ENDBRANCH   6  11
BRANCH   7  21
HETATM   21  O2  UNL     1      24.760  -0.948  53.025  1.00  0.00    -0.358 OA
HETATM   22  H15 UNL     1      23.876  -0.514  53.212  1.00  0.00     0.217 HD
ENDBRANCH   7  21
TORSDOF 6
ENDMDL
MODEL 6
REMARK VINA RESULT:      -6.8      3.749      5.575
REMARK  6 active torsions:
REMARK  status: ('A' for Active; 'I' for Inactive)
REMARK    1  A    between atoms: C4_4  and  O1_5 
REMARK    2  A    between atoms: N1_7  and  N2_8 
REMARK    3  A    between atoms: C6_9  and  S1_10 
REMARK    4  A    between atoms: S1_10  and  C7_11 
REMARK    5  A    between atoms: C7_11  and  C8_12 
REMARK    6  A    between atoms: C14_18  and  O2_19 
ROOT
HETATM    1  C1  UNL     1      24.114   7.241  48.083  1.00  0.00     0.048 C 
HETATM    2  C2  UNL     1      24.861   6.120  48.745  1.00  0.00    -0.060 A 
HETATM    3  C3  UNL     1      24.192   5.230  49.460  1.00  0.00     0.017 A 
HETATM    4  C4  UNL     1      24.823   4.078  50.161  1.00  0.00     0.198 A 
HETATM    5  C5  UNL     1      26.294   4.057  49.952  1.00  0.00     0.122 A 
HETATM    6  N1  UNL     1      26.944   3.095  50.518  1.00  0.00    -0.149 NA
HETATM    7  C14 UNL     1      27.032   5.037  49.164  1.00  0.00     0.095 A 
HETATM    8  C15 UNL     1      26.327   6.024  48.589  1.00  0.00     0.045 A 
ENDROOT
BRANCH   4   9
HETATM    9  O1  UNL     1      24.227   2.881  49.704  1.00  0.00    -0.385 OA
HETATM   10  H6  UNL     1      24.868   2.162  49.929  1.00  0.00     0.210 HD
ENDBRANCH   4   9
BRANCH   6  11
HETATM   11  N2  UNL     1      26.164   2.193  51.260  1.00  0.00    -0.155 NA
HETATM   12  C6  UNL     1      26.486   1.863  52.478  1.00  0.00     0.186 C 
BRANCH  12  13
HETATM   13  S1  UNL     1      25.983   0.859  53.870  1.00  0.00    -0.116 SA
BRANCH  13  14
HETATM   14  C7  UNL     1      25.016  -0.519  53.215  1.00  0.00     0.118 C 
BRANCH  14  15
HETATM   15  C8  UNL     1      23.583  -0.268  53.537  1.00  0.00    -0.049 A 
HETATM   16  C9  UNL     1      22.900  -0.972  54.502  1.00  0.00     0.008 A 
HETATM   17  C10 UNL     1      21.575  -0.765  54.826  1.00  0.00     0.001 A 
HETATM   18  C11 UNL     1      20.874   0.218  54.138  1.00  0.00     0.000 A 
HETATM   19  C12 UNL     1      21.543   0.928  53.173  1.00  0.00     0.001 A 
HETATM   20  C13 UNL     1      22.873   0.702  52.866  1.00  0.00     0.008 A 
ENDBRANCH  14  15
ENDBRANCH  13  14
ENDBRANCH  12  13
ENDBRANCH   6  11
BRANCH   7  21
HETATM   21  O2  UNL     1      28.408   4.984  48.991  1.00  0.00    -0.358 OA
HETATM   22  H15 UNL     1      28.979   5.507  49.629  1.00  0.00     0.217 HD
ENDBRANCH   7  21
TORSDOF 6
ENDMDL
MODEL 7
REMARK VINA RESULT:      -6.8      1.855      3.260
REMARK  6 active torsions:
REMARK  status: ('A' for Active; 'I' for Inactive)
REMARK    1  A    between atoms: C4_4  and  O1_5 
REMARK    2  A    between atoms: N1_7  and  N2_8 
REMARK    3  A    between atoms: C6_9  and  S1_10 
REMARK    4  A    between atoms: S1_10  and  C7_11 
REMARK    5  A    between atoms: C7_11  and  C8_12 
REMARK    6  A    between atoms: C14_18  and  O2_19 
ROOT
HETATM    1  C1  UNL     1      30.067  -1.414  53.630  1.00  0.00     0.048 C 
HETATM    2  C2  UNL     1      28.838  -0.566  53.478  1.00  0.00    -0.060 A 
HETATM    3  C3  UNL     1      27.726  -1.115  53.016  1.00  0.00     0.017 A 
HETATM    4  C4  UNL     1      26.448  -0.375  52.823  1.00  0.00     0.198 A 
HETATM    5  C5  UNL     1      26.584   1.051  53.217  1.00  0.00     0.122 A 
HETATM    6  N1  UNL     1      25.530   1.788  53.090  1.00  0.00    -0.149 NA
HETATM    7  C14 UNL     1      27.809   1.657  53.727  1.00  0.00     0.095 A 
HETATM    8  C15 UNL     1      28.885   0.864  53.846  1.00  0.00     0.045 A 
ENDROOT
BRANCH   4   9
HETATM    9  O1  UNL     1      25.431  -1.014  53.568  1.00  0.00    -0.385 OA
HETATM   10  H6  UNL     1      25.651  -1.978  53.546  1.00  0.00     0.210 HD
ENDBRANCH   4   9
BRANCH   6  11
HETATM   11  N2  UNL     1      24.391   1.134  52.592  1.00  0.00    -0.155 NA
HETATM   12  C6  UNL     1      23.198   1.436  53.016  1.00  0.00     0.186 C 
BRANCH  12  13
HETATM   13  S1  UNL     1      21.466   1.033  52.827  1.00  0.00    -0.116 SA
BRANCH  13  14
HETATM   14  C7  UNL     1      20.720   2.334  51.819  1.00  0.00     0.118 C 
BRANCH  14  15
HETATM   15  C8  UNL     1      21.365   2.300  50.476  1.00  0.00    -0.049 A 
HETATM   16  C9  UNL     1      21.151   1.286  49.571  1.00  0.00     0.008 A 
HETATM   17  C10 UNL     1      21.730   1.225  48.320  1.00  0.00     0.001 A 
HETATM   18  C11 UNL     1      22.588   2.250  47.939  1.00  0.00     0.000 A 
HETATM   19  C12 UNL     1      22.809   3.267  48.832  1.00  0.00     0.001 A 
HETATM   20  C13 UNL     1      22.216   3.307  50.081  1.00  0.00     0.008 A 
ENDBRANCH  14  15
ENDBRANCH  13  14
ENDBRANCH  12  13
ENDBRANCH   6  11
BRANCH   7  21
HETATM   21  O2  UNL     1      27.896   2.995  54.084  1.00  0.00    -0.358 OA
HETATM   22  H15 UNL     1      28.337   3.623  53.439  1.00  0.00     0.217 HD
ENDBRANCH   7  21
TORSDOF 6
ENDMDL
MODEL 8
REMARK VINA RESULT:      -6.8      4.858      6.372
REMARK  6 active torsions:
REMARK  status: ('A' for Active; 'I' for Inactive)
REMARK    1  A    between atoms: C4_4  and  O1_5 
REMARK    2  A    between atoms: N1_7  and  N2_8 
REMARK    3  A    between atoms: C6_9  and  S1_10 
REMARK    4  A    between atoms: S1_10  and  C7_11 
REMARK    5  A    between atoms: C7_11  and  C8_12 
REMARK    6  A    between atoms: C14_18  and  O2_19 
ROOT
HETATM    1  C1  UNL     1      29.754   6.870  47.776  1.00  0.00     0.048 C 
HETATM    2  C2  UNL     1      28.394   6.377  48.177  1.00  0.00    -0.060 A 
HETATM    3  C3  UNL     1      28.248   5.116  48.554  1.00  0.00     0.017 A 
HETATM    4  C4  UNL     1      26.951   4.515  48.972  1.00  0.00     0.198 A 
HETATM    5  C5  UNL     1      25.850   5.510  48.913  1.00  0.00     0.122 A 
HETATM    6  N1  UNL     1      24.676   5.094  49.258  1.00  0.00    -0.149 NA
HETATM    7  C14 UNL     1      26.010   6.899  48.499  1.00  0.00     0.095 A 
HETATM    8  C15 UNL     1      27.241   7.300  48.148  1.00  0.00     0.045 A 
ENDROOT
BRANCH   4   9
HETATM    9  O1  UNL     1      27.090   3.986  50.275  1.00  0.00    -0.385 OA
HETATM   10  H6  UNL     1      26.668   4.648  50.877  1.00  0.00     0.210 HD
ENDBRANCH   4   9
BRANCH   6  11
HETATM   11  N2  UNL     1      24.603   3.745  49.643  1.00  0.00    -0.155 NA
HETATM   12  C6  UNL     1      23.533   3.260  50.204  1.00  0.00     0.186 C 
BRANCH  12  13
HETATM   13  S1  UNL     1      22.826   1.764  50.886  1.00  0.00    -0.116 SA
BRANCH  13  14
HETATM   14  C7  UNL     1      23.275   1.708  52.635  1.00  0.00     0.118 C 
BRANCH  14  15
HETATM   15  C8  UNL     1      24.490   0.856  52.770  1.00  0.00    -0.049 A 
HETATM   16  C9  UNL     1      25.574   0.963  51.928  1.00  0.00     0.008 A 
HETATM   17  C10 UNL     1      26.714   0.191  52.026  1.00  0.00     0.001 A 
HETATM   18  C11 UNL     1      26.782  -0.760  53.036  1.00  0.00     0.000 A 
HETATM   19  C12 UNL     1      25.708  -0.877  53.882  1.00  0.00     0.001 A 
HETATM   20  C13 UNL     1      24.576  -0.091  53.764  1.00  0.00     0.008 A 
ENDBRANCH  14  15
ENDBRANCH  13  14
ENDBRANCH  12  13
ENDBRANCH   6  11
BRANCH   7  21
HETATM   21  O2  UNL     1      24.955   7.800  48.457  1.00  0.00    -0.358 OA
HETATM   22  H15 UNL     1      24.794   8.291  47.597  1.00  0.00     0.217 HD
ENDBRANCH   7  21
TORSDOF 6
ENDMDL
MODEL 9
REMARK VINA RESULT:      -6.7      4.405      5.698
REMARK  6 active torsions:
REMARK  status: ('A' for Active; 'I' for Inactive)
REMARK    1  A    between atoms: C4_4  and  O1_5 
REMARK    2  A    between atoms: N1_7  and  N2_8 
REMARK    3  A    between atoms: C6_9  and  S1_10 
REMARK    4  A    between atoms: S1_10  and  C7_11 
REMARK    5  A    between atoms: C7_11  and  C8_12 
REMARK    6  A    between atoms: C14_18  and  O2_19 
ROOT
HETATM    1  C1  UNL     1      29.131   6.832  47.589  1.00  0.00     0.048 C 
HETATM    2  C2  UNL     1      27.931   6.376  48.366  1.00  0.00    -0.060 A 
HETATM    3  C3  UNL     1      27.752   5.082  48.581  1.00  0.00     0.017 A 
HETATM    4  C4  UNL     1      26.602   4.512  49.337  1.00  0.00     0.198 A 
HETATM    5  C5  UNL     1      25.687   5.580  49.816  1.00  0.00     0.122 A 
HETATM    6  N1  UNL     1      24.652   5.195  50.486  1.00  0.00    -0.149 NA
HETATM    7  C14 UNL     1      25.884   7.006  49.580  1.00  0.00     0.095 A 
HETATM    8  C15 UNL     1      26.968   7.372  48.881  1.00  0.00     0.045 A 
ENDROOT
BRANCH   4   9
HETATM    9  O1  UNL     1      27.097   3.744  50.414  1.00  0.00    -0.385 OA
HETATM   10  H6  UNL     1      26.443   3.862  51.147  1.00  0.00     0.210 HD
ENDBRANCH   4   9
BRANCH   6  11
HETATM   11  N2  UNL     1      24.533   3.808  50.671  1.00  0.00    -0.155 NA
HETATM   12  C6  UNL     1      23.379   3.211  50.581  1.00  0.00     0.186 C 
BRANCH  12  13
HETATM   13  S1  UNL     1      22.581   1.614  50.693  1.00  0.00    -0.116 SA
BRANCH  13  14
HETATM   14  C7  UNL     1      21.377   1.710  52.037  1.00  0.00     0.118 C 
BRANCH  14  15
HETATM   15  C8  UNL     1      21.613   0.555  52.948  1.00  0.00    -0.049 A 
HETATM   16  C9  UNL     1      22.854   0.245  53.454  1.00  0.00     0.008 A 
HETATM   17  C10 UNL     1      23.107  -0.815  54.300  1.00  0.00     0.001 A 
HETATM   18  C11 UNL     1      22.045  -1.631  54.670  1.00  0.00     0.000 A 
HETATM   19  C12 UNL     1      20.802  -1.333  54.173  1.00  0.00     0.001 A 
HETATM   20  C13 UNL     1      20.573  -0.263  53.326  1.00  0.00     0.008 A 
ENDBRANCH  14  15
ENDBRANCH  13  14
ENDBRANCH  12  13
ENDBRANCH   6  11
BRANCH   7  21
HETATM   21  O2  UNL     1      25.005   7.975  50.046  1.00  0.00    -0.358 OA
HETATM   22  H15 UNL     1      24.081   7.683  50.300  1.00  0.00     0.217 HD
ENDBRANCH   7  21
TORSDOF 6
ENDMDL
