MODEL 1
REMARK VINA RESULT:      -8.2      0.000      0.000
REMARK  3 active torsions:
REMARK  status: ('A' for Active; 'I' for Inactive)
REMARK    1  A    between atoms: C2_2  and  C3_3 
REMARK    2  A    between atoms: C4_4  and  C5_5 
REMARK       I    between atoms: N1_9  and  C8_10 
REMARK       I    between atoms: C8_10  and  N2_12 
REMARK    3  A    between atoms: N2_12  and  C9_13 
ROOT
HETATM    1  C5  UNL     1      21.728   1.777  51.911  1.00  0.00     0.066 C 
HETATM    2 BR1  UNL     1      20.764   3.435  52.197  1.00  0.00    -0.078 Br
HETATM    3  C6  UNL     1      21.589   0.838  53.082  1.00  0.00     0.048 C 
HETATM    4  C7  UNL     1      22.943   0.207  53.311  1.00  0.00     0.131 C 
HETATM    5  N1  UNL     1      23.895   1.031  52.590  1.00  0.00    -0.319 N 
HETATM    6  C8  UNL     1      25.296   0.828  52.508  1.00  0.00     0.323 C 
HETATM    7  O1  UNL     1      26.141   1.520  51.896  1.00  0.00    -0.247 OA
HETATM    8  N2  UNL     1      25.880  -0.260  53.166  1.00  0.00    -0.309 N 
HETATM    9  C15 UNL     1      23.194   2.121  51.950  1.00  0.00     0.084 A 
HETATM   10  C16 UNL     1      23.557   3.393  52.616  1.00  0.00     0.044 A 
HETATM   11  C17 UNL     1      24.058   3.807  51.453  1.00  0.00     0.095 A 
HETATM   12  F1  UNL     1      24.682   4.903  50.910  1.00  0.00    -0.211 F 
HETATM   13  C18 UNL     1      23.763   2.605  50.639  1.00  0.00     0.107 A 
HETATM   14  H12 UNL     1      25.359  -0.973  53.741  1.00  0.00     0.170 HD
ENDROOT
BRANCH   8  15
HETATM   15  C9  UNL     1      27.215  -0.739  53.284  1.00  0.00     0.036 A 
HETATM   16  C10 UNL     1      27.385  -2.036  52.825  1.00  0.00     0.029 A 
HETATM   17  C11 UNL     1      28.637  -2.655  52.869  1.00  0.00     0.002 A 
HETATM   18  C12 UNL     1      29.663  -1.899  53.391  1.00  0.00     0.000 A 
HETATM   19  C13 UNL     1      29.551  -0.608  53.860  1.00  0.00     0.002 A 
HETATM   20  C14 UNL     1      28.304  -0.028  53.802  1.00  0.00     0.029 A 
ENDBRANCH   8  15
BRANCH   1  21
HETATM   21  C4  UNL     1      21.305   1.102  50.667  1.00  0.00    -0.007 C 
HETATM   22  C3  UNL     1      20.148   0.737  50.156  1.00  0.00    -0.029 C 
BRANCH  22  23
HETATM   23  C2  UNL     1      18.690   0.685  50.309  1.00  0.00     0.022 C 
HETATM   24  C1  UNL     1      18.225  -0.128  51.478  1.00  0.00     0.009 C 
ENDBRANCH  22  23
ENDBRANCH   1  21
TORSDOF 3
ENDMDL
MODEL 2
REMARK VINA RESULT:      -8.1      2.471      3.898
REMARK  3 active torsions:
REMARK  status: ('A' for Active; 'I' for Inactive)
REMARK    1  A    between atoms: C2_2  and  C3_3 
REMARK    2  A    between atoms: C4_4  and  C5_5 
REMARK       I    between atoms: N1_9  and  C8_10 
REMARK       I    between atoms: C8_10  and  N2_12 
REMARK    3  A    between atoms: N2_12  and  C9_13 
ROOT
HETATM    1  C5  UNL     1      20.851   1.545  51.597  1.00  0.00     0.066 C 
HETATM    2 BR1  UNL     1      19.287   0.451  51.249  1.00  0.00    -0.078 Br
HETATM    3  C6  UNL     1      21.665   1.772  50.349  1.00  0.00     0.048 C 
HETATM    4  C7  UNL     1      23.120   1.658  50.739  1.00  0.00     0.131 C 
HETATM    5  N1  UNL     1      23.137   1.002  52.032  1.00  0.00    -0.319 N 
HETATM    6  C8  UNL     1      24.283   0.682  52.804  1.00  0.00     0.323 C 
HETATM    7  O1  UNL     1      24.330   0.117  53.920  1.00  0.00    -0.247 OA
HETATM    8  N2  UNL     1      25.557   1.008  52.322  1.00  0.00    -0.309 N 
HETATM    9  C15 UNL     1      21.780   0.709  52.438  1.00  0.00     0.084 A 
HETATM   10  C16 UNL     1      21.565  -0.756  52.403  1.00  0.00     0.044 A 
HETATM   11  C17 UNL     1      21.322  -0.706  53.712  1.00  0.00     0.095 A 
HETATM   12  F1  UNL     1      20.998  -1.542  54.752  1.00  0.00    -0.211 F 
HETATM   13  C18 UNL     1      21.499   0.751  53.919  1.00  0.00     0.107 A 
HETATM   14  H12 UNL     1      25.755   1.487  51.405  1.00  0.00     0.170 HD
ENDROOT
BRANCH   8  15
HETATM   15  C9  UNL     1      26.875   0.834  52.828  1.00  0.00     0.036 A 
HETATM   16  C10 UNL     1      27.484   2.018  53.216  1.00  0.00     0.029 A 
HETATM   17  C11 UNL     1      28.781   2.021  53.736  1.00  0.00     0.002 A 
HETATM   18  C12 UNL     1      29.393   0.791  53.832  1.00  0.00     0.000 A 
HETATM   19  C13 UNL     1      28.836  -0.415  53.463  1.00  0.00     0.002 A 
HETATM   20  C14 UNL     1      27.557  -0.382  52.955  1.00  0.00     0.029 A 
ENDBRANCH   8  15
BRANCH   1  21
HETATM   21  C4  UNL     1      20.490   2.840  52.211  1.00  0.00    -0.007 C 
HETATM   22  C3  UNL     1      21.060   4.025  52.282  1.00  0.00    -0.029 C 
BRANCH  22  23
HETATM   23  C2  UNL     1      22.207   4.868  51.929  1.00  0.00     0.022 C 
HETATM   24  C1  UNL     1      23.407   4.669  52.804  1.00  0.00     0.009 C 
ENDBRANCH  22  23
ENDBRANCH   1  21
TORSDOF 3
ENDMDL
MODEL 3
REMARK VINA RESULT:      -7.8      1.481      2.082
REMARK  3 active torsions:
REMARK  status: ('A' for Active; 'I' for Inactive)
REMARK    1  A    between atoms: C2_2  and  C3_3 
REMARK    2  A    between atoms: C4_4  and  C5_5 
REMARK       I    between atoms: N1_9  and  C8_10 
REMARK       I    between atoms: C8_10  and  N2_12 
REMARK    3  A    between atoms: N2_12  and  C9_13 
ROOT
HETATM    1  C5  UNL     1      22.508   3.482  50.851  1.00  0.00     0.066 C 
HETATM    2 BR1  UNL     1      22.009   5.323  50.494  1.00  0.00    -0.078 Br
HETATM    3  C6  UNL     1      22.286   3.112  52.295  1.00  0.00     0.048 C 
HETATM    4  C7  UNL     1      23.467   2.273  52.726  1.00  0.00     0.131 C 
HETATM    5  N1  UNL     1      24.496   2.490  51.728  1.00  0.00    -0.319 N 
HETATM    6  C8  UNL     1      25.789   1.906  51.706  1.00  0.00     0.323 C 
HETATM    7  O1  UNL     1      26.697   2.074  50.861  1.00  0.00    -0.247 OA
HETATM    8  N2  UNL     1      26.169   1.021  52.722  1.00  0.00    -0.309 N 
HETATM    9  C15 UNL     1      24.007   3.414  50.729  1.00  0.00     0.084 A 
HETATM   10  C16 UNL     1      24.740   4.695  50.848  1.00  0.00     0.044 A 
HETATM   11  C17 UNL     1      25.186   4.505  49.607  1.00  0.00     0.095 A 
HETATM   12  F1  UNL     1      25.985   5.117  48.674  1.00  0.00    -0.211 F 
HETATM   13  C18 UNL     1      24.517   3.213  49.323  1.00  0.00     0.107 A 
HETATM   14  H12 UNL     1      25.564   0.735  53.535  1.00  0.00     0.170 HD
ENDROOT
BRANCH   8  15
HETATM   15  C9  UNL     1      27.354   0.283  52.992  1.00  0.00     0.036 A 
HETATM   16  C10 UNL     1      28.383   1.051  53.516  1.00  0.00     0.029 A 
HETATM   17  C11 UNL     1      29.616   0.477  53.838  1.00  0.00     0.002 A 
HETATM   18  C12 UNL     1      29.729  -0.875  53.601  1.00  0.00     0.000 A 
HETATM   19  C13 UNL     1      28.742  -1.686  53.083  1.00  0.00     0.002 A 
HETATM   20  C14 UNL     1      27.540  -1.088  52.777  1.00  0.00     0.029 A 
ENDBRANCH   8  15
BRANCH   1  21
HETATM   21  C4  UNL     1      21.791   2.537  49.969  1.00  0.00    -0.007 C 
HETATM   22  C3  UNL     1      21.251   1.348  50.127  1.00  0.00    -0.029 C 
BRANCH  22  23
HETATM   23  C2  UNL     1      20.960   0.232  51.034  1.00  0.00     0.022 C 
HETATM   24  C1  UNL     1      19.567   0.236  51.584  1.00  0.00     0.009 C 
ENDBRANCH  22  23
ENDBRANCH   1  21
TORSDOF 3
ENDMDL
MODEL 4
REMARK VINA RESULT:      -7.6      2.642      3.582
REMARK  3 active torsions:
REMARK  status: ('A' for Active; 'I' for Inactive)
REMARK    1  A    between atoms: C2_2  and  C3_3 
REMARK    2  A    between atoms: C4_4  and  C5_5 
REMARK       I    between atoms: N1_9  and  C8_10 
REMARK       I    between atoms: C8_10  and  N2_12 
REMARK    3  A    between atoms: N2_12  and  C9_13 
ROOT
HETATM    1  C5  UNL     1      20.805   1.575  51.383  1.00  0.00     0.066 C 
HETATM    2 BR1  UNL     1      19.262   0.455  51.024  1.00  0.00    -0.078 Br
HETATM    3  C6  UNL     1      21.642   1.788  50.148  1.00  0.00     0.048 C 
HETATM    4  C7  UNL     1      23.090   1.700  50.570  1.00  0.00     0.131 C 
HETATM    5  N1  UNL     1      23.087   1.069  51.876  1.00  0.00    -0.319 N 
HETATM    6  C8  UNL     1      24.222   0.779  52.677  1.00  0.00     0.323 C 
HETATM    7  O1  UNL     1      24.252   0.235  53.805  1.00  0.00    -0.247 OA
HETATM    8  N2  UNL     1      25.501   1.111  52.216  1.00  0.00    -0.309 N 
HETATM    9  C15 UNL     1      21.726   0.767  52.259  1.00  0.00     0.084 A 
HETATM   10  C16 UNL     1      21.530  -0.701  52.248  1.00  0.00     0.044 A 
HETATM   11  C17 UNL     1      21.259  -0.629  53.551  1.00  0.00     0.095 A 
HETATM   12  F1  UNL     1      20.923  -1.449  54.599  1.00  0.00    -0.211 F 
HETATM   13  C18 UNL     1      21.414   0.833  53.733  1.00  0.00     0.107 A 
HETATM   14  H12 UNL     1      25.713   1.575  51.294  1.00  0.00     0.170 HD
ENDROOT
BRANCH   8  15
HETATM   15  C9  UNL     1      26.810   0.964  52.753  1.00  0.00     0.036 A 
HETATM   16  C10 UNL     1      27.388   2.160  53.151  1.00  0.00     0.029 A 
HETATM   17  C11 UNL     1      28.672   2.189  53.701  1.00  0.00     0.002 A 
HETATM   18  C12 UNL     1      29.305   0.971  53.814  1.00  0.00     0.000 A 
HETATM   19  C13 UNL     1      28.780  -0.246  53.436  1.00  0.00     0.002 A 
HETATM   20  C14 UNL     1      27.512  -0.239  52.898  1.00  0.00     0.029 A 
ENDBRANCH   8  15
BRANCH   1  21
HETATM   21  C4  UNL     1      20.416   2.877  51.964  1.00  0.00    -0.007 C 
HETATM   22  C3  UNL     1      19.472   3.760  51.715  1.00  0.00    -0.029 C 
BRANCH  22  23
HETATM   23  C2  UNL     1      18.315   4.135  50.895  1.00  0.00     0.022 C 
HETATM   24  C1  UNL     1      16.996   3.986  51.591  1.00  0.00     0.009 C 
ENDBRANCH  22  23
ENDBRANCH   1  21
TORSDOF 3
ENDMDL
MODEL 5
REMARK VINA RESULT:      -7.4      3.388      5.674
REMARK  3 active torsions:
REMARK  status: ('A' for Active; 'I' for Inactive)
REMARK    1  A    between atoms: C2_2  and  C3_3 
REMARK    2  A    between atoms: C4_4  and  C5_5 
REMARK       I    between atoms: N1_9  and  C8_10 
REMARK       I    between atoms: C8_10  and  N2_12 
REMARK    3  A    between atoms: N2_12  and  C9_13 
ROOT
HETATM    1  C5  UNL     1      22.119   1.548  51.690  1.00  0.00     0.066 C 
HETATM    2 BR1  UNL     1      21.974  -0.210  52.496  1.00  0.00    -0.078 Br
HETATM    3  C6  UNL     1      21.917   1.499  50.197  1.00  0.00     0.048 C 
HETATM    4  C7  UNL     1      22.932   2.432  49.579  1.00  0.00     0.131 C 
HETATM    5  N1  UNL     1      23.921   2.685  50.609  1.00  0.00    -0.319 N 
HETATM    6  C8  UNL     1      25.068   3.512  50.494  1.00  0.00     0.323 C 
HETATM    7  O1  UNL     1      25.939   3.748  51.363  1.00  0.00    -0.247 OA
HETATM    8  N2  UNL     1      25.327   4.178  49.291  1.00  0.00    -0.309 N 
HETATM    9  C15 UNL     1      23.565   1.954  51.804  1.00  0.00     0.084 A 
HETATM   10  C16 UNL     1      24.543   0.863  52.019  1.00  0.00     0.044 A 
HETATM   11  C17 UNL     1      24.866   1.440  53.176  1.00  0.00     0.095 A 
HETATM   12  F1  UNL     1      25.712   1.255  54.240  1.00  0.00    -0.211 F 
HETATM   13  C18 UNL     1      23.938   2.595  53.118  1.00  0.00     0.107 A 
HETATM   14  H12 UNL     1      24.727   4.125  48.426  1.00  0.00     0.170 HD
ENDROOT
BRANCH   8  15
HETATM   15  C9  UNL     1      26.356   5.057  48.854  1.00  0.00     0.036 A 
HETATM   16  C10 UNL     1      25.919   6.350  48.608  1.00  0.00     0.029 A 
HETATM   17  C11 UNL     1      26.807   7.338  48.173  1.00  0.00     0.002 A 
HETATM   18  C12 UNL     1      28.115   6.940  48.009  1.00  0.00     0.000 A 
HETATM   19  C13 UNL     1      28.604   5.671  48.239  1.00  0.00     0.002 A 
HETATM   20  C14 UNL     1      27.703   4.723  48.667  1.00  0.00     0.029 A 
ENDBRANCH   8  15
BRANCH   1  21
HETATM   21  C4  UNL     1      21.177   2.511  52.298  1.00  0.00    -0.007 C 
HETATM   22  C3  UNL     1      20.789   3.736  52.014  1.00  0.00    -0.029 C 
BRANCH  22  23
HETATM   23  C2  UNL     1      20.903   4.893  51.119  1.00  0.00     0.022 C 
HETATM   24  C1  UNL     1      22.135   5.717  51.338  1.00  0.00     0.009 C 
ENDBRANCH  22  23
ENDBRANCH   1  21
TORSDOF 3
ENDMDL
MODEL 6
REMARK VINA RESULT:      -7.4      2.992      5.073
REMARK  3 active torsions:
REMARK  status: ('A' for Active; 'I' for Inactive)
REMARK    1  A    between atoms: C2_2  and  C3_3 
REMARK    2  A    between atoms: C4_4  and  C5_5 
REMARK       I    between atoms: N1_9  and  C8_10 
REMARK       I    between atoms: C8_10  and  N2_12 
REMARK    3  A    between atoms: N2_12  and  C9_13 
ROOT
HETATM    1  C5  UNL     1      23.442   5.659  50.141  1.00  0.00     0.066 C 
HETATM    2 BR1  UNL     1      21.710   5.663  49.267  1.00  0.00    -0.078 Br
HETATM    3  C6  UNL     1      24.558   5.356  49.174  1.00  0.00     0.048 C 
HETATM    4  C7  UNL     1      25.520   4.429  49.879  1.00  0.00     0.131 C 
HETATM    5  N1  UNL     1      24.802   3.903  51.024  1.00  0.00    -0.319 N 
HETATM    6  C8  UNL     1      25.301   2.992  51.990  1.00  0.00     0.323 C 
HETATM    7  O1  UNL     1      24.706   2.520  52.986  1.00  0.00    -0.247 OA
HETATM    8  N2  UNL     1      26.612   2.516  51.883  1.00  0.00    -0.309 N 
HETATM    9  C15 UNL     1      23.464   4.453  51.043  1.00  0.00     0.084 A 
HETATM   10  C16 UNL     1      22.491   3.380  50.737  1.00  0.00     0.044 A 
HETATM   11  C17 UNL     1      21.958   3.580  51.941  1.00  0.00     0.095 A 
HETATM   12  F1  UNL     1      20.945   3.101  52.733  1.00  0.00    -0.211 F 
HETATM   13  C18 UNL     1      22.849   4.671  52.403  1.00  0.00     0.107 A 
HETATM   14  H12 UNL     1      27.294   2.779  51.123  1.00  0.00     0.170 HD
ENDROOT
BRANCH   8  15
HETATM   15  C9  UNL     1      27.401   1.622  52.658  1.00  0.00     0.036 A 
HETATM   16  C10 UNL     1      28.325   2.256  53.475  1.00  0.00     0.029 A 
HETATM   17  C11 UNL     1      29.177   1.521  54.302  1.00  0.00     0.002 A 
HETATM   18  C12 UNL     1      29.036   0.152  54.245  1.00  0.00     0.000 A 
HETATM   19  C13 UNL     1      28.138  -0.531  53.453  1.00  0.00     0.002 A 
HETATM   20  C14 UNL     1      27.312   0.224  52.651  1.00  0.00     0.029 A 
ENDBRANCH   8  15
BRANCH   1  21
HETATM   21  C4  UNL     1      23.708   6.934  50.839  1.00  0.00    -0.007 C 
HETATM   22  C3  UNL     1      24.205   8.100  50.486  1.00  0.00    -0.029 C 
BRANCH  22  23
HETATM   23  C2  UNL     1      24.768   8.931  49.416  1.00  0.00     0.022 C 
HETATM   24  C1  UNL     1      23.814   9.220  48.298  1.00  0.00     0.009 C 
ENDBRANCH  22  23
ENDBRANCH   1  21
TORSDOF 3
ENDMDL
MODEL 7
REMARK VINA RESULT:      -7.2      4.107      5.616
REMARK  3 active torsions:
REMARK  status: ('A' for Active; 'I' for Inactive)
REMARK    1  A    between atoms: C2_2  and  C3_3 
REMARK    2  A    between atoms: C4_4  and  C5_5 
REMARK       I    between atoms: N1_9  and  C8_10 
REMARK       I    between atoms: C8_10  and  N2_12 
REMARK    3  A    between atoms: N2_12  and  C9_13 
ROOT
HETATM    1  C5  UNL     1      20.805   1.659  51.396  1.00  0.00     0.066 C 
HETATM    2 BR1  UNL     1      18.866   1.663  51.338  1.00  0.00    -0.078 Br
HETATM    3  C6  UNL     1      21.334   2.516  52.518  1.00  0.00     0.048 C 
HETATM    4  C7  UNL     1      22.531   3.266  51.980  1.00  0.00     0.131 C 
HETATM    5  N1  UNL     1      22.449   3.166  50.536  1.00  0.00    -0.319 N 
HETATM    6  C8  UNL     1      23.360   3.713  49.597  1.00  0.00     0.323 C 
HETATM    7  O1  UNL     1      23.316   3.645  48.347  1.00  0.00    -0.247 OA
HETATM    8  N2  UNL     1      24.473   4.434  50.048  1.00  0.00    -0.309 N 
HETATM    9  C15 UNL     1      21.271   2.408  50.175  1.00  0.00     0.084 A 
HETATM   10  C16 UNL     1      20.286   3.310  49.536  1.00  0.00     0.044 A 
HETATM   11  C17 UNL     1      20.385   2.566  48.436  1.00  0.00     0.095 A 
HETATM   12  F1  UNL     1      19.875   2.503  47.162  1.00  0.00    -0.211 F 
HETATM   13  C18 UNL     1      21.370   1.572  48.923  1.00  0.00     0.107 A 
HETATM   14  H12 UNL     1      24.709   4.617  51.058  1.00  0.00     0.170 HD
ENDROOT
BRANCH   8  15
HETATM   15  C9  UNL     1      25.549   5.095  49.394  1.00  0.00     0.036 A 
HETATM   16  C10 UNL     1      26.690   4.317  49.271  1.00  0.00     0.029 A 
HETATM   17  C11 UNL     1      27.838   4.817  48.651  1.00  0.00     0.002 A 
HETATM   18  C12 UNL     1      27.753   6.109  48.183  1.00  0.00     0.000 A 
HETATM   19  C13 UNL     1      26.647   6.927  48.277  1.00  0.00     0.002 A 
HETATM   20  C14 UNL     1      25.533   6.402  48.893  1.00  0.00     0.029 A 
ENDBRANCH   8  15
BRANCH   1  21
HETATM   21  C4  UNL     1      21.350   0.290  51.503  1.00  0.00    -0.007 C 
HETATM   22  C3  UNL     1      21.985  -0.386  52.437  1.00  0.00    -0.029 C 
BRANCH  22  23
HETATM   23  C2  UNL     1      22.549  -0.393  53.791  1.00  0.00     0.022 C 
HETATM   24  C1  UNL     1      21.785  -1.231  54.770  1.00  0.00     0.009 C 
ENDBRANCH  22  23
ENDBRANCH   1  21
TORSDOF 3
ENDMDL
MODEL 8
REMARK VINA RESULT:      -7.2      3.237      5.302
REMARK  3 active torsions:
REMARK  status: ('A' for Active; 'I' for Inactive)
REMARK    1  A    between atoms: C2_2  and  C3_3 
REMARK    2  A    between atoms: C4_4  and  C5_5 
REMARK       I    between atoms: N1_9  and  C8_10 
REMARK       I    between atoms: C8_10  and  N2_12 
REMARK    3  A    between atoms: N2_12  and  C9_13 
ROOT
HETATM    1  C5  UNL     1      22.102   1.333  51.699  1.00  0.00     0.066 C 
HETATM    2 BR1  UNL     1      22.083  -0.410  52.549  1.00  0.00    -0.078 Br
HETATM    3  C6  UNL     1      21.943   1.229  50.203  1.00  0.00     0.048 C 
HETATM    4  C7  UNL     1      22.893   2.227  49.583  1.00  0.00     0.131 C 
HETATM    5  N1  UNL     1      23.831   2.588  50.628  1.00  0.00    -0.319 N 
HETATM    6  C8  UNL     1      24.909   3.504  50.517  1.00  0.00     0.323 C 
HETATM    7  O1  UNL     1      25.735   3.834  51.398  1.00  0.00    -0.247 OA
HETATM    8  N2  UNL     1      25.142   4.158  49.302  1.00  0.00    -0.309 N 
HETATM    9  C15 UNL     1      23.506   1.860  51.835  1.00  0.00     0.084 A 
HETATM   10  C16 UNL     1      24.566   0.861  52.102  1.00  0.00     0.044 A 
HETATM   11  C17 UNL     1      24.810   1.492  53.249  1.00  0.00     0.095 A 
HETATM   12  F1  UNL     1      25.642   1.406  54.338  1.00  0.00    -0.211 F 
HETATM   13  C18 UNL     1      23.792   2.564  53.138  1.00  0.00     0.107 A 
HETATM   14  H12 UNL     1      24.571   4.032  48.425  1.00  0.00     0.170 HD
ENDROOT
BRANCH   8  15
HETATM   15  C9  UNL     1      26.106   5.108  48.864  1.00  0.00     0.036 A 
HETATM   16  C10 UNL     1      27.391   4.595  48.767  1.00  0.00     0.029 A 
HETATM   17  C11 UNL     1      28.455   5.398  48.350  1.00  0.00     0.002 A 
HETATM   18  C12 UNL     1      28.141   6.704  48.051  1.00  0.00     0.000 A 
HETATM   19  C13 UNL     1      26.885   7.267  48.128  1.00  0.00     0.002 A 
HETATM   20  C14 UNL     1      25.858   6.448  48.542  1.00  0.00     0.029 A 
ENDBRANCH   8  15
BRANCH   1  21
HETATM   21  C4  UNL     1      21.069   2.230  52.257  1.00  0.00    -0.007 C 
HETATM   22  C3  UNL     1      19.762   2.328  52.139  1.00  0.00    -0.029 C 
BRANCH  22  23
HETATM   23  C2  UNL     1      18.532   1.803  51.536  1.00  0.00     0.022 C 
HETATM   24  C1  UNL     1      18.406   0.311  51.601  1.00  0.00     0.009 C 
ENDBRANCH  22  23
ENDBRANCH   1  21
TORSDOF 3
ENDMDL
MODEL 9
REMARK VINA RESULT:      -6.9      3.431      7.530
REMARK  3 active torsions:
REMARK  status: ('A' for Active; 'I' for Inactive)
REMARK    1  A    between atoms: C2_2  and  C3_3 
REMARK    2  A    between atoms: C4_4  and  C5_5 
REMARK       I    between atoms: N1_9  and  C8_10 
REMARK       I    between atoms: C8_10  and  N2_12 
REMARK    3  A    between atoms: N2_12  and  C9_13 
ROOT
HETATM    1  C5  UNL     1      24.477   1.180  52.841  1.00  0.00     0.066 C 
HETATM    2 BR1  UNL     1      23.769  -0.324  53.840  1.00  0.00    -0.078 Br
HETATM    3  C6  UNL     1      24.959   2.281  53.752  1.00  0.00     0.048 C 
HETATM    4  C7  UNL     1      24.532   3.591  53.133  1.00  0.00     0.131 C 
HETATM    5  N1  UNL     1      23.517   3.257  52.152  1.00  0.00    -0.319 N 
HETATM    6  C8  UNL     1      22.822   4.164  51.313  1.00  0.00     0.323 C 
HETATM    7  O1  UNL     1      21.942   3.908  50.459  1.00  0.00    -0.247 OA
HETATM    8  N2  UNL     1      23.099   5.534  51.390  1.00  0.00    -0.309 N 
HETATM    9  C15 UNL     1      23.305   1.826  52.151  1.00  0.00     0.084 A 
HETATM   10  C16 UNL     1      21.965   1.531  52.708  1.00  0.00     0.044 A 
HETATM   11  C17 UNL     1      21.646   0.988  51.534  1.00  0.00     0.095 A 
HETATM   12  F1  UNL     1      20.586   0.372  50.916  1.00  0.00    -0.211 F 
HETATM   13  C18 UNL     1      22.931   1.206  50.828  1.00  0.00     0.107 A 
HETATM   14  H12 UNL     1      23.803   5.976  52.038  1.00  0.00     0.170 HD
ENDROOT
BRANCH   8  15
HETATM   15  C9  UNL     1      22.599   6.680  50.712  1.00  0.00     0.036 A 
HETATM   16  C10 UNL     1      23.555   7.346  49.961  1.00  0.00     0.029 A 
HETATM   17  C11 UNL     1      23.227   8.492  49.232  1.00  0.00     0.002 A 
HETATM   18  C12 UNL     1      21.914   8.900  49.314  1.00  0.00     0.000 A 
HETATM   19  C13 UNL     1      20.923   8.278  50.044  1.00  0.00     0.002 A 
HETATM   20  C14 UNL     1      21.281   7.152  50.750  1.00  0.00     0.029 A 
ENDBRANCH   8  15
BRANCH   1  21
HETATM   21  C4  UNL     1      25.560   0.770  51.924  1.00  0.00    -0.007 C 
HETATM   22  C3  UNL     1      26.631   0.012  52.031  1.00  0.00    -0.029 C 
BRANCH  22  23
HETATM   23  C2  UNL     1      27.460  -0.842  52.887  1.00  0.00     0.022 C 
HETATM   24  C1  UNL     1      28.096  -0.124  54.038  1.00  0.00     0.009 C 
ENDBRANCH  22  23
ENDBRANCH   1  21
TORSDOF 3
ENDMDL
