MODEL 1
REMARK VINA RESULT:      -8.5      0.000      0.000
REMARK  2 active torsions:
REMARK  status: ('A' for Active; 'I' for Inactive)
REMARK       I    between atoms: N1_1  and  C1_2 
REMARK    1  A    between atoms: C9_12  and  C10_13 
REMARK    2  A    between atoms: C10_13  and  C11_14 
ROOT
HETATM    1  N1  UNL     1      20.783  -0.144  52.642  1.00  0.00    -0.269 NA
HETATM    2  C1  UNL     1      20.640   1.257  52.741  1.00  0.00     0.217 C 
HETATM    3  N2  UNL     1      20.384   2.514  53.013  1.00  0.00    -0.146 NA
HETATM    4  N3  UNL     1      20.734   3.695  52.410  1.00  0.00    -0.301 N 
HETATM    5  C2  UNL     1      21.326   4.672  51.457  1.00  0.00     0.138 C 
HETATM    6  C3  UNL     1      21.143   3.849  50.132  1.00  0.00     0.066 C 
HETATM    7  C4  UNL     1      22.594   3.345  49.962  1.00  0.00    -0.071 C 
HETATM    8  C5  UNL     1      23.317   4.496  49.926  1.00  0.00     0.012 C 
HETATM    9  C6  UNL     1      22.863   4.495  51.391  1.00  0.00    -0.034 C 
HETATM   10  C7  UNL     1      23.552   4.313  52.582  1.00  0.00     0.010 C 
HETATM   11  C8  UNL     1      24.146   2.922  52.920  1.00  0.00     0.010 C 
HETATM   12  C9  UNL     1      23.559   1.692  52.598  1.00  0.00    -0.029 C 
HETATM   13  C17 UNL     1      22.639   1.497  51.482  1.00  0.00     0.048 C 
HETATM   14  N4  UNL     1      21.454   1.318  51.662  1.00  0.00    -0.221 NA
HETATM   15  C18 UNL     1      22.736   1.780  49.984  1.00  0.00     0.094 C 
HETATM   16  H1  UNL     1      20.201  -0.677  53.350  1.00  0.00     0.127 HD
HETATM   17  H2  UNL     1      20.201  -0.660  53.349  1.00  0.00     0.127 HD
HETATM   18  H3  UNL     1      20.187   4.106  53.199  1.00  0.00     0.183 HD
ENDROOT
BRANCH  12  19
HETATM   19  C10 UNL     1      23.826   0.605  53.498  1.00  0.00     0.079 C 
BRANCH  19  20
HETATM   20  C11 UNL     1      25.279   0.274  53.429  1.00  0.00    -0.054 A 
HETATM   21  C12 UNL     1      26.012   0.445  54.617  1.00  0.00     0.009 A 
HETATM   22  C13 UNL     1      27.348   0.192  54.754  1.00  0.00     0.024 A 
HETATM   23  C14 UNL     1      28.048  -0.263  53.670  1.00  0.00     0.034 A 
HETATM   24 CL1  UNL     1      29.745  -0.607  53.768  1.00  0.00    -0.084 Cl
HETATM   25  C15 UNL     1      27.367  -0.441  52.496  1.00  0.00     0.024 A 
HETATM   26  C16 UNL     1      26.019  -0.185  52.362  1.00  0.00     0.009 A 
ENDBRANCH  19  20
ENDBRANCH  12  19
TORSDOF 2
ENDMDL
MODEL 2
REMARK VINA RESULT:      -8.5      0.329      1.029
REMARK  2 active torsions:
REMARK  status: ('A' for Active; 'I' for Inactive)
REMARK       I    between atoms: N1_1  and  C1_2 
REMARK    1  A    between atoms: C9_12  and  C10_13 
REMARK    2  A    between atoms: C10_13  and  C11_14 
ROOT
HETATM    1  N1  UNL     1      20.786   0.069  52.246  1.00  0.00    -0.269 NA
HETATM    2  C1  UNL     1      20.682   1.463  52.442  1.00  0.00     0.217 C 
HETATM    3  N2  UNL     1      20.443   2.705  52.789  1.00  0.00    -0.146 NA
HETATM    4  N3  UNL     1      20.885   3.914  52.314  1.00  0.00    -0.301 N 
HETATM    5  C2  UNL     1      21.595   4.935  51.498  1.00  0.00     0.138 C 
HETATM    6  C3  UNL     1      21.508   4.222  50.101  1.00  0.00     0.066 C 
HETATM    7  C4  UNL     1      22.950   3.675  50.022  1.00  0.00    -0.071 C 
HETATM    8  C5  UNL     1      23.711   4.796  50.142  1.00  0.00     0.012 C 
HETATM    9  C6  UNL     1      23.125   4.702  51.556  1.00  0.00    -0.034 C 
HETATM   10  C7  UNL     1      23.694   4.404  52.785  1.00  0.00     0.010 C 
HETATM   11  C8  UNL     1      24.209   2.968  53.065  1.00  0.00     0.010 C 
HETATM   12  C9  UNL     1      23.614   1.790  52.595  1.00  0.00    -0.029 C 
HETATM   13  C17 UNL     1      22.794   1.717  51.389  1.00  0.00     0.048 C 
HETATM   14  N4  UNL     1      21.592   1.573  51.449  1.00  0.00    -0.221 NA
HETATM   15  C18 UNL     1      23.038   2.108  49.933  1.00  0.00     0.094 C 
HETATM   16  H1  UNL     1      20.124  -0.492  52.855  1.00  0.00     0.127 HD
HETATM   17  H2  UNL     1      20.125  -0.475  52.856  1.00  0.00     0.127 HD
HETATM   18  H3  UNL     1      20.282   4.285  53.081  1.00  0.00     0.183 HD
ENDROOT
BRANCH  12  19
HETATM   19  C10 UNL     1      23.760   0.629  53.427  1.00  0.00     0.079 C 
BRANCH  19  20
HETATM   20  C11 UNL     1      25.214   0.322  53.566  1.00  0.00    -0.054 A 
HETATM   21  C12 UNL     1      25.846  -0.220  52.433  1.00  0.00     0.009 A 
HETATM   22  C13 UNL     1      27.167  -0.561  52.363  1.00  0.00     0.024 A 
HETATM   23  C14 UNL     1      27.957  -0.372  53.464  1.00  0.00     0.034 A 
HETATM   24 CL1  UNL     1      29.642  -0.781  53.451  1.00  0.00    -0.084 Cl
HETATM   25  C15 UNL     1      27.375   0.154  54.587  1.00  0.00     0.024 A 
HETATM   26  C16 UNL     1      26.042   0.497  54.653  1.00  0.00     0.009 A 
ENDBRANCH  19  20
ENDBRANCH  12  19
TORSDOF 2
ENDMDL
MODEL 3
REMARK VINA RESULT:      -8.3      1.531      2.234
REMARK  2 active torsions:
REMARK  status: ('A' for Active; 'I' for Inactive)
REMARK       I    between atoms: N1_1  and  C1_2 
REMARK    1  A    between atoms: C9_12  and  C10_13 
REMARK    2  A    between atoms: C10_13  and  C11_14 
ROOT
HETATM    1  N1  UNL     1      20.327   2.610  53.048  1.00  0.00    -0.269 NA
HETATM    2  C1  UNL     1      20.519   3.470  51.947  1.00  0.00     0.217 C 
HETATM    3  N2  UNL     1      20.645   4.434  51.065  1.00  0.00    -0.146 NA
HETATM    4  N3  UNL     1      20.974   4.451  49.733  1.00  0.00    -0.301 N 
HETATM    5  C2  UNL     1      21.349   3.999  48.367  1.00  0.00     0.138 C 
HETATM    6  C3  UNL     1      20.519   2.666  48.323  1.00  0.00     0.066 C 
HETATM    7  C4  UNL     1      21.665   1.663  48.583  1.00  0.00    -0.071 C 
HETATM    8  C5  UNL     1      22.538   1.926  47.575  1.00  0.00     0.012 C 
HETATM    9  C6  UNL     1      22.679   3.205  48.409  1.00  0.00    -0.034 C 
HETATM   10  C7  UNL     1      23.712   3.702  49.190  1.00  0.00     0.010 C 
HETATM   11  C8  UNL     1      24.095   2.979  50.507  1.00  0.00     0.010 C 
HETATM   12  C9  UNL     1      23.194   2.351  51.376  1.00  0.00    -0.029 C 
HETATM   13  C17 UNL     1      21.902   1.812  50.959  1.00  0.00     0.048 C 
HETATM   14  N4  UNL     1      20.862   2.357  51.260  1.00  0.00    -0.221 NA
HETATM   15  C18 UNL     1      21.484   0.807  49.888  1.00  0.00     0.094 C 
HETATM   16  H1  UNL     1      19.959   3.106  53.910  1.00  0.00     0.127 HD
HETATM   17  H2  UNL     1      19.962   3.114  53.896  1.00  0.00     0.127 HD
HETATM   18  H3  UNL     1      20.859   5.482  49.855  1.00  0.00     0.183 HD
ENDROOT
BRANCH  12  19
HETATM   19  C10 UNL     1      23.552   2.342  52.766  1.00  0.00     0.079 C 
BRANCH  19  20
HETATM   20  C11 UNL     1      24.767   1.493  52.940  1.00  0.00    -0.054 A 
HETATM   21  C12 UNL     1      25.880   2.114  53.534  1.00  0.00     0.009 A 
HETATM   22  C13 UNL     1      27.077   1.504  53.780  1.00  0.00     0.024 A 
HETATM   23  C14 UNL     1      27.231   0.189  53.432  1.00  0.00     0.034 A 
HETATM   24 CL1  UNL     1      28.721  -0.653  53.714  1.00  0.00    -0.084 Cl
HETATM   25  C15 UNL     1      26.169  -0.449  52.850  1.00  0.00     0.024 A 
HETATM   26  C16 UNL     1      24.963   0.171  52.604  1.00  0.00     0.009 A 
ENDBRANCH  19  20
ENDBRANCH  12  19
TORSDOF 2
ENDMDL
MODEL 4
REMARK VINA RESULT:      -8.2      2.814      4.988
REMARK  2 active torsions:
REMARK  status: ('A' for Active; 'I' for Inactive)
REMARK       I    between atoms: N1_1  and  C1_2 
REMARK    1  A    between atoms: C9_12  and  C10_13 
REMARK    2  A    between atoms: C10_13  and  C11_14 
ROOT
HETATM    1  N1  UNL     1      22.046   5.416  52.196  1.00  0.00    -0.269 NA
HETATM    2  C1  UNL     1      21.142   4.335  52.253  1.00  0.00     0.217 C 
HETATM    3  N2  UNL     1      20.145   3.483  52.268  1.00  0.00    -0.146 NA
HETATM    4  N3  UNL     1      20.071   2.127  52.459  1.00  0.00    -0.301 N 
HETATM    5  C2  UNL     1      20.462   0.715  52.717  1.00  0.00     0.138 C 
HETATM    6  C3  UNL     1      21.608   0.974  53.759  1.00  0.00     0.066 C 
HETATM    7  C4  UNL     1      22.825   0.767  52.831  1.00  0.00    -0.071 C 
HETATM    8  C5  UNL     1      22.640  -0.495  52.358  1.00  0.00     0.012 C 
HETATM    9  C6  UNL     1      21.488   0.239  51.660  1.00  0.00    -0.034 C 
HETATM   10  C7  UNL     1      21.262   0.574  50.333  1.00  0.00     0.010 C 
HETATM   11  C8  UNL     1      22.158   1.638  49.647  1.00  0.00     0.010 C 
HETATM   12  C9  UNL     1      22.682   2.776  50.271  1.00  0.00    -0.029 C 
HETATM   13  C17 UNL     1      22.933   2.876  51.705  1.00  0.00     0.048 C 
HETATM   14  N4  UNL     1      22.234   3.557  52.424  1.00  0.00    -0.221 NA
HETATM   15  C18 UNL     1      23.745   2.033  52.686  1.00  0.00     0.094 C 
HETATM   16  H1  UNL     1      21.569   6.359  52.108  1.00  0.00     0.127 HD
HETATM   17  H2  UNL     1      21.560   6.345  52.109  1.00  0.00     0.127 HD
HETATM   18  H3  UNL     1      19.052   2.295  52.307  1.00  0.00     0.183 HD
ENDROOT
BRANCH  12  19
HETATM   19  C10 UNL     1      22.881   3.925  49.433  1.00  0.00     0.079 C 
BRANCH  19  20
HETATM   20  C11 UNL     1      24.347   4.149  49.269  1.00  0.00    -0.054 A 
HETATM   21  C12 UNL     1      24.738   5.437  48.863  1.00  0.00     0.009 A 
HETATM   22  C13 UNL     1      26.030   5.835  48.664  1.00  0.00     0.024 A 
HETATM   23  C14 UNL     1      27.038   4.932  48.867  1.00  0.00     0.034 A 
HETATM   24 CL1  UNL     1      28.701   5.365  48.635  1.00  0.00    -0.084 Cl
HETATM   25  C15 UNL     1      26.695   3.668  49.264  1.00  0.00     0.024 A 
HETATM   26  C16 UNL     1      25.390   3.270  49.464  1.00  0.00     0.009 A 
ENDBRANCH  19  20
ENDBRANCH  12  19
TORSDOF 2
ENDMDL
MODEL 5
REMARK VINA RESULT:      -8.0      1.745      3.057
REMARK  2 active torsions:
REMARK  status: ('A' for Active; 'I' for Inactive)
REMARK       I    between atoms: N1_1  and  C1_2 
REMARK    1  A    between atoms: C9_12  and  C10_13 
REMARK    2  A    between atoms: C10_13  and  C11_14 
ROOT
HETATM    1  N1  UNL     1      24.209   4.535  53.416  1.00  0.00    -0.269 NA
HETATM    2  C1  UNL     1      23.056   4.585  52.604  1.00  0.00     0.217 C 
HETATM    3  N2  UNL     1      22.036   4.848  51.822  1.00  0.00    -0.146 NA
HETATM    4  N3  UNL     1      21.002   4.086  51.340  1.00  0.00    -0.301 N 
HETATM    5  C2  UNL     1      20.103   2.930  51.080  1.00  0.00     0.138 C 
HETATM    6  C3  UNL     1      20.165   2.259  52.499  1.00  0.00     0.066 C 
HETATM    7  C4  UNL     1      21.148   1.111  52.177  1.00  0.00    -0.071 C 
HETATM    8  C5  UNL     1      20.526   0.450  51.164  1.00  0.00     0.012 C 
HETATM    9  C6  UNL     1      20.901   1.758  50.457  1.00  0.00    -0.034 C 
HETATM   10  C7  UNL     1      21.820   2.050  49.459  1.00  0.00     0.010 C 
HETATM   11  C8  UNL     1      23.338   1.953  49.761  1.00  0.00     0.010 C 
HETATM   12  C9  UNL     1      23.942   2.282  50.980  1.00  0.00    -0.029 C 
HETATM   13  C17 UNL     1      23.254   2.244  52.267  1.00  0.00     0.048 C 
HETATM   14  N4  UNL     1      22.943   3.260  52.849  1.00  0.00    -0.221 NA
HETATM   15  C18 UNL     1      22.481   1.155  53.008  1.00  0.00     0.094 C 
HETATM   16  H1  UNL     1      24.658   5.483  53.568  1.00  0.00     0.127 HD
HETATM   17  H2  UNL     1      24.645   5.481  53.559  1.00  0.00     0.127 HD
HETATM   18  H3  UNL     1      20.739   4.981  50.870  1.00  0.00     0.183 HD
ENDROOT
BRANCH  12  19
HETATM   19  C10 UNL     1      25.290   2.774  50.909  1.00  0.00     0.079 C 
BRANCH  19  20
HETATM   20  C11 UNL     1      26.178   1.844  51.667  1.00  0.00    -0.054 A 
HETATM   21  C12 UNL     1      27.228   2.438  52.389  1.00  0.00     0.009 A 
HETATM   22  C13 UNL     1      28.140   1.756  53.144  1.00  0.00     0.024 A 
HETATM   23  C14 UNL     1      28.047   0.393  53.220  1.00  0.00     0.034 A 
HETATM   24 CL1  UNL     1      29.168  -0.539  54.159  1.00  0.00    -0.084 Cl
HETATM   25  C15 UNL     1      27.037  -0.220  52.529  1.00  0.00     0.024 A 
HETATM   26  C16 UNL     1      26.118   0.471  51.769  1.00  0.00     0.009 A 
ENDBRANCH  19  20
ENDBRANCH  12  19
TORSDOF 2
ENDMDL
MODEL 6
REMARK VINA RESULT:      -7.9      1.789      3.178
REMARK  2 active torsions:
REMARK  status: ('A' for Active; 'I' for Inactive)
REMARK       I    between atoms: N1_1  and  C1_2 
REMARK    1  A    between atoms: C9_12  and  C10_13 
REMARK    2  A    between atoms: C10_13  and  C11_14 
ROOT
HETATM    1  N1  UNL     1      24.725   4.921  50.922  1.00  0.00    -0.269 NA
HETATM    2  C1  UNL     1      24.141   3.816  50.267  1.00  0.00     0.217 C 
HETATM    3  N2  UNL     1      23.792   2.777  49.546  1.00  0.00    -0.146 NA
HETATM    4  N3  UNL     1      22.649   2.021  49.480  1.00  0.00    -0.301 N 
HETATM    5  C2  UNL     1      21.275   1.515  49.743  1.00  0.00     0.138 C 
HETATM    6  C3  UNL     1      20.558   2.892  49.978  1.00  0.00     0.066 C 
HETATM    7  C4  UNL     1      20.479   2.860  51.520  1.00  0.00    -0.071 C 
HETATM    8  C5  UNL     1      19.795   1.712  51.769  1.00  0.00     0.012 C 
HETATM    9  C6  UNL     1      21.115   1.142  51.237  1.00  0.00    -0.034 C 
HETATM   10  C7  UNL     1      22.147   0.446  51.851  1.00  0.00     0.010 C 
HETATM   11  C8  UNL     1      23.047   1.165  52.888  1.00  0.00     0.010 C 
HETATM   12  C9  UNL     1      23.445   2.506  52.822  1.00  0.00    -0.029 C 
HETATM   13  C17 UNL     1      22.690   3.545  52.126  1.00  0.00     0.048 C 
HETATM   14  N4  UNL     1      23.080   4.017  51.080  1.00  0.00    -0.221 NA
HETATM   15  C18 UNL     1      21.247   4.035  52.226  1.00  0.00     0.094 C 
HETATM   16  H1  UNL     1      25.669   5.195  50.525  1.00  0.00     0.127 HD
HETATM   17  H2  UNL     1      25.660   5.182  50.519  1.00  0.00     0.127 HD
HETATM   18  H3  UNL     1      23.197   1.497  48.762  1.00  0.00     0.183 HD
ENDROOT
BRANCH  12  19
HETATM   19  C10 UNL     1      24.721   2.820  53.400  1.00  0.00     0.079 C 
BRANCH  19  20
HETATM   20  C11 UNL     1      25.644   1.669  53.173  1.00  0.00    -0.054 A 
HETATM   21  C12 UNL     1      26.204   1.087  54.323  1.00  0.00     0.009 A 
HETATM   22  C13 UNL     1      27.065   0.026  54.322  1.00  0.00     0.024 A 
HETATM   23  C14 UNL     1      27.425  -0.530  53.125  1.00  0.00     0.034 A 
HETATM   24 CL1  UNL     1      28.512  -1.879  53.043  1.00  0.00    -0.084 Cl
HETATM   25  C15 UNL     1      26.898   0.011  51.983  1.00  0.00     0.024 A 
HETATM   26  C16 UNL     1      26.030   1.081  51.989  1.00  0.00     0.009 A 
ENDBRANCH  19  20
ENDBRANCH  12  19
TORSDOF 2
ENDMDL
MODEL 7
REMARK VINA RESULT:      -7.6      3.765      6.167
REMARK  2 active torsions:
REMARK  status: ('A' for Active; 'I' for Inactive)
REMARK       I    between atoms: N1_1  and  C1_2 
REMARK    1  A    between atoms: C9_12  and  C10_13 
REMARK    2  A    between atoms: C10_13  and  C11_14 
ROOT
HETATM    1  N1  UNL     1      21.798   4.608  49.318  1.00  0.00    -0.269 NA
HETATM    2  C1  UNL     1      22.290   3.333  49.668  1.00  0.00     0.217 C 
HETATM    3  N2  UNL     1      22.660   2.082  49.799  1.00  0.00    -0.146 NA
HETATM    4  N3  UNL     1      23.336   1.400  50.779  1.00  0.00    -0.301 N 
HETATM    5  C2  UNL     1      24.061   1.094  52.041  1.00  0.00     0.138 C 
HETATM    6  C3  UNL     1      23.258   2.036  53.008  1.00  0.00     0.066 C 
HETATM    7  C4  UNL     1      24.279   3.190  53.120  1.00  0.00    -0.071 C 
HETATM    8  C5  UNL     1      25.395   2.568  53.585  1.00  0.00     0.012 C 
HETATM    9  C6  UNL     1      25.321   1.987  52.168  1.00  0.00    -0.034 C 
HETATM   10  C7  UNL     1      26.111   2.166  51.042  1.00  0.00     0.010 C 
HETATM   11  C8  UNL     1      26.115   3.538  50.319  1.00  0.00     0.010 C 
HETATM   12  C9  UNL     1      25.006   4.380  50.176  1.00  0.00    -0.029 C 
HETATM   13  C17 UNL     1      23.869   4.391  51.092  1.00  0.00     0.048 C 
HETATM   14  N4  UNL     1      22.792   3.936  50.769  1.00  0.00    -0.221 NA
HETATM   15  C18 UNL     1      23.743   4.573  52.603  1.00  0.00     0.094 C 
HETATM   16  H1  UNL     1      21.217   4.606  48.431  1.00  0.00     0.127 HD
HETATM   17  H2  UNL     1      21.224   4.592  48.437  1.00  0.00     0.127 HD
HETATM   18  H3  UNL     1      23.205   0.597  50.124  1.00  0.00     0.183 HD
ENDROOT
BRANCH  12  19
HETATM   19  C10 UNL     1      24.976   5.198  48.996  1.00  0.00     0.079 C 
BRANCH  19  20
HETATM   20  C11 UNL     1      25.887   6.363  49.201  1.00  0.00    -0.054 A 
HETATM   21  C12 UNL     1      27.020   6.419  48.370  1.00  0.00     0.009 A 
HETATM   22  C13 UNL     1      27.965   7.405  48.403  1.00  0.00     0.024 A 
HETATM   23  C14 UNL     1      27.821   8.427  49.301  1.00  0.00     0.034 A 
HETATM   24 CL1  UNL     1      28.980   9.714  49.400  1.00  0.00    -0.084 Cl
HETATM   25  C15 UNL     1      26.729   8.406  50.127  1.00  0.00     0.024 A 
HETATM   26  C16 UNL     1      25.778   7.409  50.090  1.00  0.00     0.009 A 
ENDBRANCH  19  20
ENDBRANCH  12  19
TORSDOF 2
ENDMDL
MODEL 8
REMARK VINA RESULT:      -7.5      3.171      4.607
REMARK  2 active torsions:
REMARK  status: ('A' for Active; 'I' for Inactive)
REMARK       I    between atoms: N1_1  and  C1_2 
REMARK    1  A    between atoms: C9_12  and  C10_13 
REMARK    2  A    between atoms: C10_13  and  C11_14 
ROOT
HETATM    1  N1  UNL     1      24.262   6.413  52.315  1.00  0.00    -0.269 NA
HETATM    2  C1  UNL     1      24.348   6.235  50.918  1.00  0.00     0.217 C 
HETATM    3  N2  UNL     1      24.640   6.133  49.643  1.00  0.00    -0.146 NA
HETATM    4  N3  UNL     1      23.910   5.773  48.539  1.00  0.00    -0.301 N 
HETATM    5  C2  UNL     1      22.779   5.342  47.673  1.00  0.00     0.138 C 
HETATM    6  C3  UNL     1      21.619   6.107  48.405  1.00  0.00     0.066 C 
HETATM    7  C4  UNL     1      21.006   4.922  49.184  1.00  0.00    -0.071 C 
HETATM    8  C5  UNL     1      20.693   4.038  48.200  1.00  0.00     0.012 C 
HETATM    9  C6  UNL     1      22.224   3.979  48.153  1.00  0.00    -0.034 C 
HETATM   10  C7  UNL     1      23.132   2.990  48.502  1.00  0.00     0.010 C 
HETATM   11  C8  UNL     1      23.313   2.606  49.994  1.00  0.00     0.010 C 
HETATM   12  C9  UNL     1      23.247   3.498  51.071  1.00  0.00    -0.029 C 
HETATM   13  C17 UNL     1      22.499   4.751  51.046  1.00  0.00     0.048 C 
HETATM   14  N4  UNL     1      23.062   5.823  50.989  1.00  0.00    -0.221 NA
HETATM   15  C18 UNL     1      21.041   5.094  50.745  1.00  0.00     0.094 C 
HETATM   16  H1  UNL     1      25.141   6.826  52.741  1.00  0.00     0.127 HD
HETATM   17  H2  UNL     1      25.140   6.823  52.724  1.00  0.00     0.127 HD
HETATM   18  H3  UNL     1      24.818   5.939  48.050  1.00  0.00     0.183 HD
ENDROOT
BRANCH  12  19
HETATM   19  C10 UNL     1      24.052   3.173  52.215  1.00  0.00     0.079 C 
BRANCH  19  20
HETATM   20  C11 UNL     1      23.601   1.859  52.760  1.00  0.00    -0.054 A 
HETATM   21  C12 UNL     1      22.222   1.727  52.999  1.00  0.00     0.009 A 
HETATM   22  C13 UNL     1      21.618   0.604  53.490  1.00  0.00     0.024 A 
HETATM   23  C14 UNL     1      22.390  -0.488  53.779  1.00  0.00     0.034 A 
HETATM   24 CL1  UNL     1      21.695  -1.948  54.405  1.00  0.00    -0.084 Cl
HETATM   25  C15 UNL     1      23.738  -0.395  53.559  1.00  0.00     0.024 A 
HETATM   26  C16 UNL     1      24.343   0.739  53.063  1.00  0.00     0.009 A 
ENDBRANCH  19  20
ENDBRANCH  12  19
TORSDOF 2
ENDMDL
MODEL 9
REMARK VINA RESULT:      -7.3      2.879      4.002
REMARK  2 active torsions:
REMARK  status: ('A' for Active; 'I' for Inactive)
REMARK       I    between atoms: N1_1  and  C1_2 
REMARK    1  A    between atoms: C9_12  and  C10_13 
REMARK    2  A    between atoms: C10_13  and  C11_14 
ROOT
HETATM    1  N1  UNL     1      23.315  -0.207  53.011  1.00  0.00    -0.269 NA
HETATM    2  C1  UNL     1      21.942   0.082  53.157  1.00  0.00     0.217 C 
HETATM    3  N2  UNL     1      20.696   0.296  53.507  1.00  0.00    -0.146 NA
HETATM    4  N3  UNL     1      19.582   0.698  52.815  1.00  0.00    -0.301 N 
HETATM    5  C2  UNL     1      18.689   1.129  51.705  1.00  0.00     0.138 C 
HETATM    6  C3  UNL     1      19.297   0.246  50.557  1.00  0.00     0.066 C 
HETATM    7  C4  UNL     1      20.125   1.332  49.835  1.00  0.00    -0.071 C 
HETATM    8  C5  UNL     1      19.193   2.270  49.520  1.00  0.00     0.012 C 
HETATM    9  C6  UNL     1      19.235   2.419  51.045  1.00  0.00    -0.034 C 
HETATM   10  C7  UNL     1      19.705   3.428  51.873  1.00  0.00     0.010 C 
HETATM   11  C8  UNL     1      21.228   3.707  51.954  1.00  0.00     0.010 C 
HETATM   12  C9  UNL     1      22.233   2.733  51.887  1.00  0.00    -0.029 C 
HETATM   13  C17 UNL     1      22.075   1.445  51.218  1.00  0.00     0.048 C 
HETATM   14  N4  UNL     1      21.971   0.414  51.847  1.00  0.00    -0.221 NA
HETATM   15  C18 UNL     1      21.670   1.044  49.801  1.00  0.00     0.094 C 
HETATM   16  H1  UNL     1      23.758  -0.601  53.890  1.00  0.00     0.127 HD
HETATM   17  H2  UNL     1      23.742  -0.597  53.890  1.00  0.00     0.127 HD
HETATM   18  H3  UNL     1      19.133   0.621  53.755  1.00  0.00     0.183 HD
ENDROOT
BRANCH  12  19
HETATM   19  C10 UNL     1      23.440   3.014  52.612  1.00  0.00     0.079 C 
BRANCH  19  20
HETATM   20  C11 UNL     1      24.530   3.298  51.633  1.00  0.00    -0.054 A 
HETATM   21  C12 UNL     1      24.466   4.539  50.975  1.00  0.00     0.009 A 
HETATM   22  C13 UNL     1      25.370   4.982  50.051  1.00  0.00     0.024 A 
HETATM   23  C14 UNL     1      26.426   4.175  49.723  1.00  0.00     0.034 A 
HETATM   24 CL1  UNL     1      27.614   4.669  48.560  1.00  0.00    -0.084 Cl
HETATM   25  C15 UNL     1      26.521   2.959  50.344  1.00  0.00     0.024 A 
HETATM   26  C16 UNL     1      25.607   2.517  51.275  1.00  0.00     0.009 A 
ENDBRANCH  19  20
ENDBRANCH  12  19
TORSDOF 2
ENDMDL
