MODEL 1
REMARK VINA RESULT:      -8.9      0.000      0.000
REMARK  4 active torsions:
REMARK  status: ('A' for Active; 'I' for Inactive)
REMARK    1  A    between atoms: C6_7  and  C7_8 
REMARK    2  A    between atoms: C7_8  and  C8_9 
REMARK    3  A    between atoms: C9_10  and  C10_11 
REMARK    4  A    between atoms: C10_11  and  N1_12 
ROOT
HETATM    1  C10 UNL     1      26.106  -0.408  53.387  1.00  0.00     0.263 C 
HETATM    2  N2  UNL     1      26.627  -1.708  53.019  1.00  0.00    -0.220 NA
HETATM    3  C16 UNL     1      27.698  -2.355  52.805  1.00  0.00     0.232 C 
HETATM    4  N3  UNL     1      29.070  -1.963  52.857  1.00  0.00    -0.254 NA
HETATM    5  C17 UNL     1      29.719  -1.057  53.535  1.00  0.00     0.120 C 
HETATM    6  C18 UNL     1      29.277  -0.081  54.524  1.00  0.00     0.043 C 
HETATM    7  C19 UNL     1      28.110   0.416  54.894  1.00  0.00     0.141 C 
HETATM    8  O2  UNL     1      26.828   0.181  54.462  1.00  0.00    -0.308 OA
ENDROOT
BRANCH   1   9
HETATM    9  C9  UNL     1      26.075   0.487  52.208  1.00  0.00     0.056 C 
HETATM   10  C8  UNL     1      26.321   1.769  52.058  1.00  0.00    -0.023 C 
BRANCH  10  11
HETATM   11  C7  UNL     1      26.238   2.516  50.776  1.00  0.00     0.034 C 
BRANCH  11  12
HETATM   12  C6  UNL     1      25.307   3.683  50.834  1.00  0.00     0.018 C 
HETATM   13  C2  UNL     1      24.177   3.364  51.772  1.00  0.00     0.121 C 
HETATM   14  C1  UNL     1      23.657   4.625  52.427  1.00  0.00     0.040 C 
HETATM   15  O1  UNL     1      23.180   2.599  51.195  1.00  0.00    -0.386 OA
HETATM   16  C3  UNL     1      22.748   3.050  49.978  1.00  0.00     0.168 C 
HETATM   17  C4  UNL     1      23.881   3.053  48.968  1.00  0.00     0.027 C 
HETATM   18  C5  UNL     1      24.869   4.104  49.475  1.00  0.00     0.009 C 
ENDBRANCH  11  12
ENDBRANCH  10  11
ENDBRANCH   1   9
BRANCH   1  19
HETATM   19  N1  UNL     1      24.763  -0.640  53.882  1.00  0.00    -0.331 N 
HETATM   20  C11 UNL     1      23.719  -0.299  52.990  1.00  0.00     0.118 A 
HETATM   21  C12 UNL     1      22.461  -0.486  53.380  1.00  0.00     0.087 A 
HETATM   22 CL1  UNL     1      21.139  -0.077  52.305  1.00  0.00    -0.080 Cl
HETATM   23  C13 UNL     1      22.179  -1.030  54.701  1.00  0.00     0.137 A 
HETATM   24  F1  UNL     1      20.875  -1.205  55.061  1.00  0.00    -0.205 F 
HETATM   25  C14 UNL     1      23.149  -1.349  55.539  1.00  0.00     0.037 A 
HETATM   26  C15 UNL     1      24.584  -1.179  55.200  1.00  0.00     0.158 A 
ENDBRANCH   1  19
TORSDOF 4
ENDMDL
MODEL 2
REMARK VINA RESULT:      -8.8      2.403      5.755
REMARK  4 active torsions:
REMARK  status: ('A' for Active; 'I' for Inactive)
REMARK    1  A    between atoms: C6_7  and  C7_8 
REMARK    2  A    between atoms: C7_8  and  C8_9 
REMARK    3  A    between atoms: C9_10  and  C10_11 
REMARK    4  A    between atoms: C10_11  and  N1_12 
ROOT
HETATM    1  C10 UNL     1      23.107   1.986  51.532  1.00  0.00     0.263 C 
HETATM    2  N2  UNL     1      23.042   3.233  52.265  1.00  0.00    -0.220 NA
HETATM    3  C16 UNL     1      23.357   4.462  52.218  1.00  0.00     0.232 C 
HETATM    4  N3  UNL     1      24.031   5.231  51.223  1.00  0.00    -0.254 NA
HETATM    5  C17 UNL     1      24.137   5.125  49.927  1.00  0.00     0.120 C 
HETATM    6  C18 UNL     1      23.592   4.158  48.982  1.00  0.00     0.043 C 
HETATM    7  C19 UNL     1      23.047   2.958  49.080  1.00  0.00     0.141 C 
HETATM    8  O2  UNL     1      22.784   2.148  50.156  1.00  0.00    -0.308 OA
ENDROOT
BRANCH   1   9
HETATM    9  C9  UNL     1      24.438   1.359  51.700  1.00  0.00     0.056 C 
HETATM   10  C8  UNL     1      25.650   1.857  51.791  1.00  0.00    -0.023 C 
BRANCH  10  11
HETATM   11  C7  UNL     1      26.895   1.062  51.959  1.00  0.00     0.034 C 
BRANCH  11  12
HETATM   12  C6  UNL     1      26.756  -0.044  52.953  1.00  0.00     0.018 C 
HETATM   13  C2  UNL     1      26.495   0.545  54.311  1.00  0.00     0.121 C 
HETATM   14  C1  UNL     1      25.661  -0.399  55.150  1.00  0.00     0.040 C 
HETATM   15  O1  UNL     1      27.640   0.978  54.954  1.00  0.00    -0.386 OA
HETATM   16  C3  UNL     1      28.668   0.075  54.957  1.00  0.00     0.168 C 
HETATM   17  C4  UNL     1      29.107  -0.249  53.541  1.00  0.00     0.027 C 
HETATM   18  C5  UNL     1      27.918  -0.973  52.908  1.00  0.00     0.009 C 
ENDBRANCH  11  12
ENDBRANCH  10  11
ENDBRANCH   1   9
BRANCH   1  19
HETATM   19  N1  UNL     1      22.073   1.138  52.092  1.00  0.00    -0.331 N 
HETATM   20  C11 UNL     1      22.495   0.263  53.121  1.00  0.00     0.118 A 
HETATM   21  C12 UNL     1      21.598  -0.545  53.679  1.00  0.00     0.087 A 
HETATM   22 CL1  UNL     1      22.080  -1.643  54.956  1.00  0.00    -0.080 Cl
HETATM   23  C13 UNL     1      20.212  -0.518  53.231  1.00  0.00     0.137 A 
HETATM   24  F1  UNL     1      19.325  -1.362  53.831  1.00  0.00    -0.205 F 
HETATM   25  C14 UNL     1      19.812   0.296  52.271  1.00  0.00     0.037 A 
HETATM   26  C15 UNL     1      20.734   1.234  51.585  1.00  0.00     0.158 A 
ENDBRANCH   1  19
TORSDOF 4
ENDMDL
MODEL 3
REMARK VINA RESULT:      -8.4      4.285      7.671
REMARK  4 active torsions:
REMARK  status: ('A' for Active; 'I' for Inactive)
REMARK    1  A    between atoms: C6_7  and  C7_8 
REMARK    2  A    between atoms: C7_8  and  C8_9 
REMARK    3  A    between atoms: C9_10  and  C10_11 
REMARK    4  A    between atoms: C10_11  and  N1_12 
ROOT
HETATM    1  C10 UNL     1      24.994   3.730  50.181  1.00  0.00     0.263 C 
HETATM    2  N2  UNL     1      24.027   3.142  49.278  1.00  0.00    -0.220 NA
HETATM    3  C16 UNL     1      22.981   2.425  49.228  1.00  0.00     0.232 C 
HETATM    4  N3  UNL     1      22.206   1.805  50.254  1.00  0.00    -0.254 NA
HETATM    5  C17 UNL     1      21.986   2.090  51.508  1.00  0.00     0.120 C 
HETATM    6  C18 UNL     1      22.459   3.178  52.355  1.00  0.00     0.043 C 
HETATM    7  C19 UNL     1      23.425   4.076  52.275  1.00  0.00     0.141 C 
HETATM    8  O2  UNL     1      24.380   4.323  51.320  1.00  0.00    -0.308 OA
ENDROOT
BRANCH   1   9
HETATM    9  C9  UNL     1      26.006   2.726  50.579  1.00  0.00     0.056 C 
HETATM   10  C8  UNL     1      25.963   1.695  51.394  1.00  0.00    -0.023 C 
BRANCH  10  11
HETATM   11  C7  UNL     1      27.097   0.778  51.679  1.00  0.00     0.034 C 
BRANCH  11  12
HETATM   12  C6  UNL     1      26.777  -0.249  52.715  1.00  0.00     0.018 C 
HETATM   13  C2  UNL     1      26.225   0.437  53.933  1.00  0.00     0.121 C 
HETATM   14  C1  UNL     1      25.254  -0.467  54.660  1.00  0.00     0.040 C 
HETATM   15  O1  UNL     1      27.202   0.964  54.759  1.00  0.00    -0.386 OA
HETATM   16  C3  UNL     1      28.225   0.104  55.052  1.00  0.00     0.168 C 
HETATM   17  C4  UNL     1      28.957  -0.316  53.791  1.00  0.00     0.027 C 
HETATM   18  C5  UNL     1      27.942  -1.133  52.991  1.00  0.00     0.009 C 
ENDBRANCH  11  12
ENDBRANCH  10  11
ENDBRANCH   1   9
BRANCH   1  19
HETATM   19  N1  UNL     1      25.617   4.816  49.450  1.00  0.00    -0.331 N 
HETATM   20  C11 UNL     1      26.987   4.634  49.143  1.00  0.00     0.118 A 
HETATM   21  C12 UNL     1      27.623   5.591  48.474  1.00  0.00     0.087 A 
HETATM   22 CL1  UNL     1      29.318   5.405  48.074  1.00  0.00    -0.080 Cl
HETATM   23  C13 UNL     1      26.912   6.797  48.071  1.00  0.00     0.137 A 
HETATM   24  F1  UNL     1      27.601   7.753  47.386  1.00  0.00    -0.205 F 
HETATM   25  C14 UNL     1      25.634   6.973  48.355  1.00  0.00     0.037 A 
HETATM   26  C15 UNL     1      24.836   5.966  49.097  1.00  0.00     0.158 A 
ENDBRANCH   1  19
TORSDOF 4
ENDMDL
MODEL 4
REMARK VINA RESULT:      -8.3      4.229      7.548
REMARK  4 active torsions:
REMARK  status: ('A' for Active; 'I' for Inactive)
REMARK    1  A    between atoms: C6_7  and  C7_8 
REMARK    2  A    between atoms: C7_8  and  C8_9 
REMARK    3  A    between atoms: C9_10  and  C10_11 
REMARK    4  A    between atoms: C10_11  and  N1_12 
ROOT
HETATM    1  C10 UNL     1      23.746   3.720  50.842  1.00  0.00     0.263 C 
HETATM    2  N2  UNL     1      23.239   2.689  49.960  1.00  0.00    -0.220 NA
HETATM    3  C16 UNL     1      22.397   1.742  49.874  1.00  0.00     0.232 C 
HETATM    4  N3  UNL     1      21.439   1.237  50.803  1.00  0.00    -0.254 NA
HETATM    5  C17 UNL     1      20.776   1.776  51.789  1.00  0.00     0.120 C 
HETATM    6  C18 UNL     1      20.761   3.131  52.326  1.00  0.00     0.043 C 
HETATM    7  C19 UNL     1      21.541   4.192  52.213  1.00  0.00     0.141 C 
HETATM    8  O2  UNL     1      22.704   4.413  51.519  1.00  0.00    -0.308 OA
ENDROOT
BRANCH   1   9
HETATM    9  C9  UNL     1      24.719   3.146  51.800  1.00  0.00     0.056 C 
HETATM   10  C8  UNL     1      24.586   2.324  52.816  1.00  0.00    -0.023 C 
BRANCH  10  11
HETATM   11  C7  UNL     1      25.694   1.846  53.684  1.00  0.00     0.034 C 
BRANCH  11  12
HETATM   12  C6  UNL     1      26.621   0.904  52.989  1.00  0.00     0.018 C 
HETATM   13  C2  UNL     1      26.604  -0.419  53.704  1.00  0.00     0.121 C 
HETATM   14  C1  UNL     1      26.879  -1.550  52.738  1.00  0.00     0.040 C 
HETATM   15  O1  UNL     1      27.414  -0.450  54.824  1.00  0.00    -0.386 OA
HETATM   16  C3  UNL     1      28.680   0.029  54.626  1.00  0.00     0.168 C 
HETATM   17  C4  UNL     1      28.647   1.486  54.203  1.00  0.00     0.027 C 
HETATM   18  C5  UNL     1      27.980   1.489  52.826  1.00  0.00     0.009 C 
ENDBRANCH  11  12
ENDBRANCH  10  11
ENDBRANCH   1   9
BRANCH   1  19
HETATM   19  N1  UNL     1      24.392   4.697  49.987  1.00  0.00    -0.331 N 
HETATM   20  C11 UNL     1      25.753   4.443  49.695  1.00  0.00     0.118 A 
HETATM   21  C12 UNL     1      26.408   5.300  48.917  1.00  0.00     0.087 A 
HETATM   22 CL1  UNL     1      28.094   5.022  48.531  1.00  0.00    -0.080 Cl
HETATM   23  C13 UNL     1      25.726   6.471  48.383  1.00  0.00     0.137 A 
HETATM   24  F1  UNL     1      26.434   7.323  47.588  1.00  0.00    -0.205 F 
HETATM   25  C14 UNL     1      24.455   6.713  48.652  1.00  0.00     0.037 A 
HETATM   26  C15 UNL     1      23.637   5.820  49.509  1.00  0.00     0.158 A 
ENDBRANCH   1  19
TORSDOF 4
ENDMDL
MODEL 5
REMARK VINA RESULT:      -8.1      4.184      7.497
REMARK  4 active torsions:
REMARK  status: ('A' for Active; 'I' for Inactive)
REMARK    1  A    between atoms: C6_7  and  C7_8 
REMARK    2  A    between atoms: C7_8  and  C8_9 
REMARK    3  A    between atoms: C9_10  and  C10_11 
REMARK    4  A    between atoms: C10_11  and  N1_12 
ROOT
HETATM    1  C10 UNL     1      24.974   3.465  50.353  1.00  0.00     0.263 C 
HETATM    2  N2  UNL     1      23.966   3.139  49.366  1.00  0.00    -0.220 NA
HETATM    3  C16 UNL     1      22.853   2.552  49.199  1.00  0.00     0.232 C 
HETATM    4  N3  UNL     1      22.004   1.851  50.108  1.00  0.00    -0.254 NA
HETATM    5  C17 UNL     1      21.796   1.942  51.392  1.00  0.00     0.120 C 
HETATM    6  C18 UNL     1      22.364   2.819  52.409  1.00  0.00     0.043 C 
HETATM    7  C19 UNL     1      23.417   3.614  52.479  1.00  0.00     0.141 C 
HETATM    8  O2  UNL     1      24.406   3.918  51.577  1.00  0.00    -0.308 OA
ENDROOT
BRANCH   1   9
HETATM    9  C9  UNL     1      25.873   2.310  50.574  1.00  0.00     0.056 C 
HETATM   10  C8  UNL     1      26.255   1.676  51.659  1.00  0.00    -0.023 C 
BRANCH  10  11
HETATM   11  C7  UNL     1      27.181   0.514  51.694  1.00  0.00     0.034 C 
BRANCH  11  12
HETATM   12  C6  UNL     1      26.900  -0.430  52.817  1.00  0.00     0.018 C 
HETATM   13  C2  UNL     1      26.383   0.348  53.995  1.00  0.00     0.121 C 
HETATM   14  C1  UNL     1      25.440  -0.499  54.821  1.00  0.00     0.040 C 
HETATM   15  O1  UNL     1      27.382   0.942  54.745  1.00  0.00    -0.386 OA
HETATM   16  C3  UNL     1      28.418   0.111  55.072  1.00  0.00     0.168 C 
HETATM   17  C4  UNL     1      29.113  -0.405  53.825  1.00  0.00     0.027 C 
HETATM   18  C5  UNL     1      28.077  -1.286  53.124  1.00  0.00     0.009 C 
ENDBRANCH  11  12
ENDBRANCH  10  11
ENDBRANCH   1   9
BRANCH   1  19
HETATM   19  N1  UNL     1      25.715   4.589  49.814  1.00  0.00    -0.331 N 
HETATM   20  C11 UNL     1      25.161   5.865  50.076  1.00  0.00     0.118 A 
HETATM   21  C12 UNL     1      25.790   6.940  49.610  1.00  0.00     0.087 A 
HETATM   22 CL1  UNL     1      25.138   8.537  49.913  1.00  0.00    -0.080 Cl
HETATM   23  C13 UNL     1      27.022   6.793  48.847  1.00  0.00     0.137 A 
HETATM   24  F1  UNL     1      27.634   7.922  48.388  1.00  0.00    -0.205 F 
HETATM   25  C14 UNL     1      27.543   5.605  48.598  1.00  0.00     0.037 A 
HETATM   26  C15 UNL     1      26.919   4.345  49.073  1.00  0.00     0.158 A 
ENDBRANCH   1  19
TORSDOF 4
ENDMDL
MODEL 6
REMARK VINA RESULT:      -7.8      3.338      6.437
REMARK  4 active torsions:
REMARK  status: ('A' for Active; 'I' for Inactive)
REMARK    1  A    between atoms: C6_7  and  C7_8 
REMARK    2  A    between atoms: C7_8  and  C8_9 
REMARK    3  A    between atoms: C9_10  and  C10_11 
REMARK    4  A    between atoms: C10_11  and  N1_12 
ROOT
HETATM    1  C10 UNL     1      22.142   3.177  51.298  1.00  0.00     0.263 C 
HETATM    2  N2  UNL     1      22.344   4.510  51.828  1.00  0.00    -0.220 NA
HETATM    3  C16 UNL     1      23.152   5.488  51.850  1.00  0.00     0.232 C 
HETATM    4  N3  UNL     1      24.426   5.681  51.234  1.00  0.00    -0.254 NA
HETATM    5  C17 UNL     1      24.977   5.212  50.149  1.00  0.00     0.120 C 
HETATM    6  C18 UNL     1      24.487   4.294  49.128  1.00  0.00     0.043 C 
HETATM    7  C19 UNL     1      23.485   3.437  49.041  1.00  0.00     0.141 C 
HETATM    8  O2  UNL     1      22.495   3.082  49.923  1.00  0.00    -0.308 OA
ENDROOT
BRANCH   1   9
HETATM    9  C9  UNL     1      22.879   2.183  52.110  1.00  0.00     0.056 C 
HETATM   10  C8  UNL     1      24.112   1.730  52.058  1.00  0.00    -0.023 C 
BRANCH  10  11
HETATM   11  C7  UNL     1      24.692   0.712  52.972  1.00  0.00     0.034 C 
BRANCH  11  12
HETATM   12  C6  UNL     1      25.952   0.103  52.449  1.00  0.00     0.018 C 
HETATM   13  C2  UNL     1      26.344  -1.049  53.332  1.00  0.00     0.121 C 
HETATM   14  C1  UNL     1      27.089  -2.100  52.537  1.00  0.00     0.040 C 
HETATM   15  O1  UNL     1      27.009  -0.662  54.481  1.00  0.00    -0.386 OA
HETATM   16  C3  UNL     1      28.034   0.222  54.276  1.00  0.00     0.168 C 
HETATM   17  C4  UNL     1      27.521   1.511  53.661  1.00  0.00     0.027 C 
HETATM   18  C5  UNL     1      27.022   1.122  52.269  1.00  0.00     0.009 C 
ENDBRANCH  11  12
ENDBRANCH  10  11
ENDBRANCH   1   9
BRANCH   1  19
HETATM   19  N1  UNL     1      20.715   2.930  51.366  1.00  0.00    -0.331 N 
HETATM   20  C11 UNL     1      20.343   1.587  51.616  1.00  0.00     0.118 A 
HETATM   21  C12 UNL     1      19.049   1.289  51.691  1.00  0.00     0.087 A 
HETATM   22 CL1  UNL     1      18.546  -0.361  51.999  1.00  0.00    -0.080 Cl
HETATM   23  C13 UNL     1      18.047   2.331  51.517  1.00  0.00     0.137 A 
HETATM   24  F1  UNL     1      16.732   1.982  51.602  1.00  0.00    -0.205 F 
HETATM   25  C14 UNL     1      18.388   3.586  51.284  1.00  0.00     0.037 A 
HETATM   26  C15 UNL     1      19.803   4.022  51.181  1.00  0.00     0.158 A 
ENDBRANCH   1  19
TORSDOF 4
ENDMDL
MODEL 7
REMARK VINA RESULT:      -7.8      3.735      6.374
REMARK  4 active torsions:
REMARK  status: ('A' for Active; 'I' for Inactive)
REMARK    1  A    between atoms: C6_7  and  C7_8 
REMARK    2  A    between atoms: C7_8  and  C8_9 
REMARK    3  A    between atoms: C9_10  and  C10_11 
REMARK    4  A    between atoms: C10_11  and  N1_12 
ROOT
HETATM    1  C10 UNL     1      24.599   3.176  50.838  1.00  0.00     0.263 C 
HETATM    2  N2  UNL     1      23.933   3.985  51.836  1.00  0.00    -0.220 NA
HETATM    3  C16 UNL     1      23.089   4.921  51.996  1.00  0.00     0.232 C 
HETATM    4  N3  UNL     1      22.326   5.680  51.058  1.00  0.00    -0.254 NA
HETATM    5  C17 UNL     1      21.864   5.428  49.864  1.00  0.00     0.120 C 
HETATM    6  C18 UNL     1      21.953   4.245  49.017  1.00  0.00     0.043 C 
HETATM    7  C19 UNL     1      22.698   3.153  49.007  1.00  0.00     0.141 C 
HETATM    8  O2  UNL     1      23.707   2.716  49.830  1.00  0.00    -0.308 OA
ENDROOT
BRANCH   1   9
HETATM    9  C9  UNL     1      25.737   3.918  50.249  1.00  0.00     0.056 C 
HETATM   10  C8  UNL     1      25.814   4.808  49.285  1.00  0.00    -0.023 C 
BRANCH  10  11
HETATM   11  C7  UNL     1      27.065   5.460  48.816  1.00  0.00     0.034 C 
BRANCH  11  12
HETATM   12  C6  UNL     1      26.822   6.737  48.081  1.00  0.00     0.018 C 
HETATM   13  C2  UNL     1      28.142   7.396  47.789  1.00  0.00     0.121 C 
HETATM   14  C1  UNL     1      28.063   8.207  46.515  1.00  0.00     0.040 C 
HETATM   15  O1  UNL     1      28.650   8.110  48.859  1.00  0.00    -0.386 OA
HETATM   16  C3  UNL     1      27.755   8.956  49.455  1.00  0.00     0.168 C 
HETATM   17  C4  UNL     1      26.574   8.187  50.018  1.00  0.00     0.027 C 
HETATM   18  C5  UNL     1      25.853   7.610  48.798  1.00  0.00     0.009 C 
ENDBRANCH  11  12
ENDBRANCH  10  11
ENDBRANCH   1   9
BRANCH   1  19
HETATM   19  N1  UNL     1      25.070   1.992  51.530  1.00  0.00    -0.331 N 
HETATM   20  C11 UNL     1      24.092   1.299  52.283  1.00  0.00     0.118 A 
HETATM   21  C12 UNL     1      24.456   0.204  52.944  1.00  0.00     0.087 A 
HETATM   22 CL1  UNL     1      23.276  -0.683  53.888  1.00  0.00    -0.080 Cl
HETATM   23  C13 UNL     1      25.834  -0.262  52.885  1.00  0.00     0.137 A 
HETATM   24  F1  UNL     1      26.164  -1.390  53.577  1.00  0.00    -0.205 F 
HETATM   25  C14 UNL     1      26.752   0.380  52.184  1.00  0.00     0.037 A 
HETATM   26  C15 UNL     1      26.448   1.611  51.412  1.00  0.00     0.158 A 
ENDBRANCH   1  19
TORSDOF 4
ENDMDL
MODEL 8
REMARK VINA RESULT:      -7.7      7.992     10.332
REMARK  4 active torsions:
REMARK  status: ('A' for Active; 'I' for Inactive)
REMARK    1  A    between atoms: C6_7  and  C7_8 
REMARK    2  A    between atoms: C7_8  and  C8_9 
REMARK    3  A    between atoms: C9_10  and  C10_11 
REMARK    4  A    between atoms: C10_11  and  N1_12 
ROOT
HETATM    1  C10 UNL     1      30.929   6.632  47.934  1.00  0.00     0.263 C 
HETATM    2  N2  UNL     1      30.845   7.200  46.605  1.00  0.00    -0.220 NA
HETATM    3  C16 UNL     1      30.382   8.177  45.940  1.00  0.00     0.232 C 
HETATM    4  N3  UNL     1      29.614   9.313  46.334  1.00  0.00    -0.254 NA
HETATM    5  C17 UNL     1      29.515   9.987  47.447  1.00  0.00     0.120 C 
HETATM    6  C18 UNL     1      30.170   9.831  48.739  1.00  0.00     0.043 C 
HETATM    7  C19 UNL     1      30.858   8.870  49.331  1.00  0.00     0.141 C 
HETATM    8  O2  UNL     1      31.224   7.611  48.924  1.00  0.00    -0.308 OA
ENDROOT
BRANCH   1   9
HETATM    9  C9  UNL     1      29.686   5.896  48.260  1.00  0.00     0.056 C 
HETATM   10  C8  UNL     1      28.423   6.257  48.296  1.00  0.00    -0.023 C 
BRANCH  10  11
HETATM   11  C7  UNL     1      27.286   5.369  48.652  1.00  0.00     0.034 C 
BRANCH  11  12
HETATM   12  C6  UNL     1      25.953   6.019  48.469  1.00  0.00     0.018 C 
HETATM   13  C2  UNL     1      25.981   7.385  49.095  1.00  0.00     0.121 C 
HETATM   14  C1  UNL     1      25.043   8.324  48.369  1.00  0.00     0.040 C 
HETATM   15  O1  UNL     1      25.784   7.369  50.463  1.00  0.00    -0.386 OA
HETATM   16  C3  UNL     1      24.717   6.618  50.876  1.00  0.00     0.168 C 
HETATM   17  C4  UNL     1      24.895   5.163  50.484  1.00  0.00     0.027 C 
HETATM   18  C5  UNL     1      24.847   5.150  48.956  1.00  0.00     0.009 C 
ENDBRANCH  11  12
ENDBRANCH  10  11
ENDBRANCH   1   9
BRANCH   1  19
HETATM   19  N1  UNL     1      32.062   5.727  47.913  1.00  0.00    -0.331 N 
HETATM   20  C11 UNL     1      31.785   4.417  47.454  1.00  0.00     0.118 A 
HETATM   21  C12 UNL     1      32.780   3.535  47.409  1.00  0.00     0.087 A 
HETATM   22 CL1  UNL     1      32.479   1.903  46.848  1.00  0.00    -0.080 Cl
HETATM   23  C13 UNL     1      34.120   3.922  47.826  1.00  0.00     0.137 A 
HETATM   24  F1  UNL     1      35.110   2.986  47.763  1.00  0.00    -0.205 F 
HETATM   25  C14 UNL     1      34.385   5.143  48.255  1.00  0.00     0.037 A 
HETATM   26  C15 UNL     1      33.347   6.200  48.344  1.00  0.00     0.158 A 
ENDBRANCH   1  19
TORSDOF 4
ENDMDL
MODEL 9
REMARK VINA RESULT:      -7.7      3.541      5.860
REMARK  4 active torsions:
REMARK  status: ('A' for Active; 'I' for Inactive)
REMARK    1  A    between atoms: C6_7  and  C7_8 
REMARK    2  A    between atoms: C7_8  and  C8_9 
REMARK    3  A    between atoms: C9_10  and  C10_11 
REMARK    4  A    between atoms: C10_11  and  N1_12 
ROOT
HETATM    1  C10 UNL     1      24.863   2.128  52.060  1.00  0.00     0.263 C 
HETATM    2  N2  UNL     1      25.349   2.671  50.809  1.00  0.00    -0.220 NA
HETATM    3  C16 UNL     1      25.139   3.567  49.935  1.00  0.00     0.232 C 
HETATM    4  N3  UNL     1      24.141   4.583  49.839  1.00  0.00    -0.254 NA
HETATM    5  C17 UNL     1      23.443   5.241  50.724  1.00  0.00     0.120 C 
HETATM    6  C18 UNL     1      23.421   5.188  52.180  1.00  0.00     0.043 C 
HETATM    7  C19 UNL     1      23.860   4.339  53.094  1.00  0.00     0.141 C 
HETATM    8  O2  UNL     1      24.528   3.144  52.998  1.00  0.00    -0.308 OA
ENDROOT
BRANCH   1   9
HETATM    9  C9  UNL     1      23.717   1.222  51.819  1.00  0.00     0.056 C 
HETATM   10  C8  UNL     1      22.497   1.431  51.376  1.00  0.00    -0.023 C 
BRANCH  10  11
HETATM   11  C7  UNL     1      21.459   0.383  51.193  1.00  0.00     0.034 C 
BRANCH  11  12
HETATM   12  C6  UNL     1      20.385   0.433  52.230  1.00  0.00     0.018 C 
HETATM   13  C2  UNL     1      19.098  -0.056  51.629  1.00  0.00     0.121 C 
HETATM   14  C1  UNL     1      18.230  -0.708  52.683  1.00  0.00     0.040 C 
HETATM   15  O1  UNL     1      18.431   0.908  50.895  1.00  0.00    -0.386 OA
HETATM   16  C3  UNL     1      18.297   2.114  51.527  1.00  0.00     0.168 C 
HETATM   17  C4  UNL     1      19.655   2.718  51.834  1.00  0.00     0.027 C 
HETATM   18  C5  UNL     1      20.290   1.778  52.859  1.00  0.00     0.009 C 
ENDBRANCH  11  12
ENDBRANCH  10  11
ENDBRANCH   1   9
BRANCH   1  19
HETATM   19  N1  UNL     1      25.974   1.396  52.639  1.00  0.00    -0.331 N 
HETATM   20  C11 UNL     1      26.016   0.015  52.333  1.00  0.00     0.118 A 
HETATM   21  C12 UNL     1      27.008  -0.717  52.832  1.00  0.00     0.087 A 
HETATM   22 CL1  UNL     1      27.097  -2.431  52.478  1.00  0.00    -0.080 Cl
HETATM   23  C13 UNL     1      28.023  -0.098  53.672  1.00  0.00     0.137 A 
HETATM   24  F1  UNL     1      29.023  -0.885  54.162  1.00  0.00    -0.205 F 
HETATM   25  C14 UNL     1      27.989   1.191  53.961  1.00  0.00     0.037 A 
HETATM   26  C15 UNL     1      26.925   2.093  53.455  1.00  0.00     0.158 A 
ENDBRANCH   1  19
TORSDOF 4
ENDMDL
