MODEL 1
REMARK VINA RESULT:      -8.5      0.000      0.000
REMARK  0 active torsions:
REMARK  status: ('A' for Active; 'I' for Inactive)
ROOT
HETATM    1  C1  UNL     1      22.487   4.873  52.082  1.00  0.00     0.049 C 
HETATM    2  C2  UNL     1      21.923   3.557  51.663  1.00  0.00    -0.055 A 
HETATM    3  C3  UNL     1      20.843   3.519  50.771  1.00  0.00     0.007 A 
HETATM    4  C4  UNL     1      20.369   2.270  50.426  1.00  0.00     0.001 A 
HETATM    5  C5  UNL     1      20.962   1.145  50.958  1.00  0.00     0.008 A 
HETATM    6  C6  UNL     1      22.041   1.225  51.847  1.00  0.00    -0.048 A 
HETATM    7  C7  UNL     1      22.541   2.453  52.216  1.00  0.00    -0.040 A 
HETATM    8  C8  UNL     1      23.666   2.562  53.144  1.00  0.00     0.096 C 
HETATM    9  C9  UNL     1      24.988   2.238  52.560  1.00  0.00     0.010 C 
HETATM   10  C10 UNL     1      25.950   2.149  53.500  1.00  0.00     0.036 C 
HETATM   11  C11 UNL     1      26.285   0.784  53.090  1.00  0.00    -0.005 C 
HETATM   12  C12 UNL     1      26.213  -0.475  53.568  1.00  0.00     0.083 C 
HETATM   13 BR1  UNL     1      26.843  -1.974  52.527  1.00  0.00    -0.031 Br
HETATM   14  N1  UNL     1      25.668  -0.815  54.864  1.00  0.00    -0.383 N 
HETATM   15  C13 UNL     1      24.499  -1.176  55.633  1.00  0.00     0.071 C 
HETATM   16  C14 UNL     1      23.576  -0.904  54.680  1.00  0.00     0.092 C 
HETATM   17  C15 UNL     1      22.093  -1.035  54.741  1.00  0.00    -0.023 C 
HETATM   18  C16 UNL     1      21.769  -0.614  53.493  1.00  0.00    -0.026 C 
HETATM   19  C17 UNL     1      22.491  -0.122  52.268  1.00  0.00     0.066 C 
HETATM   20  C18 UNL     1      26.824   1.185  51.761  1.00  0.00     0.161 C 
HETATM   21  N2  UNL     1      25.660   1.971  51.309  1.00  0.00    -0.389 N 
HETATM   22  H10 UNL     1      26.689  -0.678  55.137  1.00  0.00     0.160 HD
HETATM   23  H19 UNL     1      25.191   2.372  50.446  1.00  0.00     0.159 HD
ENDROOT
TORSDOF 0
ENDMDL
MODEL 2
REMARK VINA RESULT:      -8.3      2.775      5.232
REMARK  0 active torsions:
REMARK  status: ('A' for Active; 'I' for Inactive)
ROOT
HETATM    1  C1  UNL     1      25.526  -0.497  54.107  1.00  0.00     0.049 C 
HETATM    2  C2  UNL     1      24.039  -0.418  54.016  1.00  0.00    -0.055 A 
HETATM    3  C3  UNL     1      23.251  -1.138  54.925  1.00  0.00     0.007 A 
HETATM    4  C4  UNL     1      21.883  -1.022  54.784  1.00  0.00     0.001 A 
HETATM    5  C5  UNL     1      21.365  -0.226  53.785  1.00  0.00     0.008 A 
HETATM    6  C6  UNL     1      22.187   0.478  52.897  1.00  0.00    -0.048 A 
HETATM    7  C7  UNL     1      23.556   0.387  53.005  1.00  0.00    -0.040 A 
HETATM    8  C8  UNL     1      24.434   1.112  52.088  1.00  0.00     0.096 C 
HETATM    9  C9  UNL     1      24.545   2.566  52.351  1.00  0.00     0.010 C 
HETATM   10  C10 UNL     1      25.190   3.213  51.360  1.00  0.00     0.036 C 
HETATM   11  C11 UNL     1      24.054   4.112  51.148  1.00  0.00    -0.005 C 
HETATM   12  C12 UNL     1      23.119   4.375  50.213  1.00  0.00     0.083 C 
HETATM   13 BR1  UNL     1      21.793   5.752  50.490  1.00  0.00    -0.031 Br
HETATM   14  N1  UNL     1      23.015   3.670  48.955  1.00  0.00    -0.383 N 
HETATM   15  C13 UNL     1      22.455   2.552  48.231  1.00  0.00     0.071 C 
HETATM   16  C14 UNL     1      21.976   1.877  49.303  1.00  0.00     0.092 C 
HETATM   17  C15 UNL     1      21.244   0.580  49.350  1.00  0.00    -0.023 C 
HETATM   18  C16 UNL     1      21.054   0.465  50.688  1.00  0.00    -0.026 C 
HETATM   19  C17 UNL     1      21.384   1.256  51.925  1.00  0.00     0.066 C 
HETATM   20  C18 UNL     1      24.195   4.798  52.461  1.00  0.00     0.161 C 
HETATM   21  N2  UNL     1      24.207   3.591  53.310  1.00  0.00    -0.389 N 
HETATM   22  H10 UNL     1      23.661   4.464  48.655  1.00  0.00     0.160 HD
HETATM   23  H19 UNL     1      24.062   3.253  54.305  1.00  0.00     0.159 HD
ENDROOT
TORSDOF 0
ENDMDL
MODEL 3
REMARK VINA RESULT:      -8.3      3.057      5.627
REMARK  0 active torsions:
REMARK  status: ('A' for Active; 'I' for Inactive)
ROOT
HETATM    1  C1  UNL     1      26.328   0.639  53.023  1.00  0.00     0.049 C 
HETATM    2  C2  UNL     1      24.857   0.391  53.054  1.00  0.00    -0.055 A 
HETATM    3  C3  UNL     1      24.329  -0.522  53.978  1.00  0.00     0.007 A 
HETATM    4  C4  UNL     1      22.961  -0.705  53.953  1.00  0.00     0.001 A 
HETATM    5  C5  UNL     1      22.195  -0.001  53.048  1.00  0.00     0.008 A 
HETATM    6  C6  UNL     1      22.762   0.903  52.141  1.00  0.00    -0.048 A 
HETATM    7  C7  UNL     1      24.123   1.112  52.135  1.00  0.00    -0.040 A 
HETATM    8  C8  UNL     1      24.737   2.050  51.197  1.00  0.00     0.096 C 
HETATM    9  C9  UNL     1      24.555   3.480  51.537  1.00  0.00     0.010 C 
HETATM   10  C10 UNL     1      24.952   4.294  50.539  1.00  0.00     0.036 C 
HETATM   11  C11 UNL     1      23.635   4.928  50.472  1.00  0.00    -0.005 C 
HETATM   12  C12 UNL     1      22.584   5.018  49.632  1.00  0.00     0.083 C 
HETATM   13 BR1  UNL     1      21.023   6.055  50.095  1.00  0.00    -0.031 Br
HETATM   14  N1  UNL     1      22.522   4.360  48.345  1.00  0.00    -0.383 N 
HETATM   15  C13 UNL     1      22.154   3.177  47.602  1.00  0.00     0.071 C 
HETATM   16  C14 UNL     1      21.931   2.369  48.666  1.00  0.00     0.092 C 
HETATM   17  C15 UNL     1      21.503   0.941  48.692  1.00  0.00    -0.023 C 
HETATM   18  C16 UNL     1      21.464   0.732  50.032  1.00  0.00    -0.026 C 
HETATM   19  C17 UNL     1      21.726   1.525  51.284  1.00  0.00     0.066 C 
HETATM   20  C18 UNL     1      23.742   5.574  51.809  1.00  0.00     0.161 C 
HETATM   21  N2  UNL     1      24.091   4.365  52.580  1.00  0.00    -0.389 N 
HETATM   22  H10 UNL     1      22.952   5.288  48.044  1.00  0.00     0.160 HD
HETATM   23  H19 UNL     1      24.113   3.962  53.562  1.00  0.00     0.159 HD
ENDROOT
TORSDOF 0
ENDMDL
MODEL 4
REMARK VINA RESULT:      -7.4      2.645      4.514
REMARK  0 active torsions:
REMARK  status: ('A' for Active; 'I' for Inactive)
ROOT
HETATM    1  C1  UNL     1      22.520   3.941  47.793  1.00  0.00     0.049 C 
HETATM    2  C2  UNL     1      22.883   4.516  49.120  1.00  0.00    -0.055 A 
HETATM    3  C3  UNL     1      23.098   5.896  49.241  1.00  0.00     0.007 A 
HETATM    4  C4  UNL     1      23.432   6.362  50.496  1.00  0.00     0.001 A 
HETATM    5  C5  UNL     1      23.536   5.476  51.548  1.00  0.00     0.008 A 
HETATM    6  C6  UNL     1      23.313   4.103  51.386  1.00  0.00    -0.048 A 
HETATM    7  C7  UNL     1      22.979   3.600  50.148  1.00  0.00    -0.040 A 
HETATM    8  C8  UNL     1      22.742   2.170  49.954  1.00  0.00     0.096 C 
HETATM    9  C9  UNL     1      21.442   1.679  50.467  1.00  0.00     0.010 C 
HETATM   10  C10 UNL     1      21.367   0.334  50.454  1.00  0.00     0.036 C 
HETATM   11  C11 UNL     1      21.084   0.292  51.889  1.00  0.00    -0.005 C 
HETATM   12  C12 UNL     1      21.664  -0.118  53.035  1.00  0.00     0.083 C 
HETATM   13 BR1  UNL     1      20.773   0.093  54.735  1.00  0.00    -0.031 Br
HETATM   14  N1  UNL     1      22.973  -0.729  53.103  1.00  0.00    -0.383 N 
HETATM   15  C13 UNL     1      24.399  -0.536  53.240  1.00  0.00     0.071 C 
HETATM   16  C14 UNL     1      24.406   0.808  53.079  1.00  0.00     0.092 C 
HETATM   17  C15 UNL     1      25.558   1.754  53.094  1.00  0.00    -0.023 C 
HETATM   18  C16 UNL     1      24.905   2.923  52.880  1.00  0.00    -0.026 C 
HETATM   19  C17 UNL     1      23.487   3.376  52.664  1.00  0.00     0.066 C 
HETATM   20  C18 UNL     1      19.747   0.937  51.769  1.00  0.00     0.161 C 
HETATM   21  N2  UNL     1      20.173   2.120  50.997  1.00  0.00    -0.389 N 
HETATM   22  H10 UNL     1      22.379  -1.607  52.990  1.00  0.00     0.160 HD
HETATM   23  H19 UNL     1      19.883   3.104  50.724  1.00  0.00     0.159 HD
ENDROOT
TORSDOF 0
ENDMDL
MODEL 5
REMARK VINA RESULT:      -7.3      1.946      2.709
REMARK  0 active torsions:
REMARK  status: ('A' for Active; 'I' for Inactive)
ROOT
HETATM    1  C1  UNL     1      22.808   6.396  50.574  1.00  0.00     0.049 C 
HETATM    2  C2  UNL     1      22.644   5.216  49.676  1.00  0.00    -0.055 A 
HETATM    3  C3  UNL     1      22.393   5.415  48.311  1.00  0.00     0.007 A 
HETATM    4  C4  UNL     1      22.251   4.282  47.537  1.00  0.00     0.001 A 
HETATM    5  C5  UNL     1      22.361   3.038  48.122  1.00  0.00     0.008 A 
HETATM    6  C6  UNL     1      22.613   2.882  49.490  1.00  0.00    -0.048 A 
HETATM    7  C7  UNL     1      22.760   3.989  50.295  1.00  0.00    -0.040 A 
HETATM    8  C8  UNL     1      23.023   3.850  51.727  1.00  0.00     0.096 C 
HETATM    9  C9  UNL     1      24.410   3.460  52.070  1.00  0.00     0.010 C 
HETATM   10  C10 UNL     1      24.540   3.143  53.374  1.00  0.00     0.036 C 
HETATM   11  C11 UNL     1      25.059   1.814  53.044  1.00  0.00    -0.005 C 
HETATM   12  C12 UNL     1      24.694   0.520  53.144  1.00  0.00     0.083 C 
HETATM   13 BR1  UNL     1      25.845  -0.892  52.502  1.00  0.00    -0.031 Br
HETATM   14  N1  UNL     1      23.442   0.077  53.716  1.00  0.00    -0.383 N 
HETATM   15  C13 UNL     1      22.052  -0.249  53.493  1.00  0.00     0.071 C 
HETATM   16  C14 UNL     1      21.960   0.245  52.236  1.00  0.00     0.092 C 
HETATM   17  C15 UNL     1      20.786   0.274  51.318  1.00  0.00    -0.023 C 
HETATM   18  C16 UNL     1      21.343   0.886  50.244  1.00  0.00    -0.026 C 
HETATM   19  C17 UNL     1      22.685   1.450  49.863  1.00  0.00     0.066 C 
HETATM   20  C18 UNL     1      26.327   2.322  52.453  1.00  0.00     0.161 C 
HETATM   21  N2  UNL     1      25.729   3.285  51.508  1.00  0.00    -0.389 N 
HETATM   22  H10 UNL     1      24.048   0.063  54.594  1.00  0.00     0.160 HD
HETATM   23  H19 UNL     1      25.927   3.844  50.628  1.00  0.00     0.159 HD
ENDROOT
TORSDOF 0
ENDMDL
MODEL 6
REMARK VINA RESULT:      -7.0      8.507     10.946
REMARK  0 active torsions:
REMARK  status: ('A' for Active; 'I' for Inactive)
ROOT
HETATM    1  C1  UNL     1      26.635   5.319  48.933  1.00  0.00     0.049 C 
HETATM    2  C2  UNL     1      26.940   6.768  49.116  1.00  0.00    -0.055 A 
HETATM    3  C3  UNL     1      26.067   7.570  49.866  1.00  0.00     0.007 A 
HETATM    4  C4  UNL     1      26.407   8.901  49.995  1.00  0.00     0.001 A 
HETATM    5  C5  UNL     1      27.558   9.372  49.398  1.00  0.00     0.008 A 
HETATM    6  C6  UNL     1      28.403   8.539  48.656  1.00  0.00    -0.048 A 
HETATM    7  C7  UNL     1      28.098   7.205  48.504  1.00  0.00    -0.040 A 
HETATM    8  C8  UNL     1      28.965   6.316  47.733  1.00  0.00     0.096 C 
HETATM    9  C9  UNL     1      30.214   5.915  48.420  1.00  0.00     0.010 C 
HETATM   10  C10 UNL     1      31.066   5.276  47.594  1.00  0.00     0.036 C 
HETATM   11  C11 UNL     1      32.127   6.247  47.866  1.00  0.00    -0.005 C 
HETATM   12  C12 UNL     1      32.815   7.215  47.229  1.00  0.00     0.083 C 
HETATM   13 BR1  UNL     1      34.182   8.231  48.139  1.00  0.00    -0.031 Br
HETATM   14  N1  UNL     1      32.599   7.582  45.846  1.00  0.00    -0.383 N 
HETATM   15  C13 UNL     1      31.878   8.412  44.908  1.00  0.00     0.071 C 
HETATM   16  C14 UNL     1      30.952   8.884  45.775  1.00  0.00     0.092 C 
HETATM   17  C15 UNL     1      29.826   9.830  45.528  1.00  0.00    -0.023 C 
HETATM   18  C16 UNL     1      29.292   9.890  46.773  1.00  0.00    -0.026 C 
HETATM   19  C17 UNL     1      29.565   9.289  48.125  1.00  0.00     0.066 C 
HETATM   20  C18 UNL     1      32.303   5.841  49.287  1.00  0.00     0.161 C 
HETATM   21  N2  UNL     1      30.890   5.955  49.697  1.00  0.00    -0.389 N 
HETATM   22  H10 UNL     1      33.353   6.840  45.711  1.00  0.00     0.160 HD
HETATM   23  H19 UNL     1      30.257   6.049  50.544  1.00  0.00     0.159 HD
ENDROOT
TORSDOF 0
ENDMDL
MODEL 7
REMARK VINA RESULT:      -6.7      7.716     10.290
REMARK  0 active torsions:
REMARK  status: ('A' for Active; 'I' for Inactive)
ROOT
HETATM    1  C1  UNL     1      24.489   6.698  50.669  1.00  0.00     0.049 C 
HETATM    2  C2  UNL     1      25.577   5.960  49.964  1.00  0.00    -0.055 A 
HETATM    3  C3  UNL     1      25.665   4.567  50.095  1.00  0.00     0.007 A 
HETATM    4  C4  UNL     1      26.696   3.947  49.418  1.00  0.00     0.001 A 
HETATM    5  C5  UNL     1      27.568   4.701  48.663  1.00  0.00     0.008 A 
HETATM    6  C6  UNL     1      27.445   6.092  48.557  1.00  0.00    -0.048 A 
HETATM    7  C7  UNL     1      26.431   6.747  49.219  1.00  0.00    -0.040 A 
HETATM    8  C8  UNL     1      26.283   8.199  49.124  1.00  0.00     0.096 C 
HETATM    9  C9  UNL     1      25.716   8.685  47.845  1.00  0.00     0.010 C 
HETATM   10  C10 UNL     1      25.798  10.025  47.729  1.00  0.00     0.036 C 
HETATM   11  C11 UNL     1      26.547   9.914  46.476  1.00  0.00    -0.005 C 
HETATM   12  C12 UNL     1      27.782  10.165  45.997  1.00  0.00     0.083 C 
HETATM   13 BR1  UNL     1      28.230   9.801  44.154  1.00  0.00    -0.031 Br
HETATM   14  N1  UNL     1      28.862  10.707  46.793  1.00  0.00    -0.383 N 
HETATM   15  C13 UNL     1      29.986  10.437  47.660  1.00  0.00     0.071 C 
HETATM   16  C14 UNL     1      29.737   9.121  47.858  1.00  0.00     0.092 C 
HETATM   17  C15 UNL     1      30.496   8.131  48.674  1.00  0.00    -0.023 C 
HETATM   18  C16 UNL     1      29.744   7.023  48.458  1.00  0.00    -0.026 C 
HETATM   19  C17 UNL     1      28.503   6.660  47.689  1.00  0.00     0.066 C 
HETATM   20  C18 UNL     1      25.409   9.347  45.703  1.00  0.00     0.161 C 
HETATM   21  N2  UNL     1      25.081   8.242  46.625  1.00  0.00    -0.389 N 
HETATM   22  H10 UNL     1      28.443  11.617  46.429  1.00  0.00     0.160 HD
HETATM   23  H19 UNL     1      24.579   7.309  46.686  1.00  0.00     0.159 HD
ENDROOT
TORSDOF 0
ENDMDL
MODEL 8
REMARK VINA RESULT:      -6.7     10.086     13.038
REMARK  0 active torsions:
REMARK  status: ('A' for Active; 'I' for Inactive)
ROOT
HETATM    1  C1  UNL     1      34.311   4.775  43.611  1.00  0.00     0.049 C 
HETATM    2  C2  UNL     1      34.212   4.599  45.089  1.00  0.00    -0.055 A 
HETATM    3  C3  UNL     1      35.049   3.678  45.735  1.00  0.00     0.007 A 
HETATM    4  C4  UNL     1      34.904   3.564  47.102  1.00  0.00     0.001 A 
HETATM    5  C5  UNL     1      33.969   4.338  47.757  1.00  0.00     0.008 A 
HETATM    6  C6  UNL     1      33.151   5.246  47.075  1.00  0.00    -0.048 A 
HETATM    7  C7  UNL     1      33.265   5.388  45.710  1.00  0.00    -0.040 A 
HETATM    8  C8  UNL     1      32.421   6.330  44.977  1.00  0.00     0.096 C 
HETATM    9  C9  UNL     1      32.803   7.753  45.122  1.00  0.00     0.010 C 
HETATM   10  C10 UNL     1      31.877   8.584  44.605  1.00  0.00     0.036 C 
HETATM   11  C11 UNL     1      31.727   9.283  45.882  1.00  0.00    -0.005 C 
HETATM   12  C12 UNL     1      30.808   9.456  46.853  1.00  0.00     0.083 C 
HETATM   13 BR1  UNL     1      31.184  10.550  48.399  1.00  0.00    -0.031 Br
HETATM   14  N1  UNL     1      29.494   8.850  46.836  1.00  0.00    -0.383 N 
HETATM   15  C13 UNL     1      28.676   7.715  47.195  1.00  0.00     0.071 C 
HETATM   16  C14 UNL     1      29.683   6.880  47.543  1.00  0.00     0.092 C 
HETATM   17  C15 UNL     1      29.615   5.475  48.036  1.00  0.00    -0.023 C 
HETATM   18  C16 UNL     1      30.937   5.218  48.197  1.00  0.00    -0.026 C 
HETATM   19  C17 UNL     1      32.238   5.949  48.006  1.00  0.00     0.066 C 
HETATM   20  C18 UNL     1      33.095   9.873  45.858  1.00  0.00     0.161 C 
HETATM   21  N2  UNL     1      33.841   8.620  45.631  1.00  0.00    -0.389 N 
HETATM   22  H10 UNL     1      29.268   9.767  46.341  1.00  0.00     0.160 HD
HETATM   23  H19 UNL     1      34.803   8.180  45.710  1.00  0.00     0.159 HD
ENDROOT
TORSDOF 0
ENDMDL
MODEL 9
REMARK VINA RESULT:      -6.6      8.592     10.805
REMARK  0 active torsions:
REMARK  status: ('A' for Active; 'I' for Inactive)
ROOT
HETATM    1  C1  UNL     1      26.746   4.875  49.242  1.00  0.00     0.049 C 
HETATM    2  C2  UNL     1      25.909   5.950  48.633  1.00  0.00    -0.055 A 
HETATM    3  C3  UNL     1      24.518   5.926  48.807  1.00  0.00     0.007 A 
HETATM    4  C4  UNL     1      23.804   6.948  48.217  1.00  0.00     0.001 A 
HETATM    5  C5  UNL     1      24.469   7.922  47.502  1.00  0.00     0.008 A 
HETATM    6  C6  UNL     1      25.861   7.910  47.352  1.00  0.00    -0.048 A 
HETATM    7  C7  UNL     1      26.609   6.906  47.925  1.00  0.00    -0.040 A 
HETATM    8  C8  UNL     1      28.063   6.872  47.781  1.00  0.00     0.096 C 
HETATM    9  C9  UNL     1      28.795   7.848  48.620  1.00  0.00     0.010 C 
HETATM   10  C10 UNL     1      30.101   7.920  48.295  1.00  0.00     0.036 C 
HETATM   11  C11 UNL     1      30.005   9.359  48.043  1.00  0.00    -0.005 C 
HETATM   12  C12 UNL     1      30.078  10.224  47.013  1.00  0.00     0.083 C 
HETATM   13 BR1  UNL     1      29.861  12.123  47.288  1.00  0.00    -0.031 Br
HETATM   14  N1  UNL     1      30.313   9.828  45.641  1.00  0.00    -0.383 N 
HETATM   15  C13 UNL     1      29.738   9.420  44.380  1.00  0.00     0.071 C 
HETATM   16  C14 UNL     1      28.476   9.212  44.825  1.00  0.00     0.092 C 
HETATM   17  C15 UNL     1      27.272   8.762  44.071  1.00  0.00    -0.023 C 
HETATM   18  C16 UNL     1      26.356   8.756  45.071  1.00  0.00    -0.026 C 
HETATM   19  C17 UNL     1      26.324   9.062  46.544  1.00  0.00     0.066 C 
HETATM   20  C18 UNL     1      29.754   9.715  49.467  1.00  0.00     0.161 C 
HETATM   21  N2  UNL     1      28.626   8.792  49.701  1.00  0.00    -0.389 N 
HETATM   22  H10 UNL     1      31.322   9.979  45.952  1.00  0.00     0.160 HD
HETATM   23  H19 UNL     1      27.802   8.606  50.343  1.00  0.00     0.159 HD
ENDROOT
TORSDOF 0
ENDMDL
