MODEL 1
REMARK VINA RESULT:      -6.2      0.000      0.000
REMARK  4 active torsions:
REMARK  status: ('A' for Active; 'I' for Inactive)
REMARK    1  A    between atoms: C2_2  and  C3_3 
REMARK    2  A    between atoms: C3_3  and  C4_4 
REMARK    3  A    between atoms: C4_4  and  N1_5 
REMARK    4  A    between atoms: N1_5  and  C5_6 
ROOT
HETATM    1  C5  UNL     1      23.883   5.821  49.889  1.00  0.00     0.053 C 
HETATM    2  C6  UNL     1      23.157   6.091  51.038  1.00  0.00     0.054 C 
HETATM    3  C7  UNL     1      21.624   6.216  51.180  1.00  0.00     0.234 C 
HETATM    4  O1  UNL     1      21.242   4.913  51.796  1.00  0.00    -0.345 OA
HETATM    5  C8  UNL     1      22.316   3.933  51.562  1.00  0.00     0.079 A 
HETATM    6  C9  UNL     1      22.098   3.317  50.348  1.00  0.00     0.074 A 
HETATM    7  C10 UNL     1      23.147   2.405  50.132  1.00  0.00     0.079 A 
HETATM    8  C11 UNL     1      24.194   2.121  50.944  1.00  0.00     0.038 A 
HETATM    9  C12 UNL     1      24.369   2.752  52.146  1.00  0.00     0.014 A 
HETATM   10  C13 UNL     1      23.393   3.653  52.380  1.00  0.00    -0.007 A 
HETATM   11  C14 UNL     1      23.643   4.823  53.338  1.00  0.00     0.161 C 
HETATM   12  N2  UNL     1      24.024   5.948  52.285  1.00  0.00    -0.385 N 
HETATM   13  O2  UNL     1      22.550   2.128  48.857  1.00  0.00    -0.304 OA
HETATM   14  C15 UNL     1      22.389   3.481  48.157  1.00  0.00     0.253 C 
HETATM   15  N3  UNL     1      22.783   4.742  47.915  1.00  0.00    -0.272 NA
HETATM   16  C16 UNL     1      23.933   5.327  48.521  1.00  0.00     0.209 C 
HETATM   17  H14 UNL     1      24.769   6.693  52.098  1.00  0.00     0.159 HD
ENDROOT
BRANCH   1  18
HETATM   18  N1  UNL     1      25.315   5.827  50.204  1.00  0.00    -0.366 N 
HETATM   19  H6  UNL     1      25.593   6.424  51.019  1.00  0.00     0.165 HD
BRANCH  18  20
HETATM   20  C4  UNL     1      26.291   5.089  49.490  1.00  0.00     0.088 C 
BRANCH  20  21
HETATM   21  C3  UNL     1      27.263   4.464  48.930  1.00  0.00     0.013 C 
BRANCH  21  22
HETATM   22  C2  UNL     1      28.384   5.279  48.419  1.00  0.00    -0.025 C 
HETATM   23  C1  UNL     1      28.511   6.496  47.924  1.00  0.00     0.031 C 
ENDBRANCH  21  22
ENDBRANCH  20  21
ENDBRANCH  18  20
ENDBRANCH   1  18
TORSDOF 4
ENDMDL
MODEL 2
REMARK VINA RESULT:      -6.2      1.998      3.203
REMARK  4 active torsions:
REMARK  status: ('A' for Active; 'I' for Inactive)
REMARK    1  A    between atoms: C2_2  and  C3_3 
REMARK    2  A    between atoms: C3_3  and  C4_4 
REMARK    3  A    between atoms: C4_4  and  N1_5 
REMARK    4  A    between atoms: N1_5  and  C5_6 
ROOT
HETATM    1  C5  UNL     1      22.841   4.405  52.345  1.00  0.00     0.053 C 
HETATM    2  C6  UNL     1      23.415   3.221  52.778  1.00  0.00     0.054 C 
HETATM    3  C7  UNL     1      22.781   1.813  52.788  1.00  0.00     0.234 C 
HETATM    4  O1  UNL     1      23.419   1.156  51.611  1.00  0.00    -0.345 OA
HETATM    5  C8  UNL     1      23.949   2.191  50.707  1.00  0.00     0.079 A 
HETATM    6  C9  UNL     1      22.952   2.573  49.837  1.00  0.00     0.074 A 
HETATM    7  C10 UNL     1      23.470   3.579  49.000  1.00  0.00     0.079 A 
HETATM    8  C11 UNL     1      24.722   4.100  48.988  1.00  0.00     0.038 A 
HETATM    9  C12 UNL     1      25.686   3.686  49.868  1.00  0.00     0.014 A 
HETATM   10  C13 UNL     1      25.219   2.735  50.703  1.00  0.00    -0.007 A 
HETATM   11  C14 UNL     1      25.889   2.515  52.064  1.00  0.00     0.161 C 
HETATM   12  N2  UNL     1      24.919   3.377  52.978  1.00  0.00    -0.385 N 
HETATM   13  O2  UNL     1      22.165   3.666  48.412  1.00  0.00    -0.304 OA
HETATM   14  C15 UNL     1      21.187   3.888  49.570  1.00  0.00     0.253 C 
HETATM   15  N3  UNL     1      20.883   4.374  50.784  1.00  0.00    -0.272 NA
HETATM   16  C16 UNL     1      21.812   5.100  51.586  1.00  0.00     0.209 C 
HETATM   17  H14 UNL     1      24.944   4.134  53.734  1.00  0.00     0.159 HD
ENDROOT
BRANCH   1  18
HETATM   18  N1  UNL     1      23.785   5.509  52.550  1.00  0.00    -0.366 N 
HETATM   19  H6  UNL     1      24.261   5.526  53.483  1.00  0.00     0.165 HD
BRANCH  18  20
HETATM   20  C4  UNL     1      24.073   6.500  51.580  1.00  0.00     0.088 C 
BRANCH  20  21
HETATM   21  C3  UNL     1      24.377   7.475  50.801  1.00  0.00     0.013 C 
BRANCH  21  22
HETATM   22  C2  UNL     1      25.750   7.504  50.258  1.00  0.00    -0.025 C 
HETATM   23  C1  UNL     1      26.655   8.441  50.043  1.00  0.00     0.031 C 
ENDBRANCH  21  22
ENDBRANCH  20  21
ENDBRANCH  18  20
ENDBRANCH   1  18
TORSDOF 4
ENDMDL
MODEL 3
REMARK VINA RESULT:      -6.0      1.267      1.665
REMARK  4 active torsions:
REMARK  status: ('A' for Active; 'I' for Inactive)
REMARK    1  A    between atoms: C2_2  and  C3_3 
REMARK    2  A    between atoms: C3_3  and  C4_4 
REMARK    3  A    between atoms: C4_4  and  N1_5 
REMARK    4  A    between atoms: N1_5  and  C5_6 
ROOT
HETATM    1  C5  UNL     1      24.042   6.593  49.941  1.00  0.00     0.053 C 
HETATM    2  C6  UNL     1      23.079   6.542  50.935  1.00  0.00     0.054 C 
HETATM    3  C7  UNL     1      21.632   7.080  50.878  1.00  0.00     0.234 C 
HETATM    4  O1  UNL     1      20.827   5.843  50.671  1.00  0.00    -0.345 OA
HETATM    5  C8  UNL     1      21.698   4.781  50.141  1.00  0.00     0.079 A 
HETATM    6  C9  UNL     1      21.730   4.878  48.767  1.00  0.00     0.074 A 
HETATM    7  C10 UNL     1      22.587   3.873  48.282  1.00  0.00     0.079 A 
HETATM    8  C11 UNL     1      23.265   2.934  48.987  1.00  0.00     0.038 A 
HETATM    9  C12 UNL     1      23.199   2.869  50.353  1.00  0.00     0.014 A 
HETATM   10  C13 UNL     1      22.403   3.833  50.858  1.00  0.00    -0.007 A 
HETATM   11  C14 UNL     1      22.590   4.302  52.305  1.00  0.00     0.161 C 
HETATM   12  N2  UNL     1      23.487   5.586  52.052  1.00  0.00    -0.385 N 
HETATM   13  O2  UNL     1      22.353   4.402  46.970  1.00  0.00    -0.304 OA
HETATM   14  C15 UNL     1      22.687   5.896  47.046  1.00  0.00     0.253 C 
HETATM   15  N3  UNL     1      23.383   6.928  47.548  1.00  0.00    -0.272 NA
HETATM   16  C16 UNL     1      24.395   6.773  48.541  1.00  0.00     0.209 C 
HETATM   17  H14 UNL     1      24.390   6.050  52.393  1.00  0.00     0.159 HD
ENDROOT
BRANCH   1  18
HETATM   18  N1  UNL     1      25.286   5.994  50.435  1.00  0.00    -0.366 N 
HETATM   19  H6  UNL     1      25.541   6.238  51.422  1.00  0.00     0.165 HD
BRANCH  18  20
HETATM   20  C4  UNL     1      26.113   5.133  49.673  1.00  0.00     0.088 C 
BRANCH  20  21
HETATM   21  C3  UNL     1      26.966   4.408  49.044  1.00  0.00     0.013 C 
BRANCH  21  22
HETATM   22  C2  UNL     1      28.160   5.087  48.500  1.00  0.00    -0.025 C 
HETATM   23  C1  UNL     1      28.428   6.301  48.056  1.00  0.00     0.031 C 
ENDBRANCH  21  22
ENDBRANCH  20  21
ENDBRANCH  18  20
ENDBRANCH   1  18
TORSDOF 4
ENDMDL
MODEL 4
REMARK VINA RESULT:      -6.0      2.213      3.858
REMARK  4 active torsions:
REMARK  status: ('A' for Active; 'I' for Inactive)
REMARK    1  A    between atoms: C2_2  and  C3_3 
REMARK    2  A    between atoms: C3_3  and  C4_4 
REMARK    3  A    between atoms: C4_4  and  N1_5 
REMARK    4  A    between atoms: N1_5  and  C5_6 
ROOT
HETATM    1  C5  UNL     1      23.083   2.561  52.355  1.00  0.00     0.053 C 
HETATM    2  C6  UNL     1      21.865   1.918  52.214  1.00  0.00     0.054 C 
HETATM    3  C7  UNL     1      20.463   2.461  52.571  1.00  0.00     0.234 C 
HETATM    4  O1  UNL     1      19.903   2.829  51.240  1.00  0.00    -0.345 OA
HETATM    5  C8  UNL     1      21.007   2.990  50.277  1.00  0.00     0.079 A 
HETATM    6  C9  UNL     1      21.465   4.288  50.341  1.00  0.00     0.074 A 
HETATM    7  C10 UNL     1      22.534   4.414  49.434  1.00  0.00     0.079 A 
HETATM    8  C11 UNL     1      23.047   3.473  48.604  1.00  0.00     0.038 A 
HETATM    9  C12 UNL     1      22.556   2.195  48.569  1.00  0.00     0.014 A 
HETATM   10  C13 UNL     1      21.542   2.029  49.443  1.00  0.00    -0.007 A 
HETATM   11  C14 UNL     1      21.206   0.630  49.970  1.00  0.00     0.161 C 
HETATM   12  N2  UNL     1      21.995   0.670  51.346  1.00  0.00    -0.385 N 
HETATM   13  O2  UNL     1      22.675   5.764  49.896  1.00  0.00    -0.304 OA
HETATM   14  C15 UNL     1      22.806   5.684  51.421  1.00  0.00     0.253 C 
HETATM   15  N3  UNL     1      23.191   5.056  52.543  1.00  0.00    -0.272 NA
HETATM   16  C16 UNL     1      23.844   3.788  52.539  1.00  0.00     0.209 C 
HETATM   17  H14 UNL     1      22.687   0.094  51.925  1.00  0.00     0.159 HD
ENDROOT
BRANCH   1  18
HETATM   18  N1  UNL     1      24.162   1.663  51.925  1.00  0.00    -0.366 N 
HETATM   19  H6  UNL     1      23.946   0.640  51.989  1.00  0.00     0.165 HD
BRANCH  18  20
HETATM   20  C4  UNL     1      25.418   2.103  51.443  1.00  0.00     0.088 C 
BRANCH  20  21
HETATM   21  C3  UNL     1      26.531   2.435  50.894  1.00  0.00     0.013 C 
BRANCH  21  22
HETATM   22  C2  UNL     1      26.460   3.186  49.624  1.00  0.00    -0.025 C 
HETATM   23  C1  UNL     1      26.614   4.448  49.270  1.00  0.00     0.031 C 
ENDBRANCH  21  22
ENDBRANCH  20  21
ENDBRANCH  18  20
ENDBRANCH   1  18
TORSDOF 4
ENDMDL
MODEL 5
REMARK VINA RESULT:      -5.9      2.922      4.314
REMARK  4 active torsions:
REMARK  status: ('A' for Active; 'I' for Inactive)
REMARK    1  A    between atoms: C2_2  and  C3_3 
REMARK    2  A    between atoms: C3_3  and  C4_4 
REMARK    3  A    between atoms: C4_4  and  N1_5 
REMARK    4  A    between atoms: N1_5  and  C5_6 
ROOT
HETATM    1  C5  UNL     1      25.231   2.377  51.897  1.00  0.00     0.053 C 
HETATM    2  C6  UNL     1      24.253   2.707  52.821  1.00  0.00     0.054 C 
HETATM    3  C7  UNL     1      23.851   4.116  53.309  1.00  0.00     0.234 C 
HETATM    4  O1  UNL     1      22.586   4.376  52.563  1.00  0.00    -0.345 OA
HETATM    5  C8  UNL     1      22.522   3.483  51.392  1.00  0.00     0.079 A 
HETATM    6  C9  UNL     1      23.162   4.093  50.335  1.00  0.00     0.074 A 
HETATM    7  C10 UNL     1      23.113   3.215  49.236  1.00  0.00     0.079 A 
HETATM    8  C11 UNL     1      22.533   1.991  49.163  1.00  0.00     0.038 A 
HETATM    9  C12 UNL     1      21.901   1.426  50.238  1.00  0.00     0.014 A 
HETATM   10  C13 UNL     1      21.947   2.230  51.320  1.00  0.00    -0.007 A 
HETATM   11  C14 UNL     1      21.809   1.633  52.725  1.00  0.00     0.161 C 
HETATM   12  N2  UNL     1      23.344   1.517  53.112  1.00  0.00    -0.385 N 
HETATM   13  O2  UNL     1      23.891   4.181  48.518  1.00  0.00    -0.304 OA
HETATM   14  C15 UNL     1      25.127   4.462  49.378  1.00  0.00     0.253 C 
HETATM   15  N3  UNL     1      26.063   4.082  50.263  1.00  0.00    -0.272 NA
HETATM   16  C16 UNL     1      26.122   2.769  50.816  1.00  0.00     0.209 C 
HETATM   17  H14 UNL     1      24.050   0.817  53.510  1.00  0.00     0.159 HD
ENDROOT
BRANCH   1  18
HETATM   18  N1  UNL     1      25.300   0.918  51.759  1.00  0.00    -0.366 N 
HETATM   19  H6  UNL     1      24.484   0.474  51.273  1.00  0.00     0.165 HD
BRANCH  18  20
HETATM   20  C4  UNL     1      26.376   0.124  52.224  1.00  0.00     0.088 C 
BRANCH  20  21
HETATM   21  C3  UNL     1      27.279  -0.622  52.752  1.00  0.00     0.013 C 
BRANCH  21  22
HETATM   22  C2  UNL     1      28.421   0.054  53.400  1.00  0.00    -0.025 C 
HETATM   23  C1  UNL     1      29.688  -0.245  53.618  1.00  0.00     0.031 C 
ENDBRANCH  21  22
ENDBRANCH  20  21
ENDBRANCH  18  20
ENDBRANCH   1  18
TORSDOF 4
ENDMDL
MODEL 6
REMARK VINA RESULT:      -5.9      6.523      8.158
REMARK  4 active torsions:
REMARK  status: ('A' for Active; 'I' for Inactive)
REMARK    1  A    between atoms: C2_2  and  C3_3 
REMARK    2  A    between atoms: C3_3  and  C4_4 
REMARK    3  A    between atoms: C4_4  and  N1_5 
REMARK    4  A    between atoms: N1_5  and  C5_6 
ROOT
HETATM    1  C5  UNL     1      31.157   9.458  48.907  1.00  0.00     0.053 C 
HETATM    2  C6  UNL     1      30.070  10.258  49.220  1.00  0.00     0.054 C 
HETATM    3  C7  UNL     1      29.557  11.497  48.453  1.00  0.00     0.234 C 
HETATM    4  O1  UNL     1      28.372  10.965  47.722  1.00  0.00    -0.345 OA
HETATM    5  C8  UNL     1      28.475   9.498  47.634  1.00  0.00     0.079 A 
HETATM    6  C9  UNL     1      29.200   9.171  46.509  1.00  0.00     0.074 A 
HETATM    7  C10 UNL     1      29.309   7.769  46.458  1.00  0.00     0.079 A 
HETATM    8  C11 UNL     1      28.794   6.854  47.316  1.00  0.00     0.038 A 
HETATM    9  C12 UNL     1      28.072   7.224  48.419  1.00  0.00     0.014 A 
HETATM   10  C13 UNL     1      27.965   8.565  48.515  1.00  0.00    -0.007 A 
HETATM   11  C14 UNL     1      27.701   9.217  49.877  1.00  0.00     0.161 C 
HETATM   12  N2  UNL     1      29.187   9.603  50.277  1.00  0.00    -0.385 N 
HETATM   13  O2  UNL     1      30.118   7.943  45.287  1.00  0.00    -0.304 OA
HETATM   14  C15 UNL     1      31.240   8.910  45.683  1.00  0.00     0.253 C 
HETATM   15  N3  UNL     1      32.089   9.431  46.583  1.00  0.00    -0.272 NA
HETATM   16  C16 UNL     1      32.144   9.000  47.941  1.00  0.00     0.209 C 
HETATM   17  H14 UNL     1      29.875   9.525  51.093  1.00  0.00     0.159 HD
ENDROOT
BRANCH   1  18
HETATM   18  N1  UNL     1      31.304   8.413  49.926  1.00  0.00    -0.366 N 
HETATM   19  H6  UNL     1      31.148   8.725  50.914  1.00  0.00     0.165 HD
BRANCH  18  20
HETATM   20  C4  UNL     1      31.623   7.063  49.642  1.00  0.00     0.088 C 
BRANCH  20  21
HETATM   21  C3  UNL     1      31.783   5.816  49.380  1.00  0.00     0.013 C 
BRANCH  21  22
HETATM   22  C2  UNL     1      32.496   5.473  48.133  1.00  0.00    -0.025 C 
HETATM   23  C1  UNL     1      32.152   5.312  46.869  1.00  0.00     0.031 C 
ENDBRANCH  21  22
ENDBRANCH  20  21
ENDBRANCH  18  20
ENDBRANCH   1  18
TORSDOF 4
ENDMDL
MODEL 7
REMARK VINA RESULT:      -5.9      2.869      4.978
REMARK  4 active torsions:
REMARK  status: ('A' for Active; 'I' for Inactive)
REMARK    1  A    between atoms: C2_2  and  C3_3 
REMARK    2  A    between atoms: C3_3  and  C4_4 
REMARK    3  A    between atoms: C4_4  and  N1_5 
REMARK    4  A    between atoms: N1_5  and  C5_6 
ROOT
HETATM    1  C5  UNL     1      22.981   2.191  52.434  1.00  0.00     0.053 C 
HETATM    2  C6  UNL     1      21.664   1.860  52.162  1.00  0.00     0.054 C 
HETATM    3  C7  UNL     1      20.396   2.676  52.500  1.00  0.00     0.234 C 
HETATM    4  O1  UNL     1      20.034   3.282  51.188  1.00  0.00    -0.345 OA
HETATM    5  C8  UNL     1      21.214   3.271  50.306  1.00  0.00     0.079 A 
HETATM    6  C9  UNL     1      21.944   4.418  50.529  1.00  0.00     0.074 A 
HETATM    7  C10 UNL     1      23.079   4.377  49.698  1.00  0.00     0.079 A 
HETATM    8  C11 UNL     1      23.430   3.421  48.802  1.00  0.00     0.038 A 
HETATM    9  C12 UNL     1      22.670   2.299  48.608  1.00  0.00     0.014 A 
HETATM   10  C13 UNL     1      21.583   2.292  49.405  1.00  0.00    -0.007 A 
HETATM   11  C14 UNL     1      20.904   0.965  49.764  1.00  0.00     0.161 C 
HETATM   12  N2  UNL     1      21.577   0.700  51.177  1.00  0.00    -0.385 N 
HETATM   13  O2  UNL     1      23.484   5.611  50.306  1.00  0.00    -0.304 OA
HETATM   14  C15 UNL     1      23.478   5.365  51.818  1.00  0.00     0.253 C 
HETATM   15  N3  UNL     1      23.629   4.567  52.887  1.00  0.00    -0.272 NA
HETATM   16  C16 UNL     1      23.980   3.189  52.785  1.00  0.00     0.209 C 
HETATM   17  H14 UNL     1      22.077  -0.070  51.727  1.00  0.00     0.159 HD
ENDROOT
BRANCH   1  18
HETATM   18  N1  UNL     1      23.861   1.113  51.969  1.00  0.00    -0.366 N 
HETATM   19  H6  UNL     1      23.714   0.809  50.977  1.00  0.00     0.165 HD
BRANCH  18  20
HETATM   20  C4  UNL     1      24.859   0.501  52.766  1.00  0.00     0.088 C 
BRANCH  20  21
HETATM   21  C3  UNL     1      25.765  -0.153  53.401  1.00  0.00     0.013 C 
BRANCH  21  22
HETATM   22  C2  UNL     1      26.723  -0.935  52.594  1.00  0.00    -0.025 C 
HETATM   23  C1  UNL     1      26.940  -2.220  52.378  1.00  0.00     0.031 C 
ENDBRANCH  21  22
ENDBRANCH  20  21
ENDBRANCH  18  20
ENDBRANCH   1  18
TORSDOF 4
ENDMDL
MODEL 8
REMARK VINA RESULT:      -5.9      8.151     10.721
REMARK  4 active torsions:
REMARK  status: ('A' for Active; 'I' for Inactive)
REMARK    1  A    between atoms: C2_2  and  C3_3 
REMARK    2  A    between atoms: C3_3  and  C4_4 
REMARK    3  A    between atoms: C4_4  and  N1_5 
REMARK    4  A    between atoms: N1_5  and  C5_6 
ROOT
HETATM    1  C5  UNL     1      33.284   4.938  48.104  1.00  0.00     0.053 C 
HETATM    2  C6  UNL     1      32.101   5.433  48.629  1.00  0.00     0.054 C 
HETATM    3  C7  UNL     1      31.894   6.146  49.983  1.00  0.00     0.234 C 
HETATM    4  O1  UNL     1      31.782   7.579  49.588  1.00  0.00    -0.345 OA
HETATM    5  C8  UNL     1      32.375   7.761  48.251  1.00  0.00     0.079 A 
HETATM    6  C9  UNL     1      33.724   8.002  48.394  1.00  0.00     0.074 A 
HETATM    7  C10 UNL     1      34.276   8.146  47.108  1.00  0.00     0.079 A 
HETATM    8  C11 UNL     1      33.641   8.094  45.911  1.00  0.00     0.038 A 
HETATM    9  C12 UNL     1      32.296   7.859  45.815  1.00  0.00     0.014 A 
HETATM   10  C13 UNL     1      31.734   7.692  47.030  1.00  0.00    -0.007 A 
HETATM   11  C14 UNL     1      30.424   6.909  47.167  1.00  0.00     0.161 C 
HETATM   12  N2  UNL     1      31.007   5.489  47.568  1.00  0.00    -0.385 N 
HETATM   13  O2  UNL     1      35.552   8.285  47.746  1.00  0.00    -0.304 OA
HETATM   14  C15 UNL     1      35.714   7.060  48.651  1.00  0.00     0.253 C 
HETATM   15  N3  UNL     1      35.493   5.768  48.944  1.00  0.00    -0.272 NA
HETATM   16  C16 UNL     1      34.739   4.899  48.102  1.00  0.00     0.209 C 
HETATM   17  H14 UNL     1      30.927   4.454  47.307  1.00  0.00     0.159 HD
ENDROOT
BRANCH   1  18
HETATM   18  N1  UNL     1      33.017   4.306  46.808  1.00  0.00    -0.366 N 
HETATM   19  H6  UNL     1      32.145   3.726  46.762  1.00  0.00     0.165 HD
BRANCH  18  20
HETATM   20  C4  UNL     1      33.844   4.448  45.667  1.00  0.00     0.088 C 
BRANCH  20  21
HETATM   21  C3  UNL     1      34.496   4.648  44.579  1.00  0.00     0.013 C 
BRANCH  21  22
HETATM   22  C2  UNL     1      33.711   4.783  43.335  1.00  0.00    -0.025 C 
HETATM   23  C1  UNL     1      33.035   5.757  42.753  1.00  0.00     0.031 C 
ENDBRANCH  21  22
ENDBRANCH  20  21
ENDBRANCH  18  20
ENDBRANCH   1  18
TORSDOF 4
ENDMDL
MODEL 9
REMARK VINA RESULT:      -5.8      8.368     10.655
REMARK  4 active torsions:
REMARK  status: ('A' for Active; 'I' for Inactive)
REMARK    1  A    between atoms: C2_2  and  C3_3 
REMARK    2  A    between atoms: C3_3  and  C4_4 
REMARK    3  A    between atoms: C4_4  and  N1_5 
REMARK    4  A    between atoms: N1_5  and  C5_6 
ROOT
HETATM    1  C5  UNL     1      33.027   5.993  48.273  1.00  0.00     0.053 C 
HETATM    2  C6  UNL     1      31.851   6.649  48.597  1.00  0.00     0.054 C 
HETATM    3  C7  UNL     1      31.658   7.792  49.618  1.00  0.00     0.234 C 
HETATM    4  O1  UNL     1      31.553   8.998  48.748  1.00  0.00    -0.345 OA
HETATM    5  C8  UNL     1      32.138   8.697  47.430  1.00  0.00     0.079 A 
HETATM    6  C9  UNL     1      33.490   8.961  47.475  1.00  0.00     0.074 A 
HETATM    7  C10 UNL     1      34.034   8.643  46.217  1.00  0.00     0.079 A 
HETATM    8  C11 UNL     1      33.391   8.183  45.115  1.00  0.00     0.038 A 
HETATM    9  C12 UNL     1      32.043   7.941  45.113  1.00  0.00     0.014 A 
HETATM   10  C13 UNL     1      31.489   8.213  46.312  1.00  0.00    -0.007 A 
HETATM   11  C14 UNL     1      30.174   7.539  46.719  1.00  0.00     0.161 C 
HETATM   12  N2  UNL     1      30.750   6.342  47.588  1.00  0.00    -0.385 N 
HETATM   13  O2  UNL     1      35.315   8.985  46.761  1.00  0.00    -0.304 OA
HETATM   14  C15 UNL     1      35.475   8.150  48.036  1.00  0.00     0.253 C 
HETATM   15  N3  UNL     1      35.247   7.043  48.761  1.00  0.00    -0.272 NA
HETATM   16  C16 UNL     1      34.481   5.942  48.279  1.00  0.00     0.209 C 
HETATM   17  H14 UNL     1      30.661   5.281  47.704  1.00  0.00     0.159 HD
ENDROOT
BRANCH   1  18
HETATM   18  N1  UNL     1      32.746   4.951  47.279  1.00  0.00    -0.366 N 
HETATM   19  H6  UNL     1      32.329   5.289  46.379  1.00  0.00     0.165 HD
BRANCH  18  20
HETATM   20  C4  UNL     1      33.012   3.573  47.473  1.00  0.00     0.088 C 
BRANCH  20  21
HETATM   21  C3  UNL     1      33.123   2.303  47.629  1.00  0.00     0.013 C 
BRANCH  21  22
HETATM   22  C2  UNL     1      32.323   1.440  46.738  1.00  0.00    -0.025 C 
HETATM   23  C1  UNL     1      31.995   0.161  46.714  1.00  0.00     0.031 C 
ENDBRANCH  21  22
ENDBRANCH  20  21
ENDBRANCH  18  20
ENDBRANCH   1  18
TORSDOF 4
ENDMDL
