MODEL 1
REMARK VINA RESULT:      -8.0      0.000      0.000
REMARK  5 active torsions:
REMARK  status: ('A' for Active; 'I' for Inactive)
REMARK    1  A    between atoms: N1_1  and  C1_2 
REMARK    2  A    between atoms: C2_3  and  C3_4 
REMARK    3  A    between atoms: C4_5  and  C5_6 
REMARK    4  A    between atoms: C10_13  and  C11_14 
REMARK    5  A    between atoms: C14_17  and  N4_18 
ROOT
HETATM    1  C5  UNL     1      22.759   2.130  52.356  1.00  0.00    -0.005 A 
HETATM    2  C6  UNL     1      21.526   2.696  52.167  1.00  0.00     0.034 A 
HETATM    3  C7  UNL     1      20.412   2.098  52.708  1.00  0.00     0.140 A 
HETATM    4  N2  UNL     1      20.588   0.948  53.420  1.00  0.00    -0.180 NA
HETATM    5  N3  UNL     1      21.804   0.453  53.566  1.00  0.00    -0.244 N 
HETATM    6  C8  UNL     1      22.121  -0.664  54.236  1.00  0.00     0.119 A 
HETATM    7  C9  UNL     1      23.485  -0.807  54.133  1.00  0.00     0.029 A 
HETATM    8  C10 UNL     1      24.048   0.235  53.386  1.00  0.00    -0.023 A 
HETATM    9  C17 UNL     1      22.958   0.982  53.064  1.00  0.00     0.075 A 
ENDROOT
BRANCH   8  10
HETATM   10  C11 UNL     1      25.455   0.376  53.072  1.00  0.00     0.021 C 
HETATM   11  C12 UNL     1      26.131   1.152  54.190  1.00  0.00     0.011 C 
HETATM   12  C13 UNL     1      27.631   1.194  53.982  1.00  0.00     0.036 C 
HETATM   13  C14 UNL     1      28.163  -0.219  54.030  1.00  0.00     0.218 C 
HETATM   14  C15 UNL     1      27.558  -0.958  52.836  1.00  0.00     0.036 C 
HETATM   15  C16 UNL     1      26.061  -1.058  53.079  1.00  0.00     0.011 C 
BRANCH  13  16
HETATM   16  N4  UNL     1      29.600  -0.235  53.833  1.00  0.00     0.082 N 
HETATM   17  H17 UNL     1      30.013  -1.149  54.103  1.00  0.00     0.313 HD
HETATM   18  H18 UNL     1      30.073   0.561  54.314  1.00  0.00     0.313 HD
ENDBRANCH  13  16
ENDBRANCH   8  10
BRANCH   1  19
HETATM   19  C4  UNL     1      23.902   2.789  51.789  1.00  0.00     0.014 C 
HETATM   20  C3  UNL     1      24.183   2.856  50.502  1.00  0.00     0.002 C 
BRANCH  20  21
HETATM   21  C2  UNL     1      25.217   3.423  49.654  1.00  0.00     0.011 C 
HETATM   22  C1  UNL     1      26.483   3.598  49.850  1.00  0.00     0.054 C 
BRANCH  22  23
HETATM   23  N1  UNL     1      27.157   3.232  51.044  1.00  0.00    -0.312 NA
HETATM   24  H1  UNL     1      27.671   3.915  51.614  1.00  0.00     0.123 HD
HETATM   25  H2  UNL     1      27.677   3.924  51.622  1.00  0.00     0.123 HD
ENDBRANCH  22  23
ENDBRANCH  20  21
ENDBRANCH   1  19
TORSDOF 5
ENDMDL
MODEL 2
REMARK VINA RESULT:      -7.8      1.599      4.445
REMARK  5 active torsions:
REMARK  status: ('A' for Active; 'I' for Inactive)
REMARK    1  A    between atoms: N1_1  and  C1_2 
REMARK    2  A    between atoms: C2_3  and  C3_4 
REMARK    3  A    between atoms: C4_5  and  C5_6 
REMARK    4  A    between atoms: C10_13  and  C11_14 
REMARK    5  A    between atoms: C14_17  and  N4_18 
ROOT
HETATM    1  C5  UNL     1      23.291   2.230  51.837  1.00  0.00    -0.005 A 
HETATM    2  C6  UNL     1      22.107   2.736  51.369  1.00  0.00     0.034 A 
HETATM    3  C7  UNL     1      22.105   3.546  50.258  1.00  0.00     0.140 A 
HETATM    4  N2  UNL     1      23.301   3.813  49.661  1.00  0.00    -0.180 NA
HETATM    5  N3  UNL     1      24.408   3.293  50.161  1.00  0.00    -0.244 N 
HETATM    6  C8  UNL     1      25.646   3.471  49.679  1.00  0.00     0.119 A 
HETATM    7  C9  UNL     1      26.490   2.759  50.497  1.00  0.00     0.029 A 
HETATM    8  C10 UNL     1      25.780   2.115  51.518  1.00  0.00    -0.023 A 
HETATM    9  C17 UNL     1      24.498   2.483  51.256  1.00  0.00     0.075 A 
ENDROOT
BRANCH   8  10
HETATM   10  C11 UNL     1      26.367   1.298  52.561  1.00  0.00     0.021 C 
HETATM   11  C12 UNL     1      26.603  -0.100  52.015  1.00  0.00     0.011 C 
HETATM   12  C13 UNL     1      27.355  -0.947  53.021  1.00  0.00     0.036 C 
HETATM   13  C14 UNL     1      28.709  -0.324  53.259  1.00  0.00     0.218 C 
HETATM   14  C15 UNL     1      28.459   1.037  53.908  1.00  0.00     0.036 C 
HETATM   15  C16 UNL     1      27.764   1.909  52.875  1.00  0.00     0.011 C 
BRANCH  13  16
HETATM   16  N4  UNL     1      29.472  -1.099  54.220  1.00  0.00     0.082 N 
HETATM   17  H17 UNL     1      30.195  -0.521  54.689  1.00  0.00     0.313 HD
HETATM   18  H18 UNL     1      29.880  -1.960  53.795  1.00  0.00     0.313 HD
ENDBRANCH  13  16
ENDBRANCH   8  10
BRANCH   1  19
HETATM   19  C4  UNL     1      23.255   1.376  52.991  1.00  0.00     0.014 C 
HETATM   20  C3  UNL     1      22.845   0.122  52.999  1.00  0.00     0.002 C 
BRANCH  20  21
HETATM   21  C2  UNL     1      22.694  -0.955  53.962  1.00  0.00     0.011 C 
HETATM   22  C1  UNL     1      21.640  -1.487  54.491  1.00  0.00     0.054 C 
BRANCH  22  23
HETATM   23  N1  UNL     1      20.314  -1.077  54.199  1.00  0.00    -0.312 NA
HETATM   24  H1  UNL     1      19.920  -0.200  54.559  1.00  0.00     0.123 HD
HETATM   25  H2  UNL     1      19.915  -0.187  54.564  1.00  0.00     0.123 HD
ENDBRANCH  22  23
ENDBRANCH  20  21
ENDBRANCH   1  19
TORSDOF 5
ENDMDL
MODEL 3
REMARK VINA RESULT:      -7.7      1.676      5.171
REMARK  5 active torsions:
REMARK  status: ('A' for Active; 'I' for Inactive)
REMARK    1  A    between atoms: N1_1  and  C1_2 
REMARK    2  A    between atoms: C2_3  and  C3_4 
REMARK    3  A    between atoms: C4_5  and  C5_6 
REMARK    4  A    between atoms: C10_13  and  C11_14 
REMARK    5  A    between atoms: C14_17  and  N4_18 
ROOT
HETATM    1  C5  UNL     1      26.808   0.971  52.519  1.00  0.00    -0.005 A 
HETATM    2  C6  UNL     1      28.143   1.002  52.823  1.00  0.00     0.034 A 
HETATM    3  C7  UNL     1      28.589   0.425  53.989  1.00  0.00     0.140 A 
HETATM    4  N2  UNL     1      27.667  -0.162  54.804  1.00  0.00    -0.180 NA
HETATM    5  N3  UNL     1      26.393  -0.158  54.453  1.00  0.00    -0.244 N 
HETATM    6  C8  UNL     1      25.384  -0.694  55.155  1.00  0.00     0.119 A 
HETATM    7  C9  UNL     1      24.238  -0.463  54.431  1.00  0.00     0.029 A 
HETATM    8  C10 UNL     1      24.520   0.231  53.248  1.00  0.00    -0.023 A 
HETATM    9  C17 UNL     1      25.869   0.390  53.319  1.00  0.00     0.075 A 
ENDROOT
BRANCH   8  10
HETATM   10  C11 UNL     1      23.538   0.649  52.268  1.00  0.00     0.021 C 
HETATM   11  C12 UNL     1      22.302  -0.223  52.409  1.00  0.00     0.011 C 
HETATM   12  C13 UNL     1      21.190   0.273  51.508  1.00  0.00     0.036 C 
HETATM   13  C14 UNL     1      20.807   1.668  51.942  1.00  0.00     0.218 C 
HETATM   14  C15 UNL     1      22.026   2.557  51.693  1.00  0.00     0.036 C 
HETATM   15  C16 UNL     1      23.119   2.100  52.645  1.00  0.00     0.011 C 
BRANCH  13  16
HETATM   16  N4  UNL     1      19.743   2.193  51.107  1.00  0.00     0.082 N 
HETATM   17  H17 UNL     1      19.263   2.995  51.559  1.00  0.00     0.313 HD
HETATM   18  H18 UNL     1      19.068   1.452  50.816  1.00  0.00     0.313 HD
ENDBRANCH  13  16
ENDBRANCH   8  10
BRANCH   1  19
HETATM   19  C4  UNL     1      26.378   1.570  51.287  1.00  0.00     0.014 C 
HETATM   20  C3  UNL     1      26.296   2.867  51.058  1.00  0.00     0.002 C 
BRANCH  20  21
HETATM   21  C2  UNL     1      25.914   3.745  49.966  1.00  0.00     0.011 C 
HETATM   22  C1  UNL     1      26.614   4.539  49.223  1.00  0.00     0.054 C 
BRANCH  22  23
HETATM   23  N1  UNL     1      28.016   4.713  49.351  1.00  0.00    -0.312 NA
HETATM   24  H1  UNL     1      28.681   3.951  49.174  1.00  0.00     0.123 HD
HETATM   25  H2  UNL     1      28.690   3.941  49.171  1.00  0.00     0.123 HD
ENDBRANCH  22  23
ENDBRANCH  20  21
ENDBRANCH   1  19
TORSDOF 5
ENDMDL
MODEL 4
REMARK VINA RESULT:      -7.6      1.860      4.852
REMARK  5 active torsions:
REMARK  status: ('A' for Active; 'I' for Inactive)
REMARK    1  A    between atoms: N1_1  and  C1_2 
REMARK    2  A    between atoms: C2_3  and  C3_4 
REMARK    3  A    between atoms: C4_5  and  C5_6 
REMARK    4  A    between atoms: C10_13  and  C11_14 
REMARK    5  A    between atoms: C14_17  and  N4_18 
ROOT
HETATM    1  C5  UNL     1      24.412  -0.191  53.845  1.00  0.00    -0.005 A 
HETATM    2  C6  UNL     1      24.661  -0.958  54.953  1.00  0.00     0.034 A 
HETATM    3  C7  UNL     1      23.612  -1.500  55.656  1.00  0.00     0.140 A 
HETATM    4  N2  UNL     1      22.347  -1.247  55.212  1.00  0.00    -0.180 NA
HETATM    5  N3  UNL     1      22.174  -0.500  54.136  1.00  0.00    -0.244 N 
HETATM    6  C8  UNL     1      20.994  -0.171  53.591  1.00  0.00     0.119 A 
HETATM    7  C9  UNL     1      21.274   0.613  52.497  1.00  0.00     0.029 A 
HETATM    8  C10 UNL     1      22.655   0.787  52.340  1.00  0.00    -0.023 A 
HETATM    9  C17 UNL     1      23.157   0.074  53.383  1.00  0.00     0.075 A 
ENDROOT
BRANCH   8  10
HETATM   10  C11 UNL     1      23.287   1.573  51.300  1.00  0.00     0.021 C 
HETATM   11  C12 UNL     1      22.362   1.627  50.095  1.00  0.00     0.011 C 
HETATM   12  C13 UNL     1      22.913   2.562  49.039  1.00  0.00     0.036 C 
HETATM   13  C14 UNL     1      22.979   3.955  49.617  1.00  0.00     0.218 C 
HETATM   14  C15 UNL     1      23.995   3.910  50.759  1.00  0.00     0.036 C 
HETATM   15  C16 UNL     1      23.411   3.025  51.847  1.00  0.00     0.011 C 
BRANCH  13  16
HETATM   16  N4  UNL     1      23.504   4.893  48.642  1.00  0.00     0.082 N 
HETATM   17  H17 UNL     1      23.129   4.708  47.692  1.00  0.00     0.313 HD
HETATM   18  H18 UNL     1      24.547   4.923  48.648  1.00  0.00     0.313 HD
ENDBRANCH  13  16
ENDBRANCH   8  10
BRANCH   1  19
HETATM   19  C4  UNL     1      25.532   0.348  53.127  1.00  0.00     0.014 C 
HETATM   20  C3  UNL     1      26.275   1.363  53.524  1.00  0.00     0.002 C 
BRANCH  20  21
HETATM   21  C2  UNL     1      27.424   2.109  53.043  1.00  0.00     0.011 C 
HETATM   22  C1  UNL     1      28.592   2.310  53.562  1.00  0.00     0.054 C 
BRANCH  22  23
HETATM   23  N1  UNL     1      29.002   1.787  54.816  1.00  0.00    -0.312 NA
HETATM   24  H1  UNL     1      29.404   2.380  55.551  1.00  0.00     0.123 HD
HETATM   25  H2  UNL     1      29.408   2.388  55.561  1.00  0.00     0.123 HD
ENDBRANCH  22  23
ENDBRANCH  20  21
ENDBRANCH   1  19
TORSDOF 5
ENDMDL
MODEL 5
REMARK VINA RESULT:      -7.3      2.086      5.287
REMARK  5 active torsions:
REMARK  status: ('A' for Active; 'I' for Inactive)
REMARK    1  A    between atoms: N1_1  and  C1_2 
REMARK    2  A    between atoms: C2_3  and  C3_4 
REMARK    3  A    between atoms: C4_5  and  C5_6 
REMARK    4  A    between atoms: C10_13  and  C11_14 
REMARK    5  A    between atoms: C14_17  and  N4_18 
ROOT
HETATM    1  C5  UNL     1      26.298   1.291  52.344  1.00  0.00    -0.005 A 
HETATM    2  C6  UNL     1      27.430   0.616  52.715  1.00  0.00     0.034 A 
HETATM    3  C7  UNL     1      27.321  -0.582  53.382  1.00  0.00     0.140 A 
HETATM    4  N2  UNL     1      26.069  -1.051  53.649  1.00  0.00    -0.180 NA
HETATM    5  N3  UNL     1      25.016  -0.351  53.264  1.00  0.00    -0.244 N 
HETATM    6  C8  UNL     1      23.734  -0.691  53.460  1.00  0.00     0.119 A 
HETATM    7  C9  UNL     1      22.975   0.313  52.907  1.00  0.00     0.029 A 
HETATM    8  C10 UNL     1      23.786   1.310  52.349  1.00  0.00    -0.023 A 
HETATM    9  C17 UNL     1      25.037   0.841  52.601  1.00  0.00     0.075 A 
ENDROOT
BRANCH   8  10
HETATM   10  C11 UNL     1      23.306   2.515  51.703  1.00  0.00     0.021 C 
HETATM   11  C12 UNL     1      23.041   2.215  50.238  1.00  0.00     0.011 C 
HETATM   12  C13 UNL     1      22.395   3.404  49.556  1.00  0.00     0.036 C 
HETATM   13  C14 UNL     1      21.059   3.665  50.209  1.00  0.00     0.218 C 
HETATM   14  C15 UNL     1      21.349   4.071  51.655  1.00  0.00     0.036 C 
HETATM   15  C16 UNL     1      21.935   2.857  52.356  1.00  0.00     0.011 C 
BRANCH  13  16
HETATM   16  N4  UNL     1      20.398   4.800  49.593  1.00  0.00     0.082 N 
HETATM   17  H17 UNL     1      20.197   4.626  48.589  1.00  0.00     0.313 HD
HETATM   18  H18 UNL     1      20.926   5.688  49.735  1.00  0.00     0.313 HD
ENDBRANCH  13  16
ENDBRANCH   8  10
BRANCH   1  19
HETATM   19  C4  UNL     1      26.449   2.532  51.637  1.00  0.00     0.014 C 
HETATM   20  C3  UNL     1      26.559   2.654  50.329  1.00  0.00     0.002 C 
BRANCH  20  21
HETATM   21  C2  UNL     1      26.718   3.723  49.357  1.00  0.00     0.011 C 
HETATM   22  C1  UNL     1      26.298   4.946  49.356  1.00  0.00     0.054 C 
BRANCH  22  23
HETATM   23  N1  UNL     1      25.534   5.523  50.403  1.00  0.00    -0.312 NA
HETATM   24  H1  UNL     1      25.370   6.534  50.468  1.00  0.00     0.123 HD
HETATM   25  H2  UNL     1      25.367   6.548  50.469  1.00  0.00     0.123 HD
ENDBRANCH  22  23
ENDBRANCH  20  21
ENDBRANCH   1  19
TORSDOF 5
ENDMDL
MODEL 6
REMARK VINA RESULT:      -7.3      1.885      5.529
REMARK  5 active torsions:
REMARK  status: ('A' for Active; 'I' for Inactive)
REMARK    1  A    between atoms: N1_1  and  C1_2 
REMARK    2  A    between atoms: C2_3  and  C3_4 
REMARK    3  A    between atoms: C4_5  and  C5_6 
REMARK    4  A    between atoms: C10_13  and  C11_14 
REMARK    5  A    between atoms: C14_17  and  N4_18 
ROOT
HETATM    1  C5  UNL     1      25.955   3.177  50.166  1.00  0.00    -0.005 A 
HETATM    2  C6  UNL     1      26.911   3.994  49.622  1.00  0.00     0.034 A 
HETATM    3  C7  UNL     1      26.531   5.114  48.922  1.00  0.00     0.140 A 
HETATM    4  N2  UNL     1      25.197   5.368  48.798  1.00  0.00    -0.180 NA
HETATM    5  N3  UNL     1      24.324   4.540  49.347  1.00  0.00    -0.244 N 
HETATM    6  C8  UNL     1      22.990   4.666  49.303  1.00  0.00     0.119 A 
HETATM    7  C9  UNL     1      22.475   3.594  49.994  1.00  0.00     0.029 A 
HETATM    8  C10 UNL     1      23.496   2.772  50.487  1.00  0.00    -0.023 A 
HETATM    9  C17 UNL     1      24.616   3.411  50.055  1.00  0.00     0.075 A 
ENDROOT
BRANCH   8  10
HETATM   10  C11 UNL     1      23.298   1.552  51.242  1.00  0.00     0.021 C 
HETATM   11  C12 UNL     1      23.417   1.866  52.724  1.00  0.00     0.011 C 
HETATM   12  C13 UNL     1      23.068   0.652  53.558  1.00  0.00     0.036 C 
HETATM   13  C14 UNL     1      21.628   0.283  53.293  1.00  0.00     0.218 C 
HETATM   14  C15 UNL     1      21.546  -0.135  51.824  1.00  0.00     0.036 C 
HETATM   15  C16 UNL     1      21.830   1.100  50.986  1.00  0.00     0.011 C 
BRANCH  13  16
HETATM   16  N4  UNL     1      21.242  -0.880  54.069  1.00  0.00     0.082 N 
HETATM   17  H17 UNL     1      21.724  -1.738  53.738  1.00  0.00     0.313 HD
HETATM   18  H18 UNL     1      20.207  -1.005  54.102  1.00  0.00     0.313 HD
ENDBRANCH  13  16
ENDBRANCH   8  10
BRANCH   1  19
HETATM   19  C4  UNL     1      26.387   2.023  50.902  1.00  0.00     0.014 C 
HETATM   20  C3  UNL     1      27.065   2.051  52.034  1.00  0.00     0.002 C 
BRANCH  20  21
HETATM   21  C2  UNL     1      27.624   1.099  52.978  1.00  0.00     0.011 C 
HETATM   22  C1  UNL     1      28.528   1.233  53.893  1.00  0.00     0.054 C 
BRANCH  22  23
HETATM   23  N1  UNL     1      29.204   2.450  54.167  1.00  0.00    -0.312 NA
HETATM   24  H1  UNL     1      29.030   3.306  53.627  1.00  0.00     0.123 HD
HETATM   25  H2  UNL     1      29.027   3.318  53.620  1.00  0.00     0.123 HD
ENDBRANCH  22  23
ENDBRANCH  20  21
ENDBRANCH   1  19
TORSDOF 5
ENDMDL
MODEL 7
REMARK VINA RESULT:      -7.2      2.251      6.831
REMARK  5 active torsions:
REMARK  status: ('A' for Active; 'I' for Inactive)
REMARK    1  A    between atoms: N1_1  and  C1_2 
REMARK    2  A    between atoms: C2_3  and  C3_4 
REMARK    3  A    between atoms: C4_5  and  C5_6 
REMARK    4  A    between atoms: C10_13  and  C11_14 
REMARK    5  A    between atoms: C14_17  and  N4_18 
ROOT
HETATM    1  C5  UNL     1      24.993   1.555  52.426  1.00  0.00    -0.005 A 
HETATM    2  C6  UNL     1      26.013   1.245  53.287  1.00  0.00     0.034 A 
HETATM    3  C7  UNL     1      27.280   1.720  53.041  1.00  0.00     0.140 A 
HETATM    4  N2  UNL     1      27.468   2.491  51.932  1.00  0.00    -0.180 NA
HETATM    5  N3  UNL     1      26.442   2.754  51.141  1.00  0.00    -0.244 N 
HETATM    6  C8  UNL     1      26.483   3.493  50.024  1.00  0.00     0.119 A 
HETATM    7  C9  UNL     1      25.205   3.505  49.517  1.00  0.00     0.029 A 
HETATM    8  C10 UNL     1      24.334   2.762  50.324  1.00  0.00    -0.023 A 
HETATM    9  C17 UNL     1      25.159   2.324  51.313  1.00  0.00     0.075 A 
ENDROOT
BRANCH   8  10
HETATM   10  C11 UNL     1      22.923   2.556  50.066  1.00  0.00     0.021 C 
HETATM   11  C12 UNL     1      22.168   3.823  50.430  1.00  0.00     0.011 C 
HETATM   12  C13 UNL     1      20.710   3.709  50.036  1.00  0.00     0.036 C 
HETATM   13  C14 UNL     1      20.628   3.553  48.536  1.00  0.00     0.218 C 
HETATM   14  C15 UNL     1      21.298   2.221  48.195  1.00  0.00     0.036 C 
HETATM   15  C16 UNL     1      22.773   2.360  48.529  1.00  0.00     0.011 C 
BRANCH  13  16
HETATM   16  N4  UNL     1      19.248   3.437  48.104  1.00  0.00     0.082 N 
HETATM   17  H17 UNL     1      18.729   2.735  48.667  1.00  0.00     0.313 HD
HETATM   18  H18 UNL     1      19.170   3.248  47.081  1.00  0.00     0.313 HD
ENDBRANCH  13  16
ENDBRANCH   8  10
BRANCH   1  19
HETATM   19  C4  UNL     1      23.680   1.054  52.721  1.00  0.00     0.014 C 
HETATM   20  C3  UNL     1      23.419  -0.095  53.314  1.00  0.00     0.002 C 
BRANCH  20  21
HETATM   21  C2  UNL     1      22.249  -0.849  53.733  1.00  0.00     0.011 C 
HETATM   22  C1  UNL     1      22.035  -1.584  54.775  1.00  0.00     0.054 C 
BRANCH  22  23
HETATM   23  N1  UNL     1      22.993  -1.810  55.796  1.00  0.00    -0.312 NA
HETATM   24  H1  UNL     1      23.275  -1.075  56.455  1.00  0.00     0.123 HD
HETATM   25  H2  UNL     1      23.278  -1.065  56.464  1.00  0.00     0.123 HD
ENDBRANCH  22  23
ENDBRANCH  20  21
ENDBRANCH   1  19
TORSDOF 5
ENDMDL
MODEL 8
REMARK VINA RESULT:      -7.1      2.132      5.350
REMARK  5 active torsions:
REMARK  status: ('A' for Active; 'I' for Inactive)
REMARK    1  A    between atoms: N1_1  and  C1_2 
REMARK    2  A    between atoms: C2_3  and  C3_4 
REMARK    3  A    between atoms: C4_5  and  C5_6 
REMARK    4  A    between atoms: C10_13  and  C11_14 
REMARK    5  A    between atoms: C14_17  and  N4_18 
ROOT
HETATM    1  C5  UNL     1      24.821   0.762  53.064  1.00  0.00    -0.005 A 
HETATM    2  C6  UNL     1      26.032   0.499  53.649  1.00  0.00     0.034 A 
HETATM    3  C7  UNL     1      26.105  -0.397  54.688  1.00  0.00     0.140 A 
HETATM    4  N2  UNL     1      24.950  -0.996  55.098  1.00  0.00    -0.180 NA
HETATM    5  N3  UNL     1      23.814  -0.699  54.492  1.00  0.00    -0.244 N 
HETATM    6  C8  UNL     1      22.610  -1.208  54.789  1.00  0.00     0.119 A 
HETATM    7  C9  UNL     1      21.716  -0.628  53.921  1.00  0.00     0.029 A 
HETATM    8  C10 UNL     1      22.359   0.265  53.055  1.00  0.00    -0.023 A 
HETATM    9  C17 UNL     1      23.655   0.176  53.457  1.00  0.00     0.075 A 
ENDROOT
BRANCH   8  10
HETATM   10  C11 UNL     1      21.706   1.056  52.031  1.00  0.00     0.021 C 
HETATM   11  C12 UNL     1      21.648   0.245  50.747  1.00  0.00     0.011 C 
HETATM   12  C13 UNL     1      20.841   0.971  49.692  1.00  0.00     0.036 C 
HETATM   13  C14 UNL     1      19.423   1.124  50.191  1.00  0.00     0.218 C 
HETATM   14  C15 UNL     1      19.485   2.031  51.420  1.00  0.00     0.036 C 
HETATM   15  C16 UNL     1      20.238   1.274  52.501  1.00  0.00     0.011 C 
BRANCH  13  16
HETATM   16  N4  UNL     1      18.605   1.818  49.214  1.00  0.00     0.082 N 
HETATM   17  H17 UNL     1      19.088   2.655  48.836  1.00  0.00     0.313 HD
HETATM   18  H18 UNL     1      17.660   2.052  49.589  1.00  0.00     0.313 HD
ENDBRANCH  13  16
ENDBRANCH   8  10
BRANCH   1  19
HETATM   19  C4  UNL     1      24.783   1.694  51.972  1.00  0.00     0.014 C 
HETATM   20  C3  UNL     1      25.838   2.165  51.335  1.00  0.00     0.002 C 
BRANCH  20  21
HETATM   21  C2  UNL     1      26.116   3.079  50.241  1.00  0.00     0.011 C 
HETATM   22  C1  UNL     1      25.772   4.311  50.047  1.00  0.00     0.054 C 
BRANCH  22  23
HETATM   23  N1  UNL     1      24.986   5.066  50.956  1.00  0.00    -0.312 NA
HETATM   24  H1  UNL     1      24.522   4.638  51.765  1.00  0.00     0.123 HD
HETATM   25  H2  UNL     1      24.516   4.632  51.777  1.00  0.00     0.123 HD
ENDBRANCH  22  23
ENDBRANCH  20  21
ENDBRANCH   1  19
TORSDOF 5
ENDMDL
MODEL 9
REMARK VINA RESULT:      -7.1      2.151      5.329
REMARK  5 active torsions:
REMARK  status: ('A' for Active; 'I' for Inactive)
REMARK    1  A    between atoms: N1_1  and  C1_2 
REMARK    2  A    between atoms: C2_3  and  C3_4 
REMARK    3  A    between atoms: C4_5  and  C5_6 
REMARK    4  A    between atoms: C10_13  and  C11_14 
REMARK    5  A    between atoms: C14_17  and  N4_18 
ROOT
HETATM    1  C5  UNL     1      25.444   1.720  52.279  1.00  0.00    -0.005 A 
HETATM    2  C6  UNL     1      26.772   2.000  52.089  1.00  0.00     0.034 A 
HETATM    3  C7  UNL     1      27.725   1.262  52.750  1.00  0.00     0.140 A 
HETATM    4  N2  UNL     1      27.300   0.267  53.579  1.00  0.00    -0.180 NA
HETATM    5  N3  UNL     1      26.004   0.047  53.720  1.00  0.00    -0.244 N 
HETATM    6  C8  UNL     1      25.448  -0.892  54.498  1.00  0.00     0.119 A 
HETATM    7  C9  UNL     1      24.087  -0.768  54.347  1.00  0.00     0.029 A 
HETATM    8  C10 UNL     1      23.769   0.266  53.457  1.00  0.00    -0.023 A 
HETATM    9  C17 UNL     1      24.997   0.731  53.103  1.00  0.00     0.075 A 
ENDROOT
BRANCH   8  10
HETATM   10  C11 UNL     1      22.427   0.673  53.091  1.00  0.00     0.021 C 
HETATM   11  C12 UNL     1      22.036  -0.032  51.803  1.00  0.00     0.011 C 
HETATM   12  C13 UNL     1      20.587   0.244  51.461  1.00  0.00     0.036 C 
HETATM   13  C14 UNL     1      19.717  -0.316  52.561  1.00  0.00     0.218 C 
HETATM   14  C15 UNL     1      20.045   0.476  53.827  1.00  0.00     0.036 C 
HETATM   15  C16 UNL     1      21.479   0.146  54.207  1.00  0.00     0.011 C 
BRANCH  13  16
HETATM   16  N4  UNL     1      18.314  -0.075  52.282  1.00  0.00     0.082 N 
HETATM   17  H17 UNL     1      17.969  -0.676  51.510  1.00  0.00     0.313 HD
HETATM   18  H18 UNL     1      18.116   0.934  52.106  1.00  0.00     0.313 HD
ENDBRANCH  13  16
ENDBRANCH   8  10
BRANCH   1  19
HETATM   19  C4  UNL     1      24.476   2.502  51.562  1.00  0.00     0.014 C 
HETATM   20  C3  UNL     1      24.162   3.755  51.827  1.00  0.00     0.002 C 
BRANCH  20  21
HETATM   21  C2  UNL     1      23.264   4.772  51.308  1.00  0.00     0.011 C 
HETATM   22  C1  UNL     1      23.322   6.064  51.345  1.00  0.00     0.054 C 
BRANCH  22  23
HETATM   23  N1  UNL     1      24.375   6.792  51.958  1.00  0.00    -0.312 NA
HETATM   24  H1  UNL     1      25.287   6.922  51.504  1.00  0.00     0.123 HD
HETATM   25  H2  UNL     1      25.299   6.924  51.498  1.00  0.00     0.123 HD
ENDBRANCH  22  23
ENDBRANCH  20  21
ENDBRANCH   1  19
TORSDOF 5
ENDMDL
