MODEL 1
REMARK VINA RESULT:      -8.4      0.000      0.000
REMARK  5 active torsions:
REMARK  status: ('A' for Active; 'I' for Inactive)
REMARK    1  A    between atoms: N1_2  and  C1_3 
REMARK    2  A    between atoms: C7_9  and  C8_10 
REMARK    3  A    between atoms: N4_17  and  C13_18 
REMARK    4  A    between atoms: C13_18  and  C14_19 
REMARK    5  A    between atoms: C14_19  and  O2_20 
ROOT
HETATM    1  C1  UNL     1      25.682  -0.863  53.903  1.00  0.00     0.172 C 
HETATM    2  C2  UNL     1      26.509  -1.014  52.646  1.00  0.00     0.039 C 
HETATM    3  C3  UNL     1      26.640   0.421  52.232  1.00  0.00     0.041 C 
HETATM    4  C4  UNL     1      25.377   1.039  52.796  1.00  0.00    -0.053 C 
HETATM    5  C5  UNL     1      25.300   2.389  52.641  1.00  0.00    -0.013 C 
HETATM    6  C6  UNL     1      24.269   3.378  53.034  1.00  0.00     0.089 C 
HETATM    7  C7  UNL     1      23.630   3.884  51.762  1.00  0.00     0.068 C 
HETATM    8  N3  UNL     1      22.569   3.648  51.153  1.00  0.00    -0.181 NA
HETATM    9  N4  UNL     1      21.451   2.919  51.183  1.00  0.00    -0.301 N 
HETATM   10  C15 UNL     1      20.888   1.803  50.496  1.00  0.00     0.171 C 
HETATM   11  C16 UNL     1      20.551   0.548  51.176  1.00  0.00     0.189 C 
HETATM   12  O3  UNL     1      21.527  -0.180  51.768  1.00  0.00    -0.386 OA
HETATM   13  C17 UNL     1      22.204   0.433  52.785  1.00  0.00     0.195 C 
HETATM   14  C18 UNL     1      23.247  -0.412  53.353  1.00  0.00     0.009 C 
HETATM   15  C19 UNL     1      24.548  -0.046  53.330  1.00  0.00    -0.027 C 
ENDROOT
BRANCH   7  16
HETATM   16  C8  UNL     1      24.385   4.806  50.918  1.00  0.00    -0.007 A 
HETATM   17  C9  UNL     1      24.353   6.180  51.027  1.00  0.00     0.032 A 
HETATM   18  C10 UNL     1      25.105   7.064  50.242  1.00  0.00     0.117 A 
HETATM   19  N2  UNL     1      25.921   6.545  49.311  1.00  0.00    -0.273 NA
HETATM   20  C11 UNL     1      26.023   5.203  49.128  1.00  0.00     0.117 A 
HETATM   21  C12 UNL     1      25.259   4.385  49.931  1.00  0.00     0.032 A 
ENDBRANCH   7  16
BRANCH   9  22
HETATM   22  C13 UNL     1      20.384   3.340  52.105  1.00  0.00     0.170 C 
BRANCH  22  23
HETATM   23  C14 UNL     1      19.198   3.924  51.356  1.00  0.00     0.185 C 
BRANCH  23  24
HETATM   24  O2  UNL     1      17.991   3.529  51.968  1.00  0.00    -0.399 OA
HETATM   25  H17 UNL     1      17.419   3.124  51.279  1.00  0.00     0.209 HD
ENDBRANCH  23  24
ENDBRANCH  22  23
ENDBRANCH   9  22
BRANCH   1  26
HETATM   26  N1  UNL     1      26.461  -0.060  54.808  1.00  0.00    -0.131 NA
HETATM   27  O1  UNL     1      27.513  -0.450  55.216  1.00  0.00    -0.066 OA
ENDBRANCH   1  26
TORSDOF 5
ENDMDL
MODEL 2
REMARK VINA RESULT:      -7.3      2.539      5.554
REMARK  5 active torsions:
REMARK  status: ('A' for Active; 'I' for Inactive)
REMARK    1  A    between atoms: N1_2  and  C1_3 
REMARK    2  A    between atoms: C7_9  and  C8_10 
REMARK    3  A    between atoms: N4_17  and  C13_18 
REMARK    4  A    between atoms: C13_18  and  C14_19 
REMARK    5  A    between atoms: C14_19  and  O2_20 
ROOT
HETATM    1  C1  UNL     1      25.816  -0.014  53.587  1.00  0.00     0.172 C 
HETATM    2  C2  UNL     1      25.181  -0.263  54.938  1.00  0.00     0.039 C 
HETATM    3  C3  UNL     1      23.834  -0.768  54.517  1.00  0.00     0.041 C 
HETATM    4  C4  UNL     1      23.632  -0.083  53.180  1.00  0.00    -0.053 C 
HETATM    5  C5  UNL     1      22.501  -0.461  52.525  1.00  0.00    -0.013 C 
HETATM    6  C6  UNL     1      21.924  -0.058  51.221  1.00  0.00     0.089 C 
HETATM    7  C7  UNL     1      20.671   0.732  51.513  1.00  0.00     0.068 C 
HETATM    8  N3  UNL     1      20.376   1.942  51.541  1.00  0.00    -0.181 NA
HETATM    9  N4  UNL     1      20.864   3.172  51.366  1.00  0.00    -0.301 N 
HETATM   10  C15 UNL     1      21.225   4.298  52.162  1.00  0.00     0.171 C 
HETATM   11  C16 UNL     1      22.592   4.829  52.203  1.00  0.00     0.189 C 
HETATM   12  O3  UNL     1      23.602   4.052  52.663  1.00  0.00    -0.386 OA
HETATM   13  C17 UNL     1      23.845   2.902  51.964  1.00  0.00     0.195 C 
HETATM   14  C18 UNL     1      24.932   2.118  52.536  1.00  0.00     0.009 C 
HETATM   15  C19 UNL     1      24.739   0.861  52.990  1.00  0.00    -0.027 C 
ENDROOT
BRANCH   7  16
HETATM   16  C8  UNL     1      19.482   0.015  51.969  1.00  0.00    -0.007 A 
HETATM   17  C9  UNL     1      19.385  -0.674  53.159  1.00  0.00     0.032 A 
HETATM   18  C10 UNL     1      18.234  -1.330  53.614  1.00  0.00     0.117 A 
HETATM   19  N2  UNL     1      17.138  -1.293  52.839  1.00  0.00    -0.273 NA
HETATM   20  C11 UNL     1      17.134  -0.639  51.648  1.00  0.00     0.117 A 
HETATM   21  C12 UNL     1      18.296  -0.012  51.257  1.00  0.00     0.032 A 
ENDBRANCH   7  16
BRANCH   9  22
HETATM   22  C13 UNL     1      21.059   3.641  49.984  1.00  0.00     0.170 C 
BRANCH  22  23
HETATM   23  C14 UNL     1      19.817   3.412  49.137  1.00  0.00     0.185 C 
BRANCH  23  24
HETATM   24  O2  UNL     1      19.894   2.164  48.486  1.00  0.00    -0.399 OA
HETATM   25  H17 UNL     1      20.835   1.998  48.257  1.00  0.00     0.209 HD
ENDBRANCH  23  24
ENDBRANCH  22  23
ENDBRANCH   9  22
BRANCH   1  26
HETATM   26  N1  UNL     1      25.849  -1.285  52.913  1.00  0.00    -0.131 NA
HETATM   27  O1  UNL     1      26.814  -1.985  52.981  1.00  0.00    -0.066 OA
ENDBRANCH   1  26
TORSDOF 5
ENDMDL
MODEL 3
REMARK VINA RESULT:      -6.7      2.803      7.072
REMARK  5 active torsions:
REMARK  status: ('A' for Active; 'I' for Inactive)
REMARK    1  A    between atoms: N1_2  and  C1_3 
REMARK    2  A    between atoms: C7_9  and  C8_10 
REMARK    3  A    between atoms: N4_17  and  C13_18 
REMARK    4  A    between atoms: C13_18  and  C14_19 
REMARK    5  A    between atoms: C14_19  and  O2_20 
ROOT
HETATM    1  C1  UNL     1      16.503   1.144  50.390  1.00  0.00     0.172 C 
HETATM    2  C2  UNL     1      16.735  -0.351  50.346  1.00  0.00     0.039 C 
HETATM    3  C3  UNL     1      17.788  -0.495  51.403  1.00  0.00     0.041 C 
HETATM    4  C4  UNL     1      18.483   0.851  51.356  1.00  0.00    -0.053 C 
HETATM    5  C5  UNL     1      19.437   1.019  52.311  1.00  0.00    -0.013 C 
HETATM    6  C6  UNL     1      20.340   2.151  52.627  1.00  0.00     0.089 C 
HETATM    7  C7  UNL     1      21.742   1.714  52.276  1.00  0.00     0.068 C 
HETATM    8  N3  UNL     1      22.515   1.913  51.320  1.00  0.00    -0.181 NA
HETATM    9  N4  UNL     1      22.635   2.537  50.145  1.00  0.00    -0.301 N 
HETATM   10  C15 UNL     1      22.661   2.203  48.759  1.00  0.00     0.171 C 
HETATM   11  C16 UNL     1      21.665   2.709  47.809  1.00  0.00     0.189 C 
HETATM   12  O3  UNL     1      20.359   2.386  47.966  1.00  0.00    -0.386 OA
HETATM   13  C17 UNL     1      19.770   2.803  49.127  1.00  0.00     0.195 C 
HETATM   14  C18 UNL     1      18.373   2.398  49.224  1.00  0.00     0.009 C 
HETATM   15  C19 UNL     1      17.933   1.599  50.220  1.00  0.00    -0.027 C 
ENDROOT
BRANCH   7  16
HETATM   16  C8  UNL     1      22.416   0.757  53.150  1.00  0.00    -0.007 A 
HETATM   17  C9  UNL     1      21.791  -0.010  54.110  1.00  0.00     0.032 A 
HETATM   18  C10 UNL     1      22.431  -0.955  54.923  1.00  0.00     0.117 A 
HETATM   19  N2  UNL     1      23.752  -1.134  54.763  1.00  0.00    -0.273 NA
HETATM   20  C11 UNL     1      24.457  -0.426  53.842  1.00  0.00     0.117 A 
HETATM   21  C12 UNL     1      23.771   0.487  53.072  1.00  0.00     0.032 A 
ENDBRANCH   7  16
BRANCH   9  22
HETATM   22  C13 UNL     1      22.893   3.986  50.164  1.00  0.00     0.170 C 
BRANCH  22  23
HETATM   23  C14 UNL     1      24.334   4.291  50.541  1.00  0.00     0.185 C 
BRANCH  23  24
HETATM   24  O2  UNL     1      24.529   4.089  51.923  1.00  0.00    -0.399 OA
HETATM   25  H17 UNL     1      25.226   4.713  52.226  1.00  0.00     0.209 HD
ENDBRANCH  23  24
ENDBRANCH  22  23
ENDBRANCH   9  22
BRANCH   1  26
HETATM   26  N1  UNL     1      16.044   1.444  51.721  1.00  0.00    -0.131 NA
HETATM   27  O1  UNL     1      14.905   1.742  51.919  1.00  0.00    -0.066 OA
ENDBRANCH   1  26
TORSDOF 5
ENDMDL
MODEL 4
REMARK VINA RESULT:      -6.7      2.510      6.127
REMARK  5 active torsions:
REMARK  status: ('A' for Active; 'I' for Inactive)
REMARK    1  A    between atoms: N1_2  and  C1_3 
REMARK    2  A    between atoms: C7_9  and  C8_10 
REMARK    3  A    between atoms: N4_17  and  C13_18 
REMARK    4  A    between atoms: C13_18  and  C14_19 
REMARK    5  A    between atoms: C14_19  and  O2_20 
ROOT
HETATM    1  C1  UNL     1      23.886   7.574  48.695  1.00  0.00     0.172 C 
HETATM    2  C2  UNL     1      24.469   8.197  49.945  1.00  0.00     0.039 C 
HETATM    3  C3  UNL     1      25.280   7.050  50.468  1.00  0.00     0.041 C 
HETATM    4  C4  UNL     1      24.522   5.848  49.941  1.00  0.00    -0.053 C 
HETATM    5  C5  UNL     1      25.122   4.653  50.198  1.00  0.00    -0.013 C 
HETATM    6  C6  UNL     1      24.742   3.259  49.872  1.00  0.00     0.089 C 
HETATM    7  C7  UNL     1      24.384   2.580  51.173  1.00  0.00     0.068 C 
HETATM    8  N3  UNL     1      23.320   2.289  51.754  1.00  0.00    -0.181 NA
HETATM    9  N4  UNL     1      21.990   2.356  51.658  1.00  0.00    -0.301 N 
HETATM   10  C15 UNL     1      20.915   3.079  52.254  1.00  0.00     0.171 C 
HETATM   11  C16 UNL     1      20.027   3.951  51.477  1.00  0.00     0.189 C 
HETATM   12  O3  UNL     1      20.535   5.033  50.840  1.00  0.00    -0.386 OA
HETATM   13  C17 UNL     1      21.474   4.781  49.879  1.00  0.00     0.195 C 
HETATM   14  C18 UNL     1      21.980   5.998  49.257  1.00  0.00     0.009 C 
HETATM   15  C19 UNL     1      23.287   6.336  49.319  1.00  0.00    -0.027 C 
ENDROOT
BRANCH   7  16
HETATM   16  C8  UNL     1      25.459   2.215  52.092  1.00  0.00    -0.007 A 
HETATM   17  C9  UNL     1      26.802   2.412  51.851  1.00  0.00     0.032 A 
HETATM   18  C10 UNL     1      27.832   2.096  52.747  1.00  0.00     0.117 A 
HETATM   19  N2  UNL     1      27.496   1.559  53.930  1.00  0.00    -0.273 NA
HETATM   20  C11 UNL     1      26.200   1.327  54.261  1.00  0.00     0.117 A 
HETATM   21  C12 UNL     1      25.233   1.660  53.339  1.00  0.00     0.032 A 
ENDBRANCH   7  16
BRANCH   9  22
HETATM   22  C13 UNL     1      21.319   1.401  50.761  1.00  0.00     0.170 C 
BRANCH  22  23
HETATM   23  C14 UNL     1      20.876   0.153  51.507  1.00  0.00     0.185 C 
BRANCH  23  24
HETATM   24  O2  UNL     1      21.921  -0.323  52.326  1.00  0.00    -0.399 OA
HETATM   25  H17 UNL     1      22.638  -0.655  51.743  1.00  0.00     0.209 HD
ENDBRANCH  23  24
ENDBRANCH  22  23
ENDBRANCH   9  22
BRANCH   1  26
HETATM   26  N1  UNL     1      25.003   7.216  47.861  1.00  0.00    -0.131 NA
HETATM   27  O1  UNL     1      25.172   7.753  46.808  1.00  0.00    -0.066 OA
ENDBRANCH   1  26
TORSDOF 5
ENDMDL
MODEL 5
REMARK VINA RESULT:      -6.7      2.951      6.374
REMARK  5 active torsions:
REMARK  status: ('A' for Active; 'I' for Inactive)
REMARK    1  A    between atoms: N1_2  and  C1_3 
REMARK    2  A    between atoms: C7_9  and  C8_10 
REMARK    3  A    between atoms: N4_17  and  C13_18 
REMARK    4  A    between atoms: C13_18  and  C14_19 
REMARK    5  A    between atoms: C14_19  and  O2_20 
ROOT
HETATM    1  C1  UNL     1      25.256   7.911  47.943  1.00  0.00     0.172 C 
HETATM    2  C2  UNL     1      25.475   8.527  49.308  1.00  0.00     0.039 C 
HETATM    3  C3  UNL     1      26.038   7.352  50.050  1.00  0.00     0.041 C 
HETATM    4  C4  UNL     1      25.409   6.178  49.327  1.00  0.00    -0.053 C 
HETATM    5  C5  UNL     1      25.847   4.962  49.752  1.00  0.00    -0.013 C 
HETATM    6  C6  UNL     1      25.510   3.581  49.333  1.00  0.00     0.089 C 
HETATM    7  C7  UNL     1      24.751   2.943  50.472  1.00  0.00     0.068 C 
HETATM    8  N3  UNL     1      23.551   2.712  50.713  1.00  0.00    -0.181 NA
HETATM    9  N4  UNL     1      22.313   2.840  50.229  1.00  0.00    -0.301 N 
HETATM   10  C15 UNL     1      21.147   3.622  50.478  1.00  0.00     0.171 C 
HETATM   11  C16 UNL     1      20.572   4.522  49.471  1.00  0.00     0.189 C 
HETATM   12  O3  UNL     1      21.299   5.568  49.010  1.00  0.00    -0.386 OA
HETATM   13  C17 UNL     1      22.466   5.255  48.369  1.00  0.00     0.195 C 
HETATM   14  C18 UNL     1      23.193   6.436  47.922  1.00  0.00     0.009 C 
HETATM   15  C19 UNL     1      24.438   6.713  48.366  1.00  0.00    -0.027 C 
ENDROOT
BRANCH   7  16
HETATM   16  C8  UNL     1      25.488   2.544  51.668  1.00  0.00    -0.007 A 
HETATM   17  C9  UNL     1      24.970   2.535  52.946  1.00  0.00     0.032 A 
HETATM   18  C10 UNL     1      25.665   2.117  54.089  1.00  0.00     0.117 A 
HETATM   19  N2  UNL     1      26.929   1.692  53.939  1.00  0.00    -0.273 NA
HETATM   20  C11 UNL     1      27.528   1.663  52.721  1.00  0.00     0.117 A 
HETATM   21  C12 UNL     1      26.793   2.086  51.635  1.00  0.00     0.032 A 
ENDBRANCH   7  16
BRANCH   9  22
HETATM   22  C13 UNL     1      21.889   1.902  49.176  1.00  0.00     0.170 C 
BRANCH  22  23
HETATM   23  C14 UNL     1      20.986   0.812  49.731  1.00  0.00     0.185 C 
BRANCH  23  24
HETATM   24  O2  UNL     1      21.554   0.252  50.894  1.00  0.00    -0.399 OA
HETATM   25  H17 UNL     1      20.931  -0.425  51.240  1.00  0.00     0.209 HD
ENDBRANCH  23  24
ENDBRANCH  22  23
ENDBRANCH   9  22
BRANCH   1  26
HETATM   26  N1  UNL     1      26.550   7.486  47.477  1.00  0.00    -0.131 NA
HETATM   27  O1  UNL     1      27.179   8.166  46.724  1.00  0.00    -0.066 OA
ENDBRANCH   1  26
TORSDOF 5
ENDMDL
MODEL 6
REMARK VINA RESULT:      -6.5      6.031      9.932
REMARK  5 active torsions:
REMARK  status: ('A' for Active; 'I' for Inactive)
REMARK    1  A    between atoms: N1_2  and  C1_3 
REMARK    2  A    between atoms: C7_9  and  C8_10 
REMARK    3  A    between atoms: N4_17  and  C13_18 
REMARK    4  A    between atoms: C13_18  and  C14_19 
REMARK    5  A    between atoms: C14_19  and  O2_20 
ROOT
HETATM    1  C1  UNL     1      25.414   5.445  49.150  1.00  0.00     0.172 C 
HETATM    2  C2  UNL     1      25.282   6.262  50.417  1.00  0.00     0.039 C 
HETATM    3  C3  UNL     1      25.563   7.635  49.886  1.00  0.00     0.041 C 
HETATM    4  C4  UNL     1      26.471   7.349  48.707  1.00  0.00    -0.053 C 
HETATM    5  C5  UNL     1      26.797   8.449  47.974  1.00  0.00    -0.013 C 
HETATM    6  C6  UNL     1      27.637   8.626  46.766  1.00  0.00     0.089 C 
HETATM    7  C7  UNL     1      28.870   9.387  47.190  1.00  0.00     0.068 C 
HETATM    8  N3  UNL     1      30.050   9.082  47.450  1.00  0.00    -0.181 NA
HETATM    9  N4  UNL     1      30.904   8.058  47.526  1.00  0.00    -0.301 N 
HETATM   10  C15 UNL     1      31.569   7.299  48.533  1.00  0.00     0.171 C 
HETATM   11  C16 UNL     1      31.363   5.856  48.697  1.00  0.00     0.189 C 
HETATM   12  O3  UNL     1      30.133   5.383  49.010  1.00  0.00    -0.386 OA
HETATM   13  C17 UNL     1      29.141   5.635  48.103  1.00  0.00     0.195 C 
HETATM   14  C18 UNL     1      27.849   5.109  48.525  1.00  0.00     0.009 C 
HETATM   15  C19 UNL     1      26.784   5.916  48.721  1.00  0.00    -0.027 C 
ENDROOT
BRANCH   7  16
HETATM   16  C8  UNL     1      28.749  10.814  47.479  1.00  0.00    -0.007 A 
HETATM   17  C9  UNL     1      28.846  11.374  48.735  1.00  0.00     0.032 A 
HETATM   18  C10 UNL     1      28.766  12.746  49.008  1.00  0.00     0.117 A 
HETATM   19  N2  UNL     1      28.580  13.586  47.977  1.00  0.00    -0.273 NA
HETATM   20  C11 UNL     1      28.473  13.130  46.702  1.00  0.00     0.117 A 
HETATM   21  C12 UNL     1      28.561  11.771  46.497  1.00  0.00     0.032 A 
ENDBRANCH   7  16
BRANCH   9  22
HETATM   22  C13 UNL     1      31.443   7.521  46.266  1.00  0.00     0.170 C 
BRANCH  22  23
HETATM   23  C14 UNL     1      32.368   8.516  45.586  1.00  0.00     0.185 C 
BRANCH  23  24
HETATM   24  O2  UNL     1      31.616   9.506  44.921  1.00  0.00    -0.399 OA
HETATM   25  H17 UNL     1      31.208   9.096  44.127  1.00  0.00     0.209 HD
ENDBRANCH  23  24
ENDBRANCH  22  23
ENDBRANCH   9  22
BRANCH   1  26
HETATM   26  N1  UNL     1      24.414   5.940  48.241  1.00  0.00    -0.131 NA
HETATM   27  O1  UNL     1      23.360   5.390  48.139  1.00  0.00    -0.066 OA
ENDBRANCH   1  26
TORSDOF 5
ENDMDL
MODEL 7
REMARK VINA RESULT:      -6.4      9.265     11.760
REMARK  5 active torsions:
REMARK  status: ('A' for Active; 'I' for Inactive)
REMARK    1  A    between atoms: N1_2  and  C1_3 
REMARK    2  A    between atoms: C7_9  and  C8_10 
REMARK    3  A    between atoms: N4_17  and  C13_18 
REMARK    4  A    between atoms: C13_18  and  C14_19 
REMARK    5  A    between atoms: C14_19  and  O2_20 
ROOT
HETATM    1  C1  UNL     1      32.883   3.835  47.432  1.00  0.00     0.172 C 
HETATM    2  C2  UNL     1      32.479   3.606  45.992  1.00  0.00     0.039 C 
HETATM    3  C3  UNL     1      33.003   4.859  45.359  1.00  0.00     0.041 C 
HETATM    4  C4  UNL     1      32.940   5.852  46.502  1.00  0.00    -0.053 C 
HETATM    5  C5  UNL     1      33.467   7.073  46.210  1.00  0.00    -0.013 C 
HETATM    6  C6  UNL     1      33.614   8.311  47.011  1.00  0.00     0.089 C 
HETATM    7  C7  UNL     1      32.675   9.336  46.420  1.00  0.00     0.068 C 
HETATM    8  N3  UNL     1      31.549   9.778  46.719  1.00  0.00    -0.181 NA
HETATM    9  N4  UNL     1      30.556   9.679  47.606  1.00  0.00    -0.301 N 
HETATM   10  C15 UNL     1      29.231   9.155  47.668  1.00  0.00     0.171 C 
HETATM   11  C16 UNL     1      28.848   8.090  48.602  1.00  0.00     0.189 C 
HETATM   12  O3  UNL     1      29.434   6.872  48.510  1.00  0.00    -0.386 OA
HETATM   13  C17 UNL     1      30.788   6.839  48.699  1.00  0.00     0.195 C 
HETATM   14  C18 UNL     1      31.339   5.496  48.566  1.00  0.00     0.009 C 
HETATM   15  C19 UNL     1      32.262   5.198  47.626  1.00  0.00    -0.027 C 
ENDROOT
BRANCH   7  16
HETATM   16  C8  UNL     1      33.029   9.958  45.147  1.00  0.00    -0.007 A 
HETATM   17  C9  UNL     1      34.294  10.386  44.804  1.00  0.00     0.032 A 
HETATM   18  C10 UNL     1      34.642  10.949  43.569  1.00  0.00     0.117 A 
HETATM   19  N2  UNL     1      33.679  11.087  42.644  1.00  0.00    -0.273 NA
HETATM   20  C11 UNL     1      32.402  10.694  42.887  1.00  0.00     0.117 A 
HETATM   21  C12 UNL     1      32.122  10.147  44.120  1.00  0.00     0.032 A 
ENDBRANCH   7  16
BRANCH   9  22
HETATM   22  C13 UNL     1      30.739  10.329  48.914  1.00  0.00     0.170 C 
BRANCH  22  23
HETATM   23  C14 UNL     1      30.683  11.843  48.797  1.00  0.00     0.185 C 
BRANCH  23  24
HETATM   24  O2  UNL     1      31.856  12.330  48.185  1.00  0.00    -0.399 OA
HETATM   25  H17 UNL     1      32.553  12.398  48.875  1.00  0.00     0.209 HD
ENDBRANCH  23  24
ENDBRANCH  22  23
ENDBRANCH   9  22
BRANCH   1  26
HETATM   26  N1  UNL     1      34.319   3.941  47.439  1.00  0.00    -0.131 NA
HETATM   27  O1  UNL     1      34.980   3.201  48.102  1.00  0.00    -0.066 OA
ENDBRANCH   1  26
TORSDOF 5
ENDMDL
MODEL 8
REMARK VINA RESULT:      -6.0     22.533     24.912
REMARK  5 active torsions:
REMARK  status: ('A' for Active; 'I' for Inactive)
REMARK    1  A    between atoms: N1_2  and  C1_3 
REMARK    2  A    between atoms: C7_9  and  C8_10 
REMARK    3  A    between atoms: N4_17  and  C13_18 
REMARK    4  A    between atoms: C13_18  and  C14_19 
REMARK    5  A    between atoms: C14_19  and  O2_20 
ROOT
HETATM    1  C1  UNL     1      38.463  -4.005  68.055  1.00  0.00     0.172 C 
HETATM    2  C2  UNL     1      37.953  -4.189  69.468  1.00  0.00     0.039 C 
HETATM    3  C3  UNL     1      37.719  -2.762  69.861  1.00  0.00     0.041 C 
HETATM    4  C4  UNL     1      38.735  -2.020  69.017  1.00  0.00    -0.053 C 
HETATM    5  C5  UNL     1      38.659  -0.665  69.114  1.00  0.00    -0.013 C 
HETATM    6  C6  UNL     1      39.437   0.424  68.477  1.00  0.00     0.089 C 
HETATM    7  C7  UNL     1      40.258   1.077  69.564  1.00  0.00     0.068 C 
HETATM    8  N3  UNL     1      41.447   1.013  69.931  1.00  0.00    -0.181 NA
HETATM    9  N4  UNL     1      42.621   0.432  69.675  1.00  0.00    -0.301 N 
HETATM   10  C15 UNL     1      43.466  -0.562  70.252  1.00  0.00     0.171 C 
HETATM   11  C16 UNL     1      43.817  -1.801  69.549  1.00  0.00     0.189 C 
HETATM   12  O3  UNL     1      42.845  -2.680  69.206  1.00  0.00    -0.386 OA
HETATM   13  C17 UNL     1      41.889  -2.216  68.346  1.00  0.00     0.195 C 
HETATM   14  C18 UNL     1      40.874  -3.217  68.045  1.00  0.00     0.009 C 
HETATM   15  C19 UNL     1      39.571  -3.019  68.343  1.00  0.00    -0.027 C 
ENDROOT
BRANCH   7  16
HETATM   16  C8  UNL     1      39.583   1.942  70.528  1.00  0.00    -0.007 A 
HETATM   17  C9  UNL     1      38.368   2.560  70.317  1.00  0.00     0.032 A 
HETATM   18  C10 UNL     1      37.702   3.360  71.255  1.00  0.00     0.117 A 
HETATM   19  N2  UNL     1      38.282   3.544  72.452  1.00  0.00    -0.273 NA
HETATM   20  C11 UNL     1      39.477   2.976  72.756  1.00  0.00     0.117 A 
HETATM   21  C12 UNL     1      40.083   2.200  71.792  1.00  0.00     0.032 A 
ENDBRANCH   7  16
BRANCH   9  22
HETATM   22  C13 UNL     1      43.399   0.933  68.530  1.00  0.00     0.170 C 
BRANCH  22  23
HETATM   23  C14 UNL     1      44.065   2.262  68.846  1.00  0.00     0.185 C 
BRANCH  23  24
HETATM   24  O2  UNL     1      45.164   2.473  67.990  1.00  0.00    -0.399 OA
HETATM   25  H17 UNL     1      45.710   3.198  68.368  1.00  0.00     0.209 HD
ENDBRANCH  23  24
ENDBRANCH  22  23
ENDBRANCH   9  22
BRANCH   1  26
HETATM   26  N1  UNL     1      37.406  -3.360  67.322  1.00  0.00    -0.131 NA
HETATM   27  O1  UNL     1      37.598  -2.937  66.222  1.00  0.00    -0.066 OA
ENDBRANCH   1  26
TORSDOF 5
ENDMDL
MODEL 9
REMARK VINA RESULT:      -5.9     22.402     25.919
REMARK  5 active torsions:
REMARK  status: ('A' for Active; 'I' for Inactive)
REMARK    1  A    between atoms: N1_2  and  C1_3 
REMARK    2  A    between atoms: C7_9  and  C8_10 
REMARK    3  A    between atoms: N4_17  and  C13_18 
REMARK    4  A    between atoms: C13_18  and  C14_19 
REMARK    5  A    between atoms: C14_19  and  O2_20 
ROOT
HETATM    1  C1  UNL     1      38.165  -1.636  68.500  1.00  0.00     0.172 C 
HETATM    2  C2  UNL     1      37.524  -0.316  68.870  1.00  0.00     0.039 C 
HETATM    3  C3  UNL     1      38.586   0.639  68.417  1.00  0.00     0.041 C 
HETATM    4  C4  UNL     1      39.849  -0.187  68.556  1.00  0.00    -0.053 C 
HETATM    5  C5  UNL     1      40.973   0.431  68.101  1.00  0.00    -0.013 C 
HETATM    6  C6  UNL     1      42.390   0.001  68.043  1.00  0.00     0.089 C 
HETATM    7  C7  UNL     1      43.153   0.847  69.035  1.00  0.00     0.068 C 
HETATM    8  N3  UNL     1      43.587   0.676  70.190  1.00  0.00    -0.181 NA
HETATM    9  N4  UNL     1      43.673  -0.208  71.187  1.00  0.00    -0.301 N 
HETATM   10  C15 UNL     1      43.104  -0.417  72.477  1.00  0.00     0.171 C 
HETATM   11  C16 UNL     1      42.314  -1.609  72.806  1.00  0.00     0.189 C 
HETATM   12  O3  UNL     1      41.158  -1.853  72.145  1.00  0.00    -0.386 OA
HETATM   13  C17 UNL     1      41.263  -2.038  70.794  1.00  0.00     0.195 C 
HETATM   14  C18 UNL     1      39.973  -2.277  70.159  1.00  0.00     0.009 C 
HETATM   15  C19 UNL     1      39.487  -1.451  69.207  1.00  0.00    -0.027 C 
ENDROOT
BRANCH   7  16
HETATM   16  C8  UNL     1      43.423   2.243  68.703  1.00  0.00    -0.007 A 
HETATM   17  C9  UNL     1      42.853   3.328  69.336  1.00  0.00     0.032 A 
HETATM   18  C10 UNL     1      43.139   4.668  69.044  1.00  0.00     0.117 A 
HETATM   19  N2  UNL     1      44.033   4.926  68.075  1.00  0.00    -0.273 NA
HETATM   20  C11 UNL     1      44.649   3.925  67.394  1.00  0.00     0.117 A 
HETATM   21  C12 UNL     1      44.326   2.628  67.728  1.00  0.00     0.032 A 
ENDBRANCH   7  16
BRANCH   9  22
HETATM   22  C13 UNL     1      44.668  -1.286  71.061  1.00  0.00     0.170 C 
BRANCH  22  23
HETATM   23  C14 UNL     1      46.038  -0.841  71.546  1.00  0.00     0.185 C 
BRANCH  23  24
HETATM   24  O2  UNL     1      46.489   0.260  70.789  1.00  0.00    -0.399 OA
HETATM   25  H17 UNL     1      45.915   0.339  69.995  1.00  0.00     0.209 HD
ENDBRANCH  23  24
ENDBRANCH  22  23
ENDBRANCH   9  22
BRANCH   1  26
HETATM   26  N1  UNL     1      38.359  -1.608  67.074  1.00  0.00    -0.131 NA
HETATM   27  O1  UNL     1      37.476  -1.920  66.334  1.00  0.00    -0.066 OA
ENDBRANCH   1  26
TORSDOF 5
ENDMDL
