MODEL 1
REMARK VINA RESULT:      -7.9      0.000      0.000
REMARK  0 active torsions:
REMARK  status: ('A' for Active; 'I' for Inactive)
ROOT
HETATM    1 BR1  UNL     1      25.598   0.407  52.639  1.00  0.00    -0.050 Br
HETATM    2  C1  UNL     1      23.833   0.017  53.325  1.00  0.00     0.020 A 
HETATM    3  C2  UNL     1      23.873  -0.814  54.425  1.00  0.00     0.020 A 
HETATM    4  C3  UNL     1      22.662  -1.149  54.994  1.00  0.00     0.004 A 
HETATM    5  C4  UNL     1      21.521  -0.603  54.383  1.00  0.00     0.031 A 
HETATM    6  C5  UNL     1      21.541   0.240  53.259  1.00  0.00     0.051 A 
HETATM    7  C6  UNL     1      22.725   0.586  52.681  1.00  0.00    -0.000 A 
HETATM    8  C7  UNL     1      23.023   1.432  51.551  1.00  0.00     0.116 C 
HETATM    9  C8  UNL     1      22.193   1.289  50.329  1.00  0.00    -0.030 C 
HETATM   10  C9  UNL     1      22.605   2.224  49.433  1.00  0.00     0.012 C 
HETATM   11  C10 UNL     1      23.682   3.252  49.555  1.00  0.00     0.304 C 
HETATM   12  N1  UNL     1      23.978   3.522  50.930  1.00  0.00     0.123 N 
HETATM   13  C11 UNL     1      23.873   4.880  51.348  1.00  0.00     0.302 C 
HETATM   14  C12 UNL     1      23.702   4.682  52.862  1.00  0.00     0.201 C 
HETATM   15  O1  UNL     1      23.539   3.289  53.043  1.00  0.00    -0.355 OA
HETATM   16  C13 UNL     1      23.019   2.905  51.840  1.00  0.00     0.372 C 
HETATM   17  C14 UNL     1      21.082   0.472  49.770  1.00  0.00     0.119 C 
HETATM   18  N2  UNL     1      20.441   1.042  50.705  1.00  0.00    -0.285 NA
HETATM   19  C15 UNL     1      19.073   0.918  51.087  1.00  0.00     0.258 C 
HETATM   20  N3  UNL     1      19.124  -0.060  52.191  1.00  0.00    -0.220 NA
HETATM   21  N4  UNL     1      20.126   0.496  53.051  1.00  0.00    -0.319 N 
HETATM   22  H16 UNL     1      19.383  -0.993  51.868  1.00  0.00     0.148 HD
HETATM   23  H17 UNL     1      19.869   1.256  53.721  1.00  0.00     0.181 HD
ENDROOT
TORSDOF 0
ENDMDL
MODEL 2
REMARK VINA RESULT:      -7.8      2.612      4.051
REMARK  0 active torsions:
REMARK  status: ('A' for Active; 'I' for Inactive)
ROOT
HETATM    1 BR1  UNL     1      20.318   2.764  52.662  1.00  0.00    -0.050 Br
HETATM    2  C1  UNL     1      21.342   1.221  53.219  1.00  0.00     0.020 A 
HETATM    3  C2  UNL     1      20.669   0.456  54.148  1.00  0.00     0.020 A 
HETATM    4  C3  UNL     1      21.314  -0.673  54.607  1.00  0.00     0.004 A 
HETATM    5  C4  UNL     1      22.591  -0.915  54.074  1.00  0.00     0.031 A 
HETATM    6  C5  UNL     1      23.229  -0.097  53.127  1.00  0.00     0.051 A 
HETATM    7  C6  UNL     1      22.612   1.023  52.657  1.00  0.00    -0.000 A 
HETATM    8  C7  UNL     1      23.030   2.010  51.691  1.00  0.00     0.116 C 
HETATM    9  C8  UNL     1      24.422   2.518  51.764  1.00  0.00    -0.030 C 
HETATM   10  C9  UNL     1      24.609   3.373  50.725  1.00  0.00     0.012 C 
HETATM   11  C10 UNL     1      23.658   3.792  49.652  1.00  0.00     0.304 C 
HETATM   12  N1  UNL     1      22.606   2.833  49.498  1.00  0.00     0.123 N 
HETATM   13  C11 UNL     1      22.431   2.284  48.195  1.00  0.00     0.302 C 
HETATM   14  C12 UNL     1      21.678   0.992  48.548  1.00  0.00     0.201 C 
HETATM   15  O1  UNL     1      21.716   0.907  49.959  1.00  0.00    -0.355 OA
HETATM   16  C13 UNL     1      22.849   1.610  50.255  1.00  0.00     0.372 C 
HETATM   17  C14 UNL     1      25.656   2.405  52.589  1.00  0.00     0.119 C 
HETATM   18  N2  UNL     1      25.617   1.216  52.149  1.00  0.00    -0.285 NA
HETATM   19  C15 UNL     1      26.498   0.120  52.389  1.00  0.00     0.258 C 
HETATM   20  N3  UNL     1      25.814  -0.625  53.464  1.00  0.00    -0.220 NA
HETATM   21  N4  UNL     1      24.492  -0.789  52.935  1.00  0.00    -0.319 N 
HETATM   22  H16 UNL     1      25.804  -0.110  54.345  1.00  0.00     0.148 HD
HETATM   23  H17 UNL     1      24.298  -1.563  52.260  1.00  0.00     0.181 HD
ENDROOT
TORSDOF 0
ENDMDL
MODEL 3
REMARK VINA RESULT:      -7.6      2.235      4.834
REMARK  0 active torsions:
REMARK  status: ('A' for Active; 'I' for Inactive)
ROOT
HETATM    1 BR1  UNL     1      22.861   0.150  53.512  1.00  0.00    -0.050 Br
HETATM    2  C1  UNL     1      24.360   0.865  52.521  1.00  0.00     0.020 A 
HETATM    3  C2  UNL     1      25.497   0.102  52.674  1.00  0.00     0.020 A 
HETATM    4  C3  UNL     1      26.625   0.526  52.002  1.00  0.00     0.004 A 
HETATM    5  C4  UNL     1      26.483   1.695  51.235  1.00  0.00     0.031 A 
HETATM    6  C5  UNL     1      25.294   2.434  51.116  1.00  0.00     0.051 A 
HETATM    7  C6  UNL     1      24.168   2.034  51.770  1.00  0.00    -0.000 A 
HETATM    8  C7  UNL     1      22.837   2.591  51.807  1.00  0.00     0.116 C 
HETATM    9  C8  UNL     1      22.696   4.060  51.964  1.00  0.00    -0.030 C 
HETATM   10  C9  UNL     1      21.372   4.361  51.901  1.00  0.00     0.012 C 
HETATM   11  C10 UNL     1      20.197   3.458  51.712  1.00  0.00     0.304 C 
HETATM   12  N1  UNL     1      20.594   2.225  51.102  1.00  0.00     0.123 N 
HETATM   13  C11 UNL     1      19.927   1.869  49.894  1.00  0.00     0.302 C 
HETATM   14  C12 UNL     1      20.950   0.887  49.302  1.00  0.00     0.201 C 
HETATM   15  O1  UNL     1      22.089   0.985  50.133  1.00  0.00    -0.355 OA
HETATM   16  C13 UNL     1      21.973   2.253  50.627  1.00  0.00     0.372 C 
HETATM   17  C14 UNL     1      23.511   5.289  52.169  1.00  0.00     0.119 C 
HETATM   18  N2  UNL     1      23.925   4.982  51.009  1.00  0.00    -0.285 NA
HETATM   19  C15 UNL     1      24.884   5.631  50.177  1.00  0.00     0.258 C 
HETATM   20  N3  UNL     1      26.121   4.870  50.440  1.00  0.00    -0.220 NA
HETATM   21  N4  UNL     1      25.700   3.515  50.235  1.00  0.00    -0.319 N 
HETATM   22  H16 UNL     1      26.468   5.015  51.389  1.00  0.00     0.148 HD
HETATM   23  H17 UNL     1      25.655   3.129  49.265  1.00  0.00     0.181 HD
ENDROOT
TORSDOF 0
ENDMDL
MODEL 4
REMARK VINA RESULT:      -7.6      1.771      2.285
REMARK  0 active torsions:
REMARK  status: ('A' for Active; 'I' for Inactive)
ROOT
HETATM    1 BR1  UNL     1      26.343   2.344  50.623  1.00  0.00    -0.050 Br
HETATM    2  C1  UNL     1      25.714   1.138  51.998  1.00  0.00     0.020 A 
HETATM    3  C2  UNL     1      26.745   0.443  52.594  1.00  0.00     0.020 A 
HETATM    4  C3  UNL     1      26.402  -0.442  53.594  1.00  0.00     0.004 A 
HETATM    5  C4  UNL     1      25.032  -0.535  53.891  1.00  0.00     0.031 A 
HETATM    6  C5  UNL     1      24.022   0.200  53.249  1.00  0.00     0.051 A 
HETATM    7  C6  UNL     1      24.337   1.081  52.259  1.00  0.00    -0.000 A 
HETATM    8  C7  UNL     1      23.512   1.956  51.461  1.00  0.00     0.116 C 
HETATM    9  C8  UNL     1      22.249   1.413  50.904  1.00  0.00    -0.030 C 
HETATM   10  C9  UNL     1      21.611   2.423  50.257  1.00  0.00     0.012 C 
HETATM   11  C10 UNL     1      22.017   3.849  50.080  1.00  0.00     0.304 C 
HETATM   12  N1  UNL     1      22.960   4.240  51.084  1.00  0.00     0.123 N 
HETATM   13  C11 UNL     1      22.614   5.373  51.876  1.00  0.00     0.302 C 
HETATM   14  C12 UNL     1      23.509   5.127  53.101  1.00  0.00     0.201 C 
HETATM   15  O1  UNL     1      24.056   3.836  52.914  1.00  0.00    -0.355 OA
HETATM   16  C13 UNL     1      23.110   3.236  52.133  1.00  0.00     0.372 C 
HETATM   17  C14 UNL     1      21.467   0.149  50.819  1.00  0.00     0.119 C 
HETATM   18  N2  UNL     1      21.382   0.336  52.071  1.00  0.00    -0.285 NA
HETATM   19  C15 UNL     1      20.732  -0.444  53.073  1.00  0.00     0.258 C 
HETATM   20  N3  UNL     1      21.831  -1.262  53.621  1.00  0.00    -0.220 NA
HETATM   21  N4  UNL     1      22.828  -0.277  53.924  1.00  0.00    -0.319 N 
HETATM   22  H16 UNL     1      22.175  -1.947  52.948  1.00  0.00     0.148 HD
HETATM   23  H17 UNL     1      22.767   0.261  54.818  1.00  0.00     0.181 HD
ENDROOT
TORSDOF 0
ENDMDL
MODEL 5
REMARK VINA RESULT:      -7.1      2.026      2.645
REMARK  0 active torsions:
REMARK  status: ('A' for Active; 'I' for Inactive)
ROOT
HETATM    1 BR1  UNL     1      26.417   3.232  49.742  1.00  0.00    -0.050 Br
HETATM    2  C1  UNL     1      25.621   2.156  51.137  1.00  0.00     0.020 A 
HETATM    3  C2  UNL     1      26.570   1.540  51.925  1.00  0.00     0.020 A 
HETATM    4  C3  UNL     1      26.104   0.751  52.955  1.00  0.00     0.004 A 
HETATM    5  C4  UNL     1      24.707   0.663  53.082  1.00  0.00     0.031 A 
HETATM    6  C5  UNL     1      23.786   1.314  52.245  1.00  0.00     0.051 A 
HETATM    7  C6  UNL     1      24.222   2.100  51.222  1.00  0.00    -0.000 A 
HETATM    8  C7  UNL     1      23.504   2.878  50.242  1.00  0.00     0.116 C 
HETATM    9  C8  UNL     1      22.326   2.262  49.584  1.00  0.00    -0.030 C 
HETATM   10  C9  UNL     1      21.773   3.193  48.763  1.00  0.00     0.012 C 
HETATM   11  C10 UNL     1      22.192   4.602  48.499  1.00  0.00     0.304 C 
HETATM   12  N1  UNL     1      22.995   5.105  49.573  1.00  0.00     0.123 N 
HETATM   13  C11 UNL     1      22.543   6.303  50.198  1.00  0.00     0.302 C 
HETATM   14  C12 UNL     1      23.273   6.193  51.546  1.00  0.00     0.201 C 
HETATM   15  O1  UNL     1      23.845   4.901  51.560  1.00  0.00    -0.355 OA
HETATM   16  C13 UNL     1      23.011   4.211  50.726  1.00  0.00     0.372 C 
HETATM   17  C14 UNL     1      21.568   0.983  49.523  1.00  0.00     0.119 C 
HETATM   18  N2  UNL     1      21.320   1.289  50.729  1.00  0.00    -0.285 NA
HETATM   19  C15 UNL     1      20.549   0.598  51.711  1.00  0.00     0.258 C 
HETATM   20  N3  UNL     1      21.572  -0.142  52.475  1.00  0.00    -0.220 NA
HETATM   21  N4  UNL     1      22.516   0.885  52.805  1.00  0.00    -0.319 N 
HETATM   22  H16 UNL     1      22.004  -0.884  51.922  1.00  0.00     0.148 HD
HETATM   23  H17 UNL     1      22.337   1.506  53.626  1.00  0.00     0.181 HD
ENDROOT
TORSDOF 0
ENDMDL
MODEL 6
REMARK VINA RESULT:      -7.0      8.234     10.971
REMARK  0 active torsions:
REMARK  status: ('A' for Active; 'I' for Inactive)
ROOT
HETATM    1 BR1  UNL     1      26.313   9.207  49.285  1.00  0.00    -0.050 Br
HETATM    2  C1  UNL     1      27.104   7.478  48.931  1.00  0.00     0.020 A 
HETATM    3  C2  UNL     1      26.215   6.446  49.139  1.00  0.00     0.020 A 
HETATM    4  C3  UNL     1      26.682   5.168  48.909  1.00  0.00     0.004 A 
HETATM    5  C4  UNL     1      28.018   5.067  48.486  1.00  0.00     0.031 A 
HETATM    6  C5  UNL     1      28.880   6.158  48.290  1.00  0.00     0.051 A 
HETATM    7  C6  UNL     1      28.442   7.429  48.511  1.00  0.00    -0.000 A 
HETATM    8  C7  UNL     1      29.103   8.704  48.374  1.00  0.00     0.116 C 
HETATM    9  C8  UNL     1      30.487   8.836  48.893  1.00  0.00    -0.030 C 
HETATM   10  C9  UNL     1      30.927  10.086  48.594  1.00  0.00     0.012 C 
HETATM   11  C10 UNL     1      30.230  11.197  47.880  1.00  0.00     0.304 C 
HETATM   12  N1  UNL     1      29.164  10.693  47.067  1.00  0.00     0.123 N 
HETATM   13  C11 UNL     1      29.204  11.029  45.684  1.00  0.00     0.302 C 
HETATM   14  C12 UNL     1      28.311   9.917  45.112  1.00  0.00     0.201 C 
HETATM   15  O1  UNL     1      28.072   9.034  46.190  1.00  0.00    -0.355 OA
HETATM   16  C13 UNL     1      29.173   9.237  46.972  1.00  0.00     0.372 C 
HETATM   17  C14 UNL     1      31.530   8.066  49.624  1.00  0.00     0.119 C 
HETATM   18  N2  UNL     1      31.495   7.371  48.563  1.00  0.00    -0.285 NA
HETATM   19  C15 UNL     1      32.236   6.206  48.204  1.00  0.00     0.258 C 
HETATM   20  N3  UNL     1      31.311   5.107  48.540  1.00  0.00    -0.220 NA
HETATM   21  N4  UNL     1      30.106   5.501  47.871  1.00  0.00    -0.319 N 
HETATM   22  H16 UNL     1      31.167   5.017  49.547  1.00  0.00     0.148 HD
HETATM   23  H17 UNL     1      29.992   5.301  46.851  1.00  0.00     0.181 HD
ENDROOT
TORSDOF 0
ENDMDL
MODEL 7
REMARK VINA RESULT:      -7.0      4.309      6.434
REMARK  0 active torsions:
REMARK  status: ('A' for Active; 'I' for Inactive)
ROOT
HETATM    1 BR1  UNL     1      22.463   4.103  51.993  1.00  0.00    -0.050 Br
HETATM    2  C1  UNL     1      24.227   3.568  51.408  1.00  0.00     0.020 A 
HETATM    3  C2  UNL     1      24.686   2.458  52.085  1.00  0.00     0.020 A 
HETATM    4  C3  UNL     1      25.937   1.993  51.737  1.00  0.00     0.004 A 
HETATM    5  C4  UNL     1      26.603   2.708  50.727  1.00  0.00     0.031 A 
HETATM    6  C5  UNL     1      26.083   3.836  50.071  1.00  0.00     0.051 A 
HETATM    7  C6  UNL     1      24.850   4.314  50.396  1.00  0.00    -0.000 A 
HETATM    8  C7  UNL     1      24.089   5.424  49.878  1.00  0.00     0.116 C 
HETATM    9  C8  UNL     1      24.792   6.712  49.652  1.00  0.00    -0.030 C 
HETATM   10  C9  UNL     1      23.905   7.580  49.101  1.00  0.00     0.012 C 
HETATM   11  C10 UNL     1      22.468   7.379  48.746  1.00  0.00     0.304 C 
HETATM   12  N1  UNL     1      22.172   5.987  48.585  1.00  0.00     0.123 N 
HETATM   13  C11 UNL     1      21.606   5.597  47.337  1.00  0.00     0.302 C 
HETATM   14  C12 UNL     1      21.957   4.101  47.339  1.00  0.00     0.201 C 
HETATM   15  O1  UNL     1      22.812   3.917  48.451  1.00  0.00    -0.355 OA
HETATM   16  C13 UNL     1      23.371   5.156  48.588  1.00  0.00     0.372 C 
HETATM   17  C14 UNL     1      26.122   7.354  49.833  1.00  0.00     0.119 C 
HETATM   18  N2  UNL     1      26.451   6.487  48.967  1.00  0.00    -0.285 NA
HETATM   19  C15 UNL     1      27.718   6.223  48.367  1.00  0.00     0.258 C 
HETATM   20  N3  UNL     1      28.242   5.107  49.177  1.00  0.00    -0.220 NA
HETATM   21  N4  UNL     1      27.158   4.170  49.152  1.00  0.00    -0.319 N 
HETATM   22  H16 UNL     1      28.467   5.394  50.131  1.00  0.00     0.148 HD
HETATM   23  H17 UNL     1      27.043   3.535  48.330  1.00  0.00     0.181 HD
ENDROOT
TORSDOF 0
ENDMDL
MODEL 8
REMARK VINA RESULT:      -6.9      1.537      2.082
REMARK  0 active torsions:
REMARK  status: ('A' for Active; 'I' for Inactive)
ROOT
HETATM    1 BR1  UNL     1      23.816   0.294  52.961  1.00  0.00    -0.050 Br
HETATM    2  C1  UNL     1      21.914   0.358  52.615  1.00  0.00     0.020 A 
HETATM    3  C2  UNL     1      21.200  -0.444  53.479  1.00  0.00     0.020 A 
HETATM    4  C3  UNL     1      19.831  -0.465  53.319  1.00  0.00     0.004 A 
HETATM    5  C4  UNL     1      19.318   0.337  52.285  1.00  0.00     0.031 A 
HETATM    6  C5  UNL     1      20.097   1.136  51.432  1.00  0.00     0.051 A 
HETATM    7  C6  UNL     1      21.452   1.175  51.573  1.00  0.00    -0.000 A 
HETATM    8  C7  UNL     1      22.466   1.907  50.854  1.00  0.00     0.116 C 
HETATM    9  C8  UNL     1      22.377   1.959  49.374  1.00  0.00    -0.030 C 
HETATM   10  C9  UNL     1      23.383   2.754  48.924  1.00  0.00     0.012 C 
HETATM   11  C10 UNL     1      24.435   3.487  49.690  1.00  0.00     0.304 C 
HETATM   12  N1  UNL     1      24.029   3.692  51.047  1.00  0.00     0.123 N 
HETATM   13  C11 UNL     1      24.020   5.038  51.512  1.00  0.00     0.302 C 
HETATM   14  C12 UNL     1      23.054   4.906  52.700  1.00  0.00     0.201 C 
HETATM   15  O1  UNL     1      22.525   3.598  52.609  1.00  0.00    -0.355 OA
HETATM   16  C13 UNL     1      22.631   3.340  51.272  1.00  0.00     0.372 C 
HETATM   17  C14 UNL     1      21.568   1.433  48.241  1.00  0.00     0.119 C 
HETATM   18  N2  UNL     1      20.678   2.155  48.786  1.00  0.00    -0.285 NA
HETATM   19  C15 UNL     1      19.320   2.375  48.411  1.00  0.00     0.258 C 
HETATM   20  N3  UNL     1      18.581   1.428  49.267  1.00  0.00    -0.220 NA
HETATM   21  N4  UNL     1      19.088   1.730  50.573  1.00  0.00    -0.319 N 
HETATM   22  H16 UNL     1      18.760   0.456  49.011  1.00  0.00     0.148 HD
HETATM   23  H17 UNL     1      18.693   2.538  51.106  1.00  0.00     0.181 HD
ENDROOT
TORSDOF 0
ENDMDL
MODEL 9
REMARK VINA RESULT:      -6.8      4.068      6.734
REMARK  0 active torsions:
REMARK  status: ('A' for Active; 'I' for Inactive)
ROOT
HETATM    1 BR1  UNL     1      21.980   3.318  49.089  1.00  0.00    -0.050 Br
HETATM    2  C1  UNL     1      22.117   5.145  49.707  1.00  0.00     0.020 A 
HETATM    3  C2  UNL     1      20.890   5.771  49.759  1.00  0.00     0.020 A 
HETATM    4  C3  UNL     1      20.878   7.080  50.193  1.00  0.00     0.004 A 
HETATM    5  C4  UNL     1      22.126   7.629  50.533  1.00  0.00     0.031 A 
HETATM    6  C5  UNL     1      23.349   6.940  50.459  1.00  0.00     0.051 A 
HETATM    7  C6  UNL     1      23.385   5.646  50.035  1.00  0.00    -0.000 A 
HETATM    8  C7  UNL     1      24.482   4.722  49.882  1.00  0.00     0.116 C 
HETATM    9  C8  UNL     1      25.732   5.215  49.253  1.00  0.00    -0.030 C 
HETATM   10  C9  UNL     1      26.639   4.204  49.280  1.00  0.00     0.012 C 
HETATM   11  C10 UNL     1      26.506   2.817  49.819  1.00  0.00     0.304 C 
HETATM   12  N1  UNL     1      25.451   2.743  50.784  1.00  0.00     0.123 N 
HETATM   13  C11 UNL     1      25.800   2.249  52.073  1.00  0.00     0.302 C 
HETATM   14  C12 UNL     1      24.647   2.830  52.905  1.00  0.00     0.201 C 
HETATM   15  O1  UNL     1      23.954   3.700  52.032  1.00  0.00    -0.355 OA
HETATM   16  C13 UNL     1      24.935   4.058  51.150  1.00  0.00     0.372 C 
HETATM   17  C14 UNL     1      26.307   6.428  48.610  1.00  0.00     0.119 C 
HETATM   18  N2  UNL     1      26.163   6.890  49.782  1.00  0.00    -0.285 NA
HETATM   19  C15 UNL     1      26.463   8.184  50.301  1.00  0.00     0.258 C 
HETATM   20  N3  UNL     1      25.160   8.876  50.243  1.00  0.00    -0.220 NA
HETATM   21  N4  UNL     1      24.290   7.951  50.909  1.00  0.00    -0.319 N 
HETATM   22  H16 UNL     1      24.858   9.050  49.284  1.00  0.00     0.148 HD
HETATM   23  H17 UNL     1      24.250   7.940  51.953  1.00  0.00     0.181 HD
ENDROOT
TORSDOF 0
ENDMDL
