MODEL 1
REMARK VINA RESULT:      -7.3      0.000      0.000
REMARK  5 active torsions:
REMARK  status: ('A' for Active; 'I' for Inactive)
REMARK    1  A    between atoms: C2_2  and  C3_3 
REMARK    2  A    between atoms: C8_10  and  N3_11 
REMARK    3  A    between atoms: N3_11  and  C9_12 
REMARK    4  A    between atoms: C9_12  and  C10_13 
REMARK    5  A    between atoms: C10_13  and  N4_14 
ROOT
HETATM    1  C3  UNL     1      20.714  -0.114  53.054  1.00  0.00    -0.061 A 
HETATM    2  C4  UNL     1      21.484   0.620  52.267  1.00  0.00     0.102 A 
HETATM    3  N1  UNL     1      22.905   0.653  52.243  1.00  0.00    -0.304 N 
HETATM    4  C5  UNL     1      23.643  -0.165  53.133  1.00  0.00     0.130 A 
HETATM    5  C6  UNL     1      22.837  -0.901  53.923  1.00  0.00     0.028 A 
HETATM    6  C7  UNL     1      21.384  -1.030  54.052  1.00  0.00     0.066 A 
HETATM    7  N2  UNL     1      24.952  -0.422  53.411  1.00  0.00    -0.210 NA
HETATM    8  C8  UNL     1      25.991   0.195  53.672  1.00  0.00     0.347 A 
HETATM    9  C11 UNL     1      26.444   1.573  53.833  1.00  0.00     0.335 A 
HETATM   10  N5  UNL     1      25.198   1.639  53.549  1.00  0.00     0.073 N 
HETATM   11  C12 UNL     1      24.548   2.894  53.450  1.00  0.00     0.291 A 
HETATM   12  S1  UNL     1      24.552   2.491  51.848  1.00  0.00     0.082 SA
HETATM   13  C13 UNL     1      23.326   1.586  51.250  1.00  0.00     0.073 C 
HETATM   14  C14 UNL     1      22.686   1.651  49.907  1.00  0.00     0.078 C 
ENDROOT
BRANCH   8  15
HETATM   15  N3  UNL     1      27.082  -0.738  53.867  1.00  0.00    -0.367 N 
HETATM   16  H10 UNL     1      27.067  -1.489  54.615  1.00  0.00     0.157 HD
BRANCH  15  17
HETATM   17  C9  UNL     1      28.300  -0.717  53.040  1.00  0.00     0.148 C 
BRANCH  17  18
HETATM   18  C10 UNL     1      29.203  -1.880  53.381  1.00  0.00     0.286 C 
BRANCH  18  19
HETATM   19  N4  UNL     1      28.547  -3.152  53.153  1.00  0.00     0.079 N 
HETATM   20  H15 UNL     1      27.616  -3.140  53.621  1.00  0.00     0.312 HD
HETATM   21  H16 UNL     1      29.101  -3.873  53.677  1.00  0.00     0.312 HD
ENDBRANCH  18  19
ENDBRANCH  17  18
ENDBRANCH  15  17
ENDBRANCH   8  15
BRANCH   1  22
HETATM   22  C2  UNL     1      19.252  -0.296  53.239  1.00  0.00     0.031 C 
HETATM   23  C1  UNL     1      18.503  -0.185  51.931  1.00  0.00     0.010 C 
ENDBRANCH   1  22
TORSDOF 5
ENDMDL
MODEL 2
REMARK VINA RESULT:      -6.7      4.001      6.037
REMARK  5 active torsions:
REMARK  status: ('A' for Active; 'I' for Inactive)
REMARK    1  A    between atoms: C2_2  and  C3_3 
REMARK    2  A    between atoms: C8_10  and  N3_11 
REMARK    3  A    between atoms: N3_11  and  C9_12 
REMARK    4  A    between atoms: C9_12  and  C10_13 
REMARK    5  A    between atoms: C10_13  and  N4_14 
ROOT
HETATM    1  C3  UNL     1      25.566   0.471  52.515  1.00  0.00    -0.061 A 
HETATM    2  C4  UNL     1      24.470   1.005  51.998  1.00  0.00     0.102 A 
HETATM    3  N1  UNL     1      24.387   2.141  51.147  1.00  0.00    -0.304 N 
HETATM    4  C5  UNL     1      25.567   2.828  50.772  1.00  0.00     0.130 A 
HETATM    5  C6  UNL     1      26.667   2.267  51.312  1.00  0.00     0.028 A 
HETATM    6  C7  UNL     1      26.893   1.117  52.189  1.00  0.00     0.066 A 
HETATM    7  N2  UNL     1      25.903   3.903  50.006  1.00  0.00    -0.210 NA
HETATM    8  C8  UNL     1      25.588   5.091  49.872  1.00  0.00     0.347 A 
HETATM    9  C11 UNL     1      24.658   6.057  50.449  1.00  0.00     0.335 A 
HETATM   10  N5  UNL     1      24.458   4.956  51.069  1.00  0.00     0.073 N 
HETATM   11  C12 UNL     1      23.480   4.873  52.092  1.00  0.00     0.291 A 
HETATM   12  S1  UNL     1      22.707   3.980  50.937  1.00  0.00     0.082 SA
HETATM   13  C13 UNL     1      23.016   2.376  50.830  1.00  0.00     0.073 C 
HETATM   14  C14 UNL     1      22.089   1.268  50.470  1.00  0.00     0.078 C 
ENDROOT
BRANCH   8  15
HETATM   15  N3  UNL     1      26.377   5.695  48.817  1.00  0.00    -0.367 N 
HETATM   16  H10 UNL     1      26.016   6.488  48.214  1.00  0.00     0.157 HD
BRANCH  15  17
HETATM   17  C9  UNL     1      27.746   5.255  48.501  1.00  0.00     0.148 C 
BRANCH  17  18
HETATM   18  C10 UNL     1      28.646   6.441  48.241  1.00  0.00     0.286 C 
BRANCH  18  19
HETATM   19  N4  UNL     1      28.398   7.518  49.178  1.00  0.00     0.079 N 
HETATM   20  H15 UNL     1      28.871   8.380  48.833  1.00  0.00     0.312 HD
HETATM   21  H16 UNL     1      28.906   7.269  50.062  1.00  0.00     0.312 HD
ENDBRANCH  18  19
ENDBRANCH  17  18
ENDBRANCH  15  17
ENDBRANCH   8  15
BRANCH   1  22
HETATM   22  C2  UNL     1      25.870  -0.680  53.400  1.00  0.00     0.031 C 
HETATM   23  C1  UNL     1      26.754  -1.698  52.716  1.00  0.00     0.010 C 
ENDBRANCH   1  22
TORSDOF 5
ENDMDL
MODEL 3
REMARK VINA RESULT:      -6.6      3.302      4.792
REMARK  5 active torsions:
REMARK  status: ('A' for Active; 'I' for Inactive)
REMARK    1  A    between atoms: C2_2  and  C3_3 
REMARK    2  A    between atoms: C8_10  and  N3_11 
REMARK    3  A    between atoms: N3_11  and  C9_12 
REMARK    4  A    between atoms: C9_12  and  C10_13 
REMARK    5  A    between atoms: C10_13  and  N4_14 
ROOT
HETATM    1  C3  UNL     1      22.677  -0.115  52.754  1.00  0.00    -0.061 A 
HETATM    2  C4  UNL     1      22.171   0.513  51.705  1.00  0.00     0.102 A 
HETATM    3  N1  UNL     1      22.749   1.599  50.991  1.00  0.00    -0.304 N 
HETATM    4  C5  UNL     1      24.004   2.117  51.395  1.00  0.00     0.130 A 
HETATM    5  C6  UNL     1      24.497   1.462  52.464  1.00  0.00     0.028 A 
HETATM    6  C7  UNL     1      24.015   0.348  53.282  1.00  0.00     0.066 A 
HETATM    7  N2  UNL     1      24.861   3.097  50.994  1.00  0.00    -0.210 NA
HETATM    8  C8  UNL     1      24.843   4.304  50.727  1.00  0.00     0.347 A 
HETATM    9  C11 UNL     1      23.888   5.406  50.671  1.00  0.00     0.335 A 
HETATM   10  N5  UNL     1      23.221   4.375  51.032  1.00  0.00     0.073 N 
HETATM   11  C12 UNL     1      21.830   4.471  51.284  1.00  0.00     0.291 A 
HETATM   12  S1  UNL     1      21.766   3.608  49.876  1.00  0.00     0.082 SA
HETATM   13  C13 UNL     1      21.867   1.976  49.936  1.00  0.00     0.073 C 
HETATM   14  C14 UNL     1      21.189   0.966  49.077  1.00  0.00     0.078 C 
ENDROOT
BRANCH   8  15
HETATM   15  N3  UNL     1      26.170   4.745  50.349  1.00  0.00    -0.367 N 
HETATM   16  H10 UNL     1      26.684   5.517  50.862  1.00  0.00     0.157 HD
BRANCH  15  17
HETATM   17  C9  UNL     1      26.911   4.155  49.223  1.00  0.00     0.148 C 
BRANCH  17  18
HETATM   18  C10 UNL     1      27.693   5.212  48.478  1.00  0.00     0.286 C 
BRANCH  18  19
HETATM   19  N4  UNL     1      27.665   6.486  49.169  1.00  0.00     0.079 N 
HETATM   20  H15 UNL     1      26.715   6.902  49.070  1.00  0.00     0.312 HD
HETATM   21  H16 UNL     1      28.297   7.130  48.635  1.00  0.00     0.312 HD
ENDBRANCH  18  19
ENDBRANCH  17  18
ENDBRANCH  15  17
ENDBRANCH   8  15
BRANCH   1  22
HETATM   22  C2  UNL     1      22.252  -1.240  53.624  1.00  0.00     0.031 C 
HETATM   23  C1  UNL     1      21.219  -0.806  54.639  1.00  0.00     0.010 C 
ENDBRANCH   1  22
TORSDOF 5
ENDMDL
MODEL 4
REMARK VINA RESULT:      -6.6      3.056      5.482
REMARK  5 active torsions:
REMARK  status: ('A' for Active; 'I' for Inactive)
REMARK    1  A    between atoms: C2_2  and  C3_3 
REMARK    2  A    between atoms: C8_10  and  N3_11 
REMARK    3  A    between atoms: N3_11  and  C9_12 
REMARK    4  A    between atoms: C9_12  and  C10_13 
REMARK    5  A    between atoms: C10_13  and  N4_14 
ROOT
HETATM    1  C3  UNL     1      25.737   4.664  49.597  1.00  0.00    -0.061 A 
HETATM    2  C4  UNL     1      24.533   4.724  50.143  1.00  0.00     0.102 A 
HETATM    3  N1  UNL     1      23.968   3.815  51.081  1.00  0.00    -0.304 N 
HETATM    4  C5  UNL     1      24.722   2.700  51.521  1.00  0.00     0.130 A 
HETATM    5  C6  UNL     1      25.942   2.662  50.950  1.00  0.00     0.028 A 
HETATM    6  C7  UNL     1      26.638   3.516  49.987  1.00  0.00     0.066 A 
HETATM    7  N2  UNL     1      24.558   1.650  52.374  1.00  0.00    -0.210 NA
HETATM    8  C8  UNL     1      23.745   0.747  52.599  1.00  0.00     0.347 A 
HETATM    9  C11 UNL     1      22.465   0.263  52.091  1.00  0.00     0.335 A 
HETATM   10  N5  UNL     1      22.766   1.286  51.383  1.00  0.00     0.073 N 
HETATM   11  C12 UNL     1      21.903   1.723  50.347  1.00  0.00     0.291 A 
HETATM   12  S1  UNL     1      21.646   2.954  51.419  1.00  0.00     0.082 SA
HETATM   13  C13 UNL     1      22.648   4.248  51.401  1.00  0.00     0.073 C 
HETATM   14  C14 UNL     1      22.330   5.680  51.663  1.00  0.00     0.078 C 
ENDROOT
BRANCH   8  15
HETATM   15  N3  UNL     1      24.206  -0.067  53.706  1.00  0.00    -0.367 N 
HETATM   16  H10 UNL     1      23.580  -0.335  54.519  1.00  0.00     0.157 HD
BRANCH  15  17
HETATM   17  C9  UNL     1      25.580  -0.587  53.790  1.00  0.00     0.148 C 
BRANCH  17  18
HETATM   18  C10 UNL     1      26.337   0.068  54.922  1.00  0.00     0.286 C 
BRANCH  18  19
HETATM   19  N4  UNL     1      26.739   1.419  54.587  1.00  0.00     0.079 N 
HETATM   20  H15 UNL     1      25.918   1.928  54.197  1.00  0.00     0.312 HD
HETATM   21  H16 UNL     1      27.411   1.341  53.784  1.00  0.00     0.312 HD
ENDBRANCH  18  19
ENDBRANCH  17  18
ENDBRANCH  15  17
ENDBRANCH   8  15
BRANCH   1  22
HETATM   22  C2  UNL     1      26.503   5.484  48.626  1.00  0.00     0.031 C 
HETATM   23  C1  UNL     1      27.952   5.060  48.553  1.00  0.00     0.010 C 
ENDBRANCH   1  22
TORSDOF 5
ENDMDL
MODEL 5
REMARK VINA RESULT:      -6.5      4.384      6.904
REMARK  5 active torsions:
REMARK  status: ('A' for Active; 'I' for Inactive)
REMARK    1  A    between atoms: C2_2  and  C3_3 
REMARK    2  A    between atoms: C8_10  and  N3_11 
REMARK    3  A    between atoms: N3_11  and  C9_12 
REMARK    4  A    between atoms: C9_12  and  C10_13 
REMARK    5  A    between atoms: C10_13  and  N4_14 
ROOT
HETATM    1  C3  UNL     1      26.965   6.081  48.645  1.00  0.00    -0.061 A 
HETATM    2  C4  UNL     1      25.781   6.303  49.194  1.00  0.00     0.102 A 
HETATM    3  N1  UNL     1      25.021   5.402  49.990  1.00  0.00    -0.304 N 
HETATM    4  C5  UNL     1      25.526   4.108  50.265  1.00  0.00     0.130 A 
HETATM    5  C6  UNL     1      26.730   3.908  49.695  1.00  0.00     0.028 A 
HETATM    6  C7  UNL     1      27.609   4.732  48.865  1.00  0.00     0.066 A 
HETATM    7  N2  UNL     1      25.132   3.003  50.958  1.00  0.00    -0.210 NA
HETATM    8  C8  UNL     1      24.150   2.257  51.049  1.00  0.00     0.347 A 
HETATM    9  C11 UNL     1      22.815   2.117  50.476  1.00  0.00     0.335 A 
HETATM   10  N5  UNL     1      23.333   3.148  49.923  1.00  0.00     0.073 N 
HETATM   11  C12 UNL     1      22.605   3.891  48.961  1.00  0.00     0.291 A 
HETATM   12  S1  UNL     1      22.565   4.985  50.200  1.00  0.00     0.082 SA
HETATM   13  C13 UNL     1      23.804   6.041  50.370  1.00  0.00     0.073 C 
HETATM   14  C14 UNL     1      23.767   7.456  50.835  1.00  0.00     0.078 C 
ENDROOT
BRANCH   8  15
HETATM   15  N3  UNL     1      24.408   1.220  52.028  1.00  0.00    -0.367 N 
HETATM   16  H10 UNL     1      23.633   0.711  52.540  1.00  0.00     0.157 HD
BRANCH  15  17
HETATM   17  C9  UNL     1      25.770   0.790  52.386  1.00  0.00     0.148 C 
BRANCH  17  18
HETATM   18  C10 UNL     1      26.111   1.204  53.799  1.00  0.00     0.286 C 
BRANCH  18  19
HETATM   19  N4  UNL     1      26.792   2.483  53.833  1.00  0.00     0.079 N 
HETATM   20  H15 UNL     1      26.085   3.243  53.749  1.00  0.00     0.312 HD
HETATM   21  H16 UNL     1      27.357   2.544  52.951  1.00  0.00     0.312 HD
ENDBRANCH  18  19
ENDBRANCH  17  18
ENDBRANCH  15  17
ENDBRANCH   8  15
BRANCH   1  22
HETATM   22  C2  UNL     1      27.906   6.860  47.802  1.00  0.00     0.031 C 
HETATM   23  C1  UNL     1      29.303   6.283  47.839  1.00  0.00     0.010 C 
ENDBRANCH   1  22
TORSDOF 5
ENDMDL
MODEL 6
REMARK VINA RESULT:      -6.5      8.498      9.749
REMARK  5 active torsions:
REMARK  status: ('A' for Active; 'I' for Inactive)
REMARK    1  A    between atoms: C2_2  and  C3_3 
REMARK    2  A    between atoms: C8_10  and  N3_11 
REMARK    3  A    between atoms: N3_11  and  C9_12 
REMARK    4  A    between atoms: C9_12  and  C10_13 
REMARK    5  A    between atoms: C10_13  and  N4_14 
ROOT
HETATM    1  C3  UNL     1      26.556   6.659  48.151  1.00  0.00    -0.061 A 
HETATM    2  C4  UNL     1      27.508   7.390  47.594  1.00  0.00     0.102 A 
HETATM    3  N1  UNL     1      28.890   7.069  47.493  1.00  0.00    -0.304 N 
HETATM    4  C5  UNL     1      29.369   5.848  48.027  1.00  0.00     0.130 A 
HETATM    5  C6  UNL     1      28.381   5.124  48.589  1.00  0.00     0.028 A 
HETATM    6  C7  UNL     1      26.943   5.331  48.761  1.00  0.00     0.066 A 
HETATM    7  N2  UNL     1      30.560   5.194  48.126  1.00  0.00    -0.210 NA
HETATM    8  C8  UNL     1      31.717   5.409  48.505  1.00  0.00     0.347 A 
HETATM    9  C11 UNL     1      32.507   6.499  49.069  1.00  0.00     0.335 A 
HETATM   10  N5  UNL     1      31.328   6.965  48.900  1.00  0.00     0.073 N 
HETATM   11  C12 UNL     1      31.027   8.305  49.249  1.00  0.00     0.291 A 
HETATM   12  S1  UNL     1      30.965   8.458  47.604  1.00  0.00     0.082 SA
HETATM   13  C13 UNL     1      29.561   8.136  46.827  1.00  0.00     0.073 C 
HETATM   14  C14 UNL     1      28.991   8.793  45.617  1.00  0.00     0.078 C 
ENDROOT
BRANCH   8  15
HETATM   15  N3  UNL     1      32.525   4.220  48.323  1.00  0.00    -0.367 N 
HETATM   16  H10 UNL     1      32.523   3.416  49.014  1.00  0.00     0.157 HD
BRANCH  15  17
HETATM   17  C9  UNL     1      33.412   4.034  47.163  1.00  0.00     0.148 C 
BRANCH  17  18
HETATM   18  C10 UNL     1      34.773   3.543  47.599  1.00  0.00     0.286 C 
BRANCH  18  19
HETATM   19  N4  UNL     1      35.119   4.025  48.921  1.00  0.00     0.079 N 
HETATM   20  H15 UNL     1      35.849   4.763  48.829  1.00  0.00     0.312 HD
HETATM   21  H16 UNL     1      35.601   3.233  49.412  1.00  0.00     0.312 HD
ENDBRANCH  18  19
ENDBRANCH  17  18
ENDBRANCH  15  17
ENDBRANCH   8  15
BRANCH   1  22
HETATM   22  C2  UNL     1      25.093   6.802  48.359  1.00  0.00     0.031 C 
HETATM   23  C1  UNL     1      24.467   5.516  48.848  1.00  0.00     0.010 C 
ENDBRANCH   1  22
TORSDOF 5
ENDMDL
MODEL 7
REMARK VINA RESULT:      -6.5      2.517      6.353
REMARK  5 active torsions:
REMARK  status: ('A' for Active; 'I' for Inactive)
REMARK    1  A    between atoms: C2_2  and  C3_3 
REMARK    2  A    between atoms: C8_10  and  N3_11 
REMARK    3  A    between atoms: N3_11  and  C9_12 
REMARK    4  A    between atoms: C9_12  and  C10_13 
REMARK    5  A    between atoms: C10_13  and  N4_14 
ROOT
HETATM    1  C3  UNL     1      25.430   0.608  53.355  1.00  0.00    -0.061 A 
HETATM    2  C4  UNL     1      24.613   1.541  52.892  1.00  0.00     0.102 A 
HETATM    3  N1  UNL     1      23.191   1.514  52.888  1.00  0.00    -0.304 N 
HETATM    4  C5  UNL     1      22.508   0.395  53.423  1.00  0.00     0.130 A 
HETATM    5  C6  UNL     1      23.360  -0.540  53.887  1.00  0.00     0.028 A 
HETATM    6  C7  UNL     1      24.819  -0.639  53.951  1.00  0.00     0.066 A 
HETATM    7  N2  UNL     1      21.216   0.000  53.607  1.00  0.00    -0.210 NA
HETATM    8  C8  UNL     1      20.172  -0.115  52.956  1.00  0.00     0.347 A 
HETATM    9  C11 UNL     1      19.689   0.111  51.597  1.00  0.00     0.335 A 
HETATM   10  N5  UNL     1      20.922   0.454  51.599  1.00  0.00     0.073 N 
HETATM   11  C12 UNL     1      21.535   0.939  50.417  1.00  0.00     0.291 A 
HETATM   12  S1  UNL     1      21.484   2.355  51.267  1.00  0.00     0.082 SA
HETATM   13  C13 UNL     1      22.711   2.715  52.289  1.00  0.00     0.073 C 
HETATM   14  C14 UNL     1      23.300   4.046  52.608  1.00  0.00     0.078 C 
ENDROOT
BRANCH   8  15
HETATM   15  N3  UNL     1      19.113  -0.617  53.808  1.00  0.00    -0.367 N 
HETATM   16  H10 UNL     1      19.145  -0.545  54.865  1.00  0.00     0.157 HD
BRANCH  15  17
HETATM   17  C9  UNL     1      17.906  -1.267  53.271  1.00  0.00     0.148 C 
BRANCH  17  18
HETATM   18  C10 UNL     1      17.847  -2.720  53.684  1.00  0.00     0.286 C 
BRANCH  18  19
HETATM   19  N4  UNL     1      16.526  -3.281  53.482  1.00  0.00     0.079 N 
HETATM   20  H15 UNL     1      16.287  -3.882  54.300  1.00  0.00     0.312 HD
HETATM   21  H16 UNL     1      16.604  -3.947  52.675  1.00  0.00     0.312 HD
ENDBRANCH  18  19
ENDBRANCH  17  18
ENDBRANCH  15  17
ENDBRANCH   8  15
BRANCH   1  22
HETATM   22  C2  UNL     1      26.901   0.440  53.454  1.00  0.00     0.031 C 
HETATM   23  C1  UNL     1      27.365  -0.842  52.802  1.00  0.00     0.010 C 
ENDBRANCH   1  22
TORSDOF 5
ENDMDL
MODEL 8
REMARK VINA RESULT:      -6.3      2.061      3.697
REMARK  5 active torsions:
REMARK  status: ('A' for Active; 'I' for Inactive)
REMARK    1  A    between atoms: C2_2  and  C3_3 
REMARK    2  A    between atoms: C8_10  and  N3_11 
REMARK    3  A    between atoms: N3_11  and  C9_12 
REMARK    4  A    between atoms: C9_12  and  C10_13 
REMARK    5  A    between atoms: C10_13  and  N4_14 
ROOT
HETATM    1  C3  UNL     1      22.277   1.787  49.947  1.00  0.00    -0.061 A 
HETATM    2  C4  UNL     1      22.134   1.243  51.145  1.00  0.00     0.102 A 
HETATM    3  N1  UNL     1      23.062   1.281  52.222  1.00  0.00    -0.304 N 
HETATM    4  C5  UNL     1      24.296   1.957  52.064  1.00  0.00     0.130 A 
HETATM    5  C6  UNL     1      24.417   2.501  50.838  1.00  0.00     0.028 A 
HETATM    6  C7  UNL     1      23.556   2.537  49.655  1.00  0.00     0.066 A 
HETATM    7  N2  UNL     1      25.401   2.219  52.817  1.00  0.00    -0.210 NA
HETATM    8  C8  UNL     1      26.223   1.614  53.514  1.00  0.00     0.347 A 
HETATM    9  C11 UNL     1      26.500   0.251  53.959  1.00  0.00     0.335 A 
HETATM   10  N5  UNL     1      25.452   0.181  53.228  1.00  0.00     0.073 N 
HETATM   11  C12 UNL     1      24.814  -1.064  53.003  1.00  0.00     0.291 A 
HETATM   12  S1  UNL     1      23.677  -0.379  53.987  1.00  0.00     0.082 SA
HETATM   13  C13 UNL     1      22.513   0.562  53.325  1.00  0.00     0.073 C 
HETATM   14  C14 UNL     1      21.089   0.712  53.734  1.00  0.00     0.078 C 
ENDROOT
BRANCH   8  15
HETATM   15  N3  UNL     1      27.193   2.545  54.055  1.00  0.00    -0.367 N 
HETATM   16  H10 UNL     1      26.942   3.276  54.780  1.00  0.00     0.157 HD
BRANCH  15  17
HETATM   17  C9  UNL     1      28.605   2.548  53.640  1.00  0.00     0.148 C 
BRANCH  17  18
HETATM   18  C10 UNL     1      29.403   1.545  54.441  1.00  0.00     0.286 C 
BRANCH  18  19
HETATM   19  N4  UNL     1      30.105   0.611  53.584  1.00  0.00     0.079 N 
HETATM   20  H15 UNL     1      29.575   0.508  52.693  1.00  0.00     0.312 HD
HETATM   21  H16 UNL     1      30.037  -0.329  54.046  1.00  0.00     0.312 HD
ENDBRANCH  18  19
ENDBRANCH  17  18
ENDBRANCH  15  17
ENDBRANCH   8  15
BRANCH   1  22
HETATM   22  C2  UNL     1      21.457   1.865  48.712  1.00  0.00     0.031 C 
HETATM   23  C1  UNL     1      22.294   2.217  47.504  1.00  0.00     0.010 C 
ENDBRANCH   1  22
TORSDOF 5
ENDMDL
MODEL 9
REMARK VINA RESULT:      -6.2      1.475      2.034
REMARK  5 active torsions:
REMARK  status: ('A' for Active; 'I' for Inactive)
REMARK    1  A    between atoms: C2_2  and  C3_3 
REMARK    2  A    between atoms: C8_10  and  N3_11 
REMARK    3  A    between atoms: N3_11  and  C9_12 
REMARK    4  A    between atoms: C9_12  and  C10_13 
REMARK    5  A    between atoms: C10_13  and  N4_14 
ROOT
HETATM    1  C3  UNL     1      20.089   0.918  50.633  1.00  0.00    -0.061 A 
HETATM    2  C4  UNL     1      21.074   1.685  50.193  1.00  0.00     0.102 A 
HETATM    3  N1  UNL     1      22.405   1.743  50.689  1.00  0.00    -0.304 N 
HETATM    4  C5  UNL     1      22.789   0.917  51.773  1.00  0.00     0.130 A 
HETATM    5  C6  UNL     1      21.770   0.148  52.203  1.00  0.00     0.028 A 
HETATM    6  C7  UNL     1      20.374  -0.010  51.792  1.00  0.00     0.066 A 
HETATM    7  N2  UNL     1      23.913   0.677  52.505  1.00  0.00    -0.210 NA
HETATM    8  C8  UNL     1      24.769   1.306  53.137  1.00  0.00     0.347 A 
HETATM    9  C11 UNL     1      25.097   2.688  53.474  1.00  0.00     0.335 A 
HETATM   10  N5  UNL     1      24.039   2.738  52.757  1.00  0.00     0.073 N 
HETATM   11  C12 UNL     1      23.438   3.984  52.448  1.00  0.00     0.291 A 
HETATM   12  S1  UNL     1      24.035   3.620  50.951  1.00  0.00     0.082 SA
HETATM   13  C13 UNL     1      23.135   2.708  49.933  1.00  0.00     0.073 C 
HETATM   14  C14 UNL     1      23.026   2.794  48.450  1.00  0.00     0.078 C 
ENDROOT
BRANCH   8  15
HETATM   15  N3  UNL     1      25.738   0.388  53.702  1.00  0.00    -0.367 N 
HETATM   16  H10 UNL     1      26.387   0.658  54.495  1.00  0.00     0.157 HD
BRANCH  15  17
HETATM   17  C9  UNL     1      25.897  -0.993  53.219  1.00  0.00     0.148 C 
BRANCH  17  18
HETATM   18  C10 UNL     1      27.338  -1.278  52.863  1.00  0.00     0.286 C 
BRANCH  18  19
HETATM   19  N4  UNL     1      27.652  -2.687  52.986  1.00  0.00     0.079 N 
HETATM   20  H15 UNL     1      27.406  -3.004  53.947  1.00  0.00     0.312 HD
HETATM   21  H16 UNL     1      28.697  -2.766  52.936  1.00  0.00     0.312 HD
ENDBRANCH  18  19
ENDBRANCH  17  18
ENDBRANCH  15  17
ENDBRANCH   8  15
BRANCH   1  22
HETATM   22  C2  UNL     1      18.666   0.705  50.269  1.00  0.00     0.031 C 
HETATM   23  C1  UNL     1      17.871   0.137  51.422  1.00  0.00     0.010 C 
ENDBRANCH   1  22
TORSDOF 5
ENDMDL
