MODEL 1
REMARK VINA RESULT:      -8.3      0.000      0.000
REMARK  7 active torsions:
REMARK  status: ('A' for Active; 'I' for Inactive)
REMARK    1  A    between atoms: O1_2  and  C2_3 
REMARK    2  A    between atoms: C4_5  and  N1_6 
REMARK       I    between atoms: N1_6  and  C5_7 
REMARK    3  A    between atoms: C5_7  and  C6_9 
REMARK    4  A    between atoms: C7_10  and  C8_11 
REMARK    5  A    between atoms: C8_11  and  N2_12 
REMARK    6  A    between atoms: C16_21  and  N4_22 
REMARK    7  A    between atoms: N4_22  and  C17_23 
ROOT
HETATM    1  C2  UNL     1      26.076   0.384  54.470  1.00  0.00     0.053 C 
HETATM    2  C3  UNL     1      24.913  -0.297  54.709  1.00  0.00     0.062 C 
HETATM    3  C4  UNL     1      23.829   0.123  53.744  1.00  0.00     0.041 C 
HETATM    4  C11 UNL     1      24.412   1.037  53.001  1.00  0.00    -0.029 C 
HETATM    5  C12 UNL     1      25.067   2.313  53.564  1.00  0.00     0.051 C 
HETATM    6  C13 UNL     1      26.423   1.510  53.515  1.00  0.00     0.066 C 
HETATM    7  C14 UNL     1      26.375   1.098  52.045  1.00  0.00     0.130 C 
HETATM    8  C15 UNL     1      26.784  -0.255  51.804  1.00  0.00     0.067 C 
HETATM    9  N3  UNL     1      27.097  -1.330  51.619  1.00  0.00    -0.197 NA
HETATM   10  C16 UNL     1      24.852   1.288  51.606  1.00  0.00     0.131 C 
ENDROOT
BRANCH  10  11
HETATM   11  N4  UNL     1      24.674   2.620  51.149  1.00  0.00    -0.380 N 
HETATM   12  H21 UNL     1      23.740   3.032  51.459  1.00  0.00     0.160 HD
BRANCH  11  13
HETATM   13  C17 UNL     1      25.318   3.626  50.411  1.00  0.00     0.029 A 
HETATM   14  C18 UNL     1      26.407   3.532  49.562  1.00  0.00     0.029 A 
HETATM   15  C19 UNL     1      26.872   4.664  48.944  1.00  0.00     0.004 A 
HETATM   16  C20 UNL     1      26.323   5.918  49.110  1.00  0.00     0.019 A 
HETATM   17  C21 UNL     1      25.238   6.035  49.951  1.00  0.00     0.013 A 
HETATM   18 BR1  UNL     1      24.475   7.748  50.190  1.00  0.00    -0.051 Br
HETATM   19  C22 UNL     1      24.769   4.898  50.573  1.00  0.00     0.048 A 
ENDBRANCH  11  13
ENDBRANCH  10  11
BRANCH   1  20
HETATM   20  O1  UNL     1      27.080  -0.115  55.303  1.00  0.00    -0.360 OA
HETATM   21  C1  UNL     1      28.449  -0.019  55.074  1.00  0.00     0.209 C 
ENDBRANCH   1  20
BRANCH   3  22
HETATM   22  N1  UNL     1      22.532  -0.268  53.460  1.00  0.00    -0.323 N 
HETATM   23  C5  UNL     1      21.862  -1.055  54.411  1.00  0.00     0.245 C 
HETATM   24  O2  UNL     1      22.273  -1.471  55.522  1.00  0.00    -0.268 OA
HETATM   25  H5  UNL     1      22.051  -0.028  52.608  1.00  0.00     0.169 HD
BRANCH  23  26
HETATM   26  C6  UNL     1      20.513  -1.447  54.064  1.00  0.00     0.072 C 
HETATM   27  C7  UNL     1      19.495  -0.857  53.482  1.00  0.00     0.008 C 
BRANCH  27  28
HETATM   28  C8  UNL     1      18.116  -1.174  53.098  1.00  0.00     0.299 C 
BRANCH  28  29
HETATM   29  N2  UNL     1      17.497  -0.170  52.256  1.00  0.00     0.083 N 
HETATM   30  C9  UNL     1      18.433   0.051  51.155  1.00  0.00     0.309 C 
HETATM   31  C10 UNL     1      16.251  -0.641  51.683  1.00  0.00     0.309 C 
ENDBRANCH  28  29
ENDBRANCH  27  28
ENDBRANCH  23  26
ENDBRANCH   3  22
TORSDOF 7
ENDMDL
MODEL 2
REMARK VINA RESULT:      -8.2      3.916      8.577
REMARK  7 active torsions:
REMARK  status: ('A' for Active; 'I' for Inactive)
REMARK    1  A    between atoms: O1_2  and  C2_3 
REMARK    2  A    between atoms: C4_5  and  N1_6 
REMARK       I    between atoms: N1_6  and  C5_7 
REMARK    3  A    between atoms: C5_7  and  C6_9 
REMARK    4  A    between atoms: C7_10  and  C8_11 
REMARK    5  A    between atoms: C8_11  and  N2_12 
REMARK    6  A    between atoms: C16_21  and  N4_22 
REMARK    7  A    between atoms: N4_22  and  C17_23 
ROOT
HETATM    1  C2  UNL     1      22.161   4.045  51.538  1.00  0.00     0.053 C 
HETATM    2  C3  UNL     1      23.030   4.941  50.980  1.00  0.00     0.062 C 
HETATM    3  C4  UNL     1      24.435   4.388  50.944  1.00  0.00     0.041 C 
HETATM    4  C11 UNL     1      24.315   3.201  51.496  1.00  0.00    -0.029 C 
HETATM    5  C12 UNL     1      23.746   2.963  52.908  1.00  0.00     0.051 C 
HETATM    6  C13 UNL     1      22.369   2.691  52.192  1.00  0.00     0.066 C 
HETATM    7  C14 UNL     1      22.841   1.612  51.219  1.00  0.00     0.130 C 
HETATM    8  C15 UNL     1      22.304   1.742  49.896  1.00  0.00     0.067 C 
HETATM    9  N3  UNL     1      21.887   1.855  48.847  1.00  0.00    -0.197 NA
HETATM   10  C16 UNL     1      24.431   1.757  51.173  1.00  0.00     0.131 C 
ENDROOT
BRANCH  10  11
HETATM   11  N4  UNL     1      24.990   0.953  52.202  1.00  0.00    -0.380 N 
HETATM   12  H21 UNL     1      24.277   0.713  52.958  1.00  0.00     0.160 HD
BRANCH  11  13
HETATM   13  C17 UNL     1      26.189   0.335  52.587  1.00  0.00     0.029 A 
HETATM   14  C18 UNL     1      26.569  -0.991  52.475  1.00  0.00     0.029 A 
HETATM   15  C19 UNL     1      27.806  -1.372  52.929  1.00  0.00     0.004 A 
HETATM   16  C20 UNL     1      28.719  -0.513  53.503  1.00  0.00     0.019 A 
HETATM   17  C21 UNL     1      28.361   0.812  53.625  1.00  0.00     0.013 A 
HETATM   18 BR1  UNL     1      29.603   2.003  54.409  1.00  0.00    -0.051 Br
HETATM   19  C22 UNL     1      27.119   1.197  53.169  1.00  0.00     0.048 A 
ENDBRANCH  11  13
ENDBRANCH  10  11
BRANCH   1  20
HETATM   20  O1  UNL     1      20.860   4.546  51.446  1.00  0.00    -0.360 OA
HETATM   21  C1  UNL     1      19.691   3.800  51.563  1.00  0.00     0.209 C 
ENDBRANCH   1  20
BRANCH   3  22
HETATM   22  N1  UNL     1      25.659   4.787  50.436  1.00  0.00    -0.323 N 
HETATM   23  C5  UNL     1      25.670   5.439  49.193  1.00  0.00     0.245 C 
HETATM   24  O2  UNL     1      24.704   5.729  48.444  1.00  0.00    -0.268 OA
HETATM   25  H5  UNL     1      26.537   4.627  50.904  1.00  0.00     0.169 HD
BRANCH  23  26
HETATM   26  C6  UNL     1      26.973   5.829  48.698  1.00  0.00     0.072 C 
HETATM   27  C7  UNL     1      28.128   5.225  48.546  1.00  0.00     0.008 C 
BRANCH  27  28
HETATM   28  C8  UNL     1      29.475   5.538  48.063  1.00  0.00     0.299 C 
BRANCH  28  29
HETATM   29  N2  UNL     1      29.916   6.881  48.384  1.00  0.00     0.083 N 
HETATM   30  C9  UNL     1      31.249   6.729  48.965  1.00  0.00     0.309 C 
HETATM   31  C10 UNL     1      30.046   7.704  47.197  1.00  0.00     0.309 C 
ENDBRANCH  28  29
ENDBRANCH  27  28
ENDBRANCH  23  26
ENDBRANCH   3  22
TORSDOF 7
ENDMDL
MODEL 3
REMARK VINA RESULT:      -8.0      3.912      8.213
REMARK  7 active torsions:
REMARK  status: ('A' for Active; 'I' for Inactive)
REMARK    1  A    between atoms: O1_2  and  C2_3 
REMARK    2  A    between atoms: C4_5  and  N1_6 
REMARK       I    between atoms: N1_6  and  C5_7 
REMARK    3  A    between atoms: C5_7  and  C6_9 
REMARK    4  A    between atoms: C7_10  and  C8_11 
REMARK    5  A    between atoms: C8_11  and  N2_12 
REMARK    6  A    between atoms: C16_21  and  N4_22 
REMARK    7  A    between atoms: N4_22  and  C17_23 
ROOT
HETATM    1  C2  UNL     1      21.489   3.169  52.273  1.00  0.00     0.053 C 
HETATM    2  C3  UNL     1      21.984   4.409  51.977  1.00  0.00     0.062 C 
HETATM    3  C4  UNL     1      23.477   4.360  51.751  1.00  0.00     0.041 C 
HETATM    4  C11 UNL     1      23.778   3.095  51.941  1.00  0.00    -0.029 C 
HETATM    5  C12 UNL     1      23.468   2.323  53.238  1.00  0.00     0.051 C 
HETATM    6  C13 UNL     1      22.162   1.828  52.506  1.00  0.00     0.066 C 
HETATM    7  C14 UNL     1      22.822   1.254  51.254  1.00  0.00     0.130 C 
HETATM    8  C15 UNL     1      22.126   1.553  50.037  1.00  0.00     0.067 C 
HETATM    9  N3  UNL     1      21.579   1.802  49.074  1.00  0.00    -0.197 NA
HETATM   10  C16 UNL     1      24.281   1.902  51.215  1.00  0.00     0.131 C 
ENDROOT
BRANCH  10  11
HETATM   11  N4  UNL     1      25.165   1.075  51.956  1.00  0.00    -0.380 N 
HETATM   12  H21 UNL     1      24.731   0.129  52.191  1.00  0.00     0.160 HD
BRANCH  11  13
HETATM   13  C17 UNL     1      26.457   1.056  52.503  1.00  0.00     0.029 A 
HETATM   14  C18 UNL     1      27.234   2.109  52.957  1.00  0.00     0.029 A 
HETATM   15  C19 UNL     1      28.485   1.849  53.455  1.00  0.00     0.004 A 
HETATM   16  C20 UNL     1      29.040   0.590  53.538  1.00  0.00     0.019 A 
HETATM   17  C21 UNL     1      28.284  -0.472  53.092  1.00  0.00     0.013 A 
HETATM   18 BR1  UNL     1      29.031  -2.206  53.200  1.00  0.00    -0.051 Br
HETATM   19  C22 UNL     1      27.027  -0.214  52.591  1.00  0.00     0.048 A 
ENDBRANCH  11  13
ENDBRANCH  10  11
BRANCH   1  20
HETATM   20  O1  UNL     1      20.096   3.237  52.359  1.00  0.00    -0.360 OA
HETATM   21  C1  UNL     1      19.237   3.623  51.336  1.00  0.00     0.209 C 
ENDBRANCH   1  20
BRANCH   3  22
HETATM   22  N1  UNL     1      24.461   5.246  51.351  1.00  0.00    -0.323 N 
HETATM   23  C5  UNL     1      24.726   5.353  49.976  1.00  0.00     0.245 C 
HETATM   24  O2  UNL     1      24.186   4.748  49.017  1.00  0.00    -0.268 OA
HETATM   25  H5  UNL     1      25.001   5.808  51.990  1.00  0.00     0.169 HD
BRANCH  23  26
HETATM   26  C6  UNL     1      25.770   6.286  49.607  1.00  0.00     0.072 C 
HETATM   27  C7  UNL     1      26.507   6.481  48.539  1.00  0.00     0.008 C 
BRANCH  27  28
HETATM   28  C8  UNL     1      27.568   7.385  48.088  1.00  0.00     0.299 C 
BRANCH  28  29
HETATM   29  N2  UNL     1      28.721   6.705  47.533  1.00  0.00     0.083 N 
HETATM   30  C9  UNL     1      29.835   7.643  47.670  1.00  0.00     0.309 C 
HETATM   31  C10 UNL     1      29.057   5.512  48.287  1.00  0.00     0.309 C 
ENDBRANCH  28  29
ENDBRANCH  27  28
ENDBRANCH  23  26
ENDBRANCH   3  22
TORSDOF 7
ENDMDL
MODEL 4
REMARK VINA RESULT:      -8.0      2.618      6.244
REMARK  7 active torsions:
REMARK  status: ('A' for Active; 'I' for Inactive)
REMARK    1  A    between atoms: O1_2  and  C2_3 
REMARK    2  A    between atoms: C4_5  and  N1_6 
REMARK       I    between atoms: N1_6  and  C5_7 
REMARK    3  A    between atoms: C5_7  and  C6_9 
REMARK    4  A    between atoms: C7_10  and  C8_11 
REMARK    5  A    between atoms: C8_11  and  N2_12 
REMARK    6  A    between atoms: C16_21  and  N4_22 
REMARK    7  A    between atoms: N4_22  and  C17_23 
ROOT
HETATM    1  C2  UNL     1      20.541   1.003  50.308  1.00  0.00     0.053 C 
HETATM    2  C3  UNL     1      21.269   0.306  51.231  1.00  0.00     0.062 C 
HETATM    3  C4  UNL     1      22.606   0.965  51.481  1.00  0.00     0.041 C 
HETATM    4  C11 UNL     1      22.593   2.006  50.679  1.00  0.00    -0.029 C 
HETATM    5  C12 UNL     1      22.385   1.915  49.155  1.00  0.00     0.051 C 
HETATM    6  C13 UNL     1      20.866   2.213  49.451  1.00  0.00     0.066 C 
HETATM    7  C14 UNL     1      21.053   3.497  50.257  1.00  0.00     0.130 C 
HETATM    8  C15 UNL     1      20.209   3.589  51.413  1.00  0.00     0.067 C 
HETATM    9  N3  UNL     1      19.548   3.653  52.333  1.00  0.00    -0.197 NA
HETATM   10  C16 UNL     1      22.585   3.490  50.707  1.00  0.00     0.131 C 
ENDROOT
BRANCH  10  11
HETATM   11  N4  UNL     1      23.358   4.116  49.694  1.00  0.00    -0.380 N 
HETATM   12  H21 UNL     1      22.759   4.447  48.876  1.00  0.00     0.160 HD
BRANCH  11  13
HETATM   13  C17 UNL     1      24.678   4.472  49.378  1.00  0.00     0.029 A 
HETATM   14  C18 UNL     1      25.835   3.716  49.463  1.00  0.00     0.029 A 
HETATM   15  C19 UNL     1      27.031   4.282  49.098  1.00  0.00     0.004 A 
HETATM   16  C20 UNL     1      27.168   5.576  48.645  1.00  0.00     0.019 A 
HETATM   17  C21 UNL     1      26.029   6.346  48.553  1.00  0.00     0.013 A 
HETATM   18 BR1  UNL     1      26.202   8.124  47.932  1.00  0.00    -0.051 Br
HETATM   19  C22 UNL     1      24.827   5.780  48.919  1.00  0.00     0.048 A 
ENDBRANCH  11  13
ENDBRANCH  10  11
BRANCH   1  20
HETATM   20  O1  UNL     1      19.272   0.429  50.194  1.00  0.00    -0.360 OA
HETATM   21  C1  UNL     1      18.416   0.133  51.249  1.00  0.00     0.209 C 
ENDBRANCH   1  20
BRANCH   3  22
HETATM   22  N1  UNL     1      23.676   0.771  52.336  1.00  0.00    -0.323 N 
HETATM   23  C5  UNL     1      23.616  -0.314  53.225  1.00  0.00     0.245 C 
HETATM   24  O2  UNL     1      22.707  -1.170  53.367  1.00  0.00    -0.268 OA
HETATM   25  H5  UNL     1      24.487   1.370  52.361  1.00  0.00     0.169 HD
BRANCH  23  26
HETATM   26  C6  UNL     1      24.753  -0.470  54.106  1.00  0.00     0.072 C 
HETATM   27  C7  UNL     1      25.989  -0.026  54.116  1.00  0.00     0.008 C 
BRANCH  27  28
HETATM   28  C8  UNL     1      27.187  -0.132  54.953  1.00  0.00     0.299 C 
BRANCH  28  29
HETATM   29  N2  UNL     1      28.383   0.403  54.336  1.00  0.00     0.083 N 
HETATM   30  C9  UNL     1      28.912  -0.676  53.503  1.00  0.00     0.309 C 
HETATM   31  C10 UNL     1      28.085   1.524  53.464  1.00  0.00     0.309 C 
ENDBRANCH  28  29
ENDBRANCH  27  28
ENDBRANCH  23  26
ENDBRANCH   3  22
TORSDOF 7
ENDMDL
MODEL 5
REMARK VINA RESULT:      -7.9      4.612      9.377
REMARK  7 active torsions:
REMARK  status: ('A' for Active; 'I' for Inactive)
REMARK    1  A    between atoms: O1_2  and  C2_3 
REMARK    2  A    between atoms: C4_5  and  N1_6 
REMARK       I    between atoms: N1_6  and  C5_7 
REMARK    3  A    between atoms: C5_7  and  C6_9 
REMARK    4  A    between atoms: C7_10  and  C8_11 
REMARK    5  A    between atoms: C8_11  and  N2_12 
REMARK    6  A    between atoms: C16_21  and  N4_22 
REMARK    7  A    between atoms: N4_22  and  C17_23 
ROOT
HETATM    1  C2  UNL     1      21.674   5.641  50.909  1.00  0.00     0.053 C 
HETATM    2  C3  UNL     1      22.346   6.829  50.818  1.00  0.00     0.062 C 
HETATM    3  C4  UNL     1      23.802   6.661  51.186  1.00  0.00     0.041 C 
HETATM    4  C11 UNL     1      23.900   5.386  51.486  1.00  0.00    -0.029 C 
HETATM    5  C12 UNL     1      23.053   4.689  52.568  1.00  0.00     0.051 C 
HETATM    6  C13 UNL     1      22.093   4.265  51.392  1.00  0.00     0.066 C 
HETATM    7  C14 UNL     1      23.133   3.596  50.496  1.00  0.00     0.130 C 
HETATM    8  C15 UNL     1      22.985   3.899  49.103  1.00  0.00     0.067 C 
HETATM    9  N3  UNL     1      22.872   4.150  48.002  1.00  0.00    -0.197 NA
HETATM   10  C16 UNL     1      24.543   4.133  51.019  1.00  0.00     0.131 C 
ENDROOT
BRANCH  10  11
HETATM   11  N4  UNL     1      25.003   3.271  52.049  1.00  0.00    -0.380 N 
HETATM   12  H21 UNL     1      25.198   3.796  52.957  1.00  0.00     0.160 HD
BRANCH  11  13
HETATM   13  C17 UNL     1      25.297   1.923  52.308  1.00  0.00     0.029 A 
HETATM   14  C18 UNL     1      26.408   1.182  51.946  1.00  0.00     0.029 A 
HETATM   15  C19 UNL     1      26.479  -0.139  52.312  1.00  0.00     0.004 A 
HETATM   16  C20 UNL     1      25.501  -0.797  53.027  1.00  0.00     0.019 A 
HETATM   17  C21 UNL     1      24.386  -0.078  53.397  1.00  0.00     0.013 A 
HETATM   18 BR1  UNL     1      23.036  -0.968  54.378  1.00  0.00    -0.051 Br
HETATM   19  C22 UNL     1      24.313   1.248  53.031  1.00  0.00     0.048 A 
ENDBRANCH  11  13
ENDBRANCH  10  11
BRANCH   1  20
HETATM   20  O1  UNL     1      20.366   5.816  50.450  1.00  0.00    -0.360 OA
HETATM   21  C1  UNL     1      20.001   6.373  49.229  1.00  0.00     0.209 C 
ENDBRANCH   1  20
BRANCH   3  22
HETATM   22  N1  UNL     1      24.934   7.457  51.191  1.00  0.00    -0.323 N 
HETATM   23  C5  UNL     1      25.636   7.604  49.983  1.00  0.00     0.245 C 
HETATM   24  O2  UNL     1      25.383   7.108  48.857  1.00  0.00    -0.268 OA
HETATM   25  H5  UNL     1      25.284   7.925  52.011  1.00  0.00     0.169 HD
BRANCH  23  26
HETATM   26  C6  UNL     1      26.818   8.437  50.040  1.00  0.00     0.072 C 
HETATM   27  C7  UNL     1      27.904   8.559  49.314  1.00  0.00     0.008 C 
BRANCH  27  28
HETATM   28  C8  UNL     1      29.130   9.362  49.299  1.00  0.00     0.299 C 
BRANCH  28  29
HETATM   29  N2  UNL     1      30.189   8.801  48.485  1.00  0.00     0.083 N 
HETATM   30  C9  UNL     1      31.331   8.637  49.384  1.00  0.00     0.309 C 
HETATM   31  C10 UNL     1      29.840   7.488  47.977  1.00  0.00     0.309 C 
ENDBRANCH  28  29
ENDBRANCH  27  28
ENDBRANCH  23  26
ENDBRANCH   3  22
TORSDOF 7
ENDMDL
MODEL 6
REMARK VINA RESULT:      -7.8      3.908      8.051
REMARK  7 active torsions:
REMARK  status: ('A' for Active; 'I' for Inactive)
REMARK    1  A    between atoms: O1_2  and  C2_3 
REMARK    2  A    between atoms: C4_5  and  N1_6 
REMARK       I    between atoms: N1_6  and  C5_7 
REMARK    3  A    between atoms: C5_7  and  C6_9 
REMARK    4  A    between atoms: C7_10  and  C8_11 
REMARK    5  A    between atoms: C8_11  and  N2_12 
REMARK    6  A    between atoms: C16_21  and  N4_22 
REMARK    7  A    between atoms: N4_22  and  C17_23 
ROOT
HETATM    1  C2  UNL     1      22.458   5.901  50.967  1.00  0.00     0.053 C 
HETATM    2  C3  UNL     1      23.739   5.666  51.382  1.00  0.00     0.062 C 
HETATM    3  C4  UNL     1      23.910   4.236  51.841  1.00  0.00     0.041 C 
HETATM    4  C11 UNL     1      22.714   3.715  51.683  1.00  0.00    -0.029 C 
HETATM    5  C12 UNL     1      21.438   4.275  52.339  1.00  0.00     0.051 C 
HETATM    6  C13 UNL     1      21.205   5.043  50.982  1.00  0.00     0.066 C 
HETATM    7  C14 UNL     1      21.279   3.843  50.041  1.00  0.00     0.130 C 
HETATM    8  C15 UNL     1      22.016   4.090  48.836  1.00  0.00     0.067 C 
HETATM    9  N3  UNL     1      22.610   4.285  47.889  1.00  0.00    -0.197 NA
HETATM   10  C16 UNL     1      21.994   2.692  50.885  1.00  0.00     0.131 C 
ENDROOT
BRANCH  10  11
HETATM   11  N4  UNL     1      21.000   1.966  51.594  1.00  0.00    -0.380 N 
HETATM   12  H21 UNL     1      20.018   2.335  51.404  1.00  0.00     0.160 HD
BRANCH  11  13
HETATM   13  C17 UNL     1      20.847   0.891  52.484  1.00  0.00     0.029 A 
HETATM   14  C18 UNL     1      21.747   0.373  53.399  1.00  0.00     0.029 A 
HETATM   15  C19 UNL     1      21.374  -0.697  54.171  1.00  0.00     0.004 A 
HETATM   16  C20 UNL     1      20.141  -1.311  54.100  1.00  0.00     0.019 A 
HETATM   17  C21 UNL     1      19.230  -0.812  53.195  1.00  0.00     0.013 A 
HETATM   18 BR1  UNL     1      17.534  -1.642  53.087  1.00  0.00    -0.051 Br
HETATM   19  C22 UNL     1      19.602   0.264  52.419  1.00  0.00     0.048 A 
ENDBRANCH  11  13
ENDBRANCH  10  11
BRANCH   1  20
HETATM   20  O1  UNL     1      22.372   7.193  50.445  1.00  0.00    -0.360 OA
HETATM   21  C1  UNL     1      21.196   7.871  50.141  1.00  0.00     0.209 C 
ENDBRANCH   1  20
BRANCH   3  22
HETATM   22  N1  UNL     1      24.957   3.436  52.262  1.00  0.00    -0.323 N 
HETATM   23  C5  UNL     1      25.722   2.786  51.279  1.00  0.00     0.245 C 
HETATM   24  O2  UNL     1      25.599   2.824  50.029  1.00  0.00    -0.268 OA
HETATM   25  H5  UNL     1      25.192   3.287  53.231  1.00  0.00     0.169 HD
BRANCH  23  26
HETATM   26  C6  UNL     1      26.799   1.953  51.768  1.00  0.00     0.072 C 
HETATM   27  C7  UNL     1      26.878   0.760  52.309  1.00  0.00     0.008 C 
BRANCH  27  28
HETATM   28  C8  UNL     1      27.909  -0.145  52.826  1.00  0.00     0.299 C 
BRANCH  28  29
HETATM   29  N2  UNL     1      28.009  -0.156  54.271  1.00  0.00     0.083 N 
HETATM   30  C9  UNL     1      29.007   0.859  54.605  1.00  0.00     0.309 C 
HETATM   31  C10 UNL     1      26.761   0.233  54.900  1.00  0.00     0.309 C 
ENDBRANCH  28  29
ENDBRANCH  27  28
ENDBRANCH  23  26
ENDBRANCH   3  22
TORSDOF 7
ENDMDL
MODEL 7
REMARK VINA RESULT:      -7.7      4.630      9.434
REMARK  7 active torsions:
REMARK  status: ('A' for Active; 'I' for Inactive)
REMARK    1  A    between atoms: O1_2  and  C2_3 
REMARK    2  A    between atoms: C4_5  and  N1_6 
REMARK       I    between atoms: N1_6  and  C5_7 
REMARK    3  A    between atoms: C5_7  and  C6_9 
REMARK    4  A    between atoms: C7_10  and  C8_11 
REMARK    5  A    between atoms: C8_11  and  N2_12 
REMARK    6  A    between atoms: C16_21  and  N4_22 
REMARK    7  A    between atoms: N4_22  and  C17_23 
ROOT
HETATM    1  C2  UNL     1      22.398   6.522  50.835  1.00  0.00     0.053 C 
HETATM    2  C3  UNL     1      23.483   7.168  50.308  1.00  0.00     0.062 C 
HETATM    3  C4  UNL     1      24.739   6.343  50.467  1.00  0.00     0.041 C 
HETATM    4  C11 UNL     1      24.324   5.263  51.090  1.00  0.00    -0.029 C 
HETATM    5  C12 UNL     1      23.592   5.280  52.446  1.00  0.00     0.051 C 
HETATM    6  C13 UNL     1      22.259   5.223  51.607  1.00  0.00     0.066 C 
HETATM    7  C14 UNL     1      22.581   3.983  50.776  1.00  0.00     0.130 C 
HETATM    8  C15 UNL     1      22.205   4.090  49.397  1.00  0.00     0.067 C 
HETATM    9  N3  UNL     1      21.916   4.183  48.303  1.00  0.00    -0.197 NA
HETATM   10  C16 UNL     1      24.163   3.801  50.891  1.00  0.00     0.131 C 
ENDROOT
BRANCH  10  11
HETATM   11  N4  UNL     1      24.446   3.004  52.032  1.00  0.00    -0.380 N 
HETATM   12  H21 UNL     1      24.322   3.545  52.943  1.00  0.00     0.160 HD
BRANCH  11  13
HETATM   13  C17 UNL     1      24.840   1.708  52.399  1.00  0.00     0.029 A 
HETATM   14  C18 UNL     1      26.013   1.031  52.108  1.00  0.00     0.029 A 
HETATM   15  C19 UNL     1      26.180  -0.247  52.577  1.00  0.00     0.004 A 
HETATM   16  C20 UNL     1      25.245  -0.923  53.332  1.00  0.00     0.019 A 
HETATM   17  C21 UNL     1      24.071  -0.269  53.632  1.00  0.00     0.013 A 
HETATM   18 BR1  UNL     1      22.779  -1.183  54.667  1.00  0.00    -0.051 Br
HETATM   19  C22 UNL     1      23.901   1.016  53.163  1.00  0.00     0.048 A 
ENDBRANCH  11  13
ENDBRANCH  10  11
BRANCH   1  20
HETATM   20  O1  UNL     1      21.245   7.262  50.565  1.00  0.00    -0.360 OA
HETATM   21  C1  UNL     1      21.153   8.329  49.677  1.00  0.00     0.209 C 
ENDBRANCH   1  20
BRANCH   3  22
HETATM   22  N1  UNL     1      26.059   6.439  50.065  1.00  0.00    -0.323 N 
HETATM   23  C5  UNL     1      26.314   6.689  48.707  1.00  0.00     0.245 C 
HETATM   24  O2  UNL     1      25.498   6.849  47.766  1.00  0.00    -0.268 OA
HETATM   25  H5  UNL     1      26.842   6.329  50.690  1.00  0.00     0.169 HD
BRANCH  23  26
HETATM   26  C6  UNL     1      27.710   6.771  48.333  1.00  0.00     0.072 C 
HETATM   27  C7  UNL     1      28.704   5.916  48.261  1.00  0.00     0.008 C 
BRANCH  27  28
HETATM   28  C8  UNL     1      30.124   5.913  47.899  1.00  0.00     0.299 C 
BRANCH  28  29
HETATM   29  N2  UNL     1      31.018   6.004  49.036  1.00  0.00     0.083 N 
HETATM   30  C9  UNL     1      32.219   5.264  48.652  1.00  0.00     0.309 C 
HETATM   31  C10 UNL     1      31.414   7.374  49.303  1.00  0.00     0.309 C 
ENDBRANCH  28  29
ENDBRANCH  27  28
ENDBRANCH  23  26
ENDBRANCH   3  22
TORSDOF 7
ENDMDL
MODEL 8
REMARK VINA RESULT:      -7.6      3.656      7.007
REMARK  7 active torsions:
REMARK  status: ('A' for Active; 'I' for Inactive)
REMARK    1  A    between atoms: O1_2  and  C2_3 
REMARK    2  A    between atoms: C4_5  and  N1_6 
REMARK       I    between atoms: N1_6  and  C5_7 
REMARK    3  A    between atoms: C5_7  and  C6_9 
REMARK    4  A    between atoms: C7_10  and  C8_11 
REMARK    5  A    between atoms: C8_11  and  N2_12 
REMARK    6  A    between atoms: C16_21  and  N4_22 
REMARK    7  A    between atoms: N4_22  and  C17_23 
ROOT
HETATM    1  C2  UNL     1      21.609   4.024  50.145  1.00  0.00     0.053 C 
HETATM    2  C3  UNL     1      21.999   3.454  51.326  1.00  0.00     0.062 C 
HETATM    3  C4  UNL     1      23.495   3.562  51.515  1.00  0.00     0.041 C 
HETATM    4  C11 UNL     1      23.901   4.179  50.428  1.00  0.00    -0.029 C 
HETATM    5  C12 UNL     1      23.639   3.665  48.999  1.00  0.00     0.051 C 
HETATM    6  C13 UNL     1      22.393   4.630  48.995  1.00  0.00     0.066 C 
HETATM    7  C14 UNL     1      23.119   5.921  49.366  1.00  0.00     0.130 C 
HETATM    8  C15 UNL     1      22.418   6.732  50.318  1.00  0.00     0.067 C 
HETATM    9  N3  UNL     1      21.866   7.366  51.081  1.00  0.00    -0.197 NA
HETATM   10  C16 UNL     1      24.517   5.453  49.981  1.00  0.00     0.131 C 
ENDROOT
BRANCH  10  11
HETATM   11  N4  UNL     1      25.457   5.329  48.925  1.00  0.00    -0.380 N 
HETATM   12  H21 UNL     1      25.060   4.796  48.091  1.00  0.00     0.160 HD
BRANCH  11  13
HETATM   13  C17 UNL     1      26.771   5.678  48.574  1.00  0.00     0.029 A 
HETATM   14  C18 UNL     1      27.924   4.912  48.619  1.00  0.00     0.029 A 
HETATM   15  C19 UNL     1      29.113   5.472  48.224  1.00  0.00     0.004 A 
HETATM   16  C20 UNL     1      29.247   6.770  47.779  1.00  0.00     0.019 A 
HETATM   17  C21 UNL     1      28.113   7.549  47.727  1.00  0.00     0.013 A 
HETATM   18 BR1  UNL     1      28.281   9.331  47.118  1.00  0.00    -0.051 Br
HETATM   19  C22 UNL     1      26.917   6.989  48.122  1.00  0.00     0.048 A 
ENDBRANCH  11  13
ENDBRANCH  10  11
BRANCH   1  20
HETATM   20  O1  UNL     1      20.215   4.006  50.064  1.00  0.00    -0.360 OA
HETATM   21  C1  UNL     1      19.439   4.804  49.230  1.00  0.00     0.209 C 
ENDBRANCH   1  20
BRANCH   3  22
HETATM   22  N1  UNL     1      24.404   3.260  52.513  1.00  0.00    -0.323 N 
HETATM   23  C5  UNL     1      24.804   1.920  52.650  1.00  0.00     0.245 C 
HETATM   24  O2  UNL     1      24.453   0.918  51.979  1.00  0.00    -0.268 OA
HETATM   25  H5  UNL     1      24.784   3.943  53.148  1.00  0.00     0.169 HD
BRANCH  23  26
HETATM   26  C6  UNL     1      25.749   1.652  53.713  1.00  0.00     0.072 C 
HETATM   27  C7  UNL     1      26.455   0.610  54.088  1.00  0.00     0.008 C 
BRANCH  27  28
HETATM   28  C8  UNL     1      27.419   0.257  55.133  1.00  0.00     0.299 C 
BRANCH  28  29
HETATM   29  N2  UNL     1      28.773   0.083  54.648  1.00  0.00     0.083 N 
HETATM   30  C9  UNL     1      28.664  -0.799  53.486  1.00  0.00     0.309 C 
HETATM   31  C10 UNL     1      29.348   1.335  54.195  1.00  0.00     0.309 C 
ENDBRANCH  28  29
ENDBRANCH  27  28
ENDBRANCH  23  26
ENDBRANCH   3  22
TORSDOF 7
ENDMDL
MODEL 9
REMARK VINA RESULT:      -7.6      3.609      6.249
REMARK  7 active torsions:
REMARK  status: ('A' for Active; 'I' for Inactive)
REMARK    1  A    between atoms: O1_2  and  C2_3 
REMARK    2  A    between atoms: C4_5  and  N1_6 
REMARK       I    between atoms: N1_6  and  C5_7 
REMARK    3  A    between atoms: C5_7  and  C6_9 
REMARK    4  A    between atoms: C7_10  and  C8_11 
REMARK    5  A    between atoms: C8_11  and  N2_12 
REMARK    6  A    between atoms: C16_21  and  N4_22 
REMARK    7  A    between atoms: N4_22  and  C17_23 
ROOT
HETATM    1  C2  UNL     1      23.774   5.429  48.366  1.00  0.00     0.053 C 
HETATM    2  C3  UNL     1      22.536   4.847  48.343  1.00  0.00     0.062 C 
HETATM    3  C4  UNL     1      22.411   3.790  49.416  1.00  0.00     0.041 C 
HETATM    4  C11 UNL     1      23.588   3.801  50.000  1.00  0.00    -0.029 C 
HETATM    5  C12 UNL     1      24.919   3.570  49.258  1.00  0.00     0.051 C 
HETATM    6  C13 UNL     1      25.024   5.141  49.177  1.00  0.00     0.066 C 
HETATM    7  C14 UNL     1      24.866   5.444  50.665  1.00  0.00     0.130 C 
HETATM    8  C15 UNL     1      24.020   6.567  50.946  1.00  0.00     0.067 C 
HETATM    9  N3  UNL     1      23.341   7.449  51.166  1.00  0.00    -0.197 NA
HETATM   10  C16 UNL     1      24.234   4.120  51.298  1.00  0.00     0.131 C 
ENDROOT
BRANCH  10  11
HETATM   11  N4  UNL     1      25.290   3.250  51.675  1.00  0.00    -0.380 N 
HETATM   12  H21 UNL     1      26.250   3.663  51.461  1.00  0.00     0.160 HD
BRANCH  11  13
HETATM   13  C17 UNL     1      25.528   1.994  52.256  1.00  0.00     0.029 A 
HETATM   14  C18 UNL     1      24.638   0.967  52.521  1.00  0.00     0.029 A 
HETATM   15  C19 UNL     1      25.102  -0.184  53.106  1.00  0.00     0.004 A 
HETATM   16  C20 UNL     1      26.417  -0.397  53.458  1.00  0.00     0.019 A 
HETATM   17  C21 UNL     1      27.320   0.612  53.204  1.00  0.00     0.013 A 
HETATM   18 BR1  UNL     1      29.128   0.334  53.682  1.00  0.00    -0.051 Br
HETATM   19  C22 UNL     1      26.856   1.769  52.617  1.00  0.00     0.048 A 
ENDBRANCH  11  13
ENDBRANCH  10  11
BRANCH   1  20
HETATM   20  O1  UNL     1      23.808   6.474  47.440  1.00  0.00    -0.360 OA
HETATM   21  C1  UNL     1      24.711   7.532  47.442  1.00  0.00     0.209 C 
ENDBRANCH   1  20
BRANCH   3  22
HETATM   22  N1  UNL     1      21.409   2.973  49.907  1.00  0.00    -0.323 N 
HETATM   23  C5  UNL     1      21.206   1.735  49.276  1.00  0.00     0.245 C 
HETATM   24  O2  UNL     1      21.819   1.235  48.299  1.00  0.00    -0.268 OA
HETATM   25  H5  UNL     1      20.814   3.221  50.682  1.00  0.00     0.169 HD
BRANCH  23  26
HETATM   26  C6  UNL     1      20.141   0.919  49.818  1.00  0.00     0.072 C 
HETATM   27  C7  UNL     1      19.685   0.667  51.024  1.00  0.00     0.008 C 
BRANCH  27  28
HETATM   28  C8  UNL     1      18.630  -0.132  51.653  1.00  0.00     0.299 C 
BRANCH  28  29
HETATM   29  N2  UNL     1      18.830  -0.353  53.071  1.00  0.00     0.083 N 
HETATM   30  C9  UNL     1      18.148  -1.611  53.373  1.00  0.00     0.309 C 
HETATM   31  C10 UNL     1      20.232  -0.525  53.398  1.00  0.00     0.309 C 
ENDBRANCH  28  29
ENDBRANCH  27  28
ENDBRANCH  23  26
ENDBRANCH   3  22
TORSDOF 7
ENDMDL
