MODEL 1
REMARK VINA RESULT:      -8.3      0.000      0.000
REMARK  4 active torsions:
REMARK  status: ('A' for Active; 'I' for Inactive)
REMARK    1  A    between atoms: C4_5  and  N2_6 
REMARK    2  A    between atoms: N2_6  and  C5_7 
REMARK    3  A    between atoms: C6_8  and  C7_9 
REMARK    4  A    between atoms: C8_10  and  C9_12 
ROOT
HETATM    1  C1  UNL     1      22.118   4.117  52.310  1.00  0.00     0.057 C 
HETATM    2  C2  UNL     1      22.798   3.659  51.047  1.00  0.00    -0.008 C 
HETATM    3  C3  UNL     1      23.913   4.360  50.989  1.00  0.00     0.103 C 
HETATM    4  N1  UNL     1      24.791   4.165  49.922  1.00  0.00    -0.352 N 
HETATM    5  C4  UNL     1      26.066   3.615  50.221  1.00  0.00     0.101 C 
HETATM    6  C12 UNL     1      26.647   2.706  50.987  1.00  0.00     0.030 C 
HETATM    7  C13 UNL     1      25.679   1.963  51.868  1.00  0.00     0.054 C 
HETATM    8  C14 UNL     1      25.870   0.967  52.788  1.00  0.00     0.159 C 
HETATM    9  O1  UNL     1      24.598   0.676  53.287  1.00  0.00    -0.383 OA
HETATM   10  C15 UNL     1      24.334  -0.509  53.954  1.00  0.00     0.170 C 
HETATM   11  C16 UNL     1      22.973  -0.851  54.391  1.00  0.00     0.046 C 
HETATM   12  C17 UNL     1      21.913  -1.125  53.416  1.00  0.00     0.119 C 
HETATM   13  N3  UNL     1      21.406  -0.154  52.549  1.00  0.00    -0.407 N 
HETATM   14  C18 UNL     1      20.081   0.311  52.774  1.00  0.00     0.143 C 
HETATM   15  C19 UNL     1      19.451   0.731  51.475  1.00  0.00     0.189 C 
HETATM   16  O2  UNL     1      20.237   1.682  50.857  1.00  0.00    -0.372 OA
HETATM   17  C20 UNL     1      21.428   1.108  50.490  1.00  0.00     0.205 C 
HETATM   18  C21 UNL     1      22.227   0.608  51.733  1.00  0.00     0.160 C 
HETATM   19  S1  UNL     1      22.494   2.419  49.749  1.00  0.00    -0.100 SA
HETATM   20  H5  UNL     1      24.292   4.480  49.088  1.00  0.00     0.166 HD
ENDROOT
BRANCH   5  21
HETATM   21  N2  UNL     1      26.822   4.433  49.292  1.00  0.00    -0.353 N 
HETATM   22  H6  UNL     1      27.540   3.745  48.932  1.00  0.00     0.166 HD
BRANCH  21  23
HETATM   23  C5  UNL     1      26.798   5.792  48.818  1.00  0.00     0.090 C 
HETATM   24  C6  UNL     1      27.918   6.292  48.239  1.00  0.00     0.020 C 
BRANCH  24  25
HETATM   25  C7  UNL     1      28.939   5.282  48.228  1.00  0.00     0.039 C 
HETATM   26  C8  UNL     1      30.170   5.755  48.127  1.00  0.00     0.097 C 
HETATM   27  F1  UNL     1      31.308   4.998  48.096  1.00  0.00    -0.210 F 
BRANCH  26  28
HETATM   28  C9  UNL     1      30.548   7.202  48.032  1.00  0.00     0.040 C 
HETATM   29  C10 UNL     1      31.083   7.496  46.650  1.00  0.00     0.017 C 
HETATM   30  C11 UNL     1      31.458   7.639  49.139  1.00  0.00     0.017 C 
ENDBRANCH  26  28
ENDBRANCH  24  25
ENDBRANCH  21  23
ENDBRANCH   5  21
TORSDOF 4
ENDMDL
MODEL 2
REMARK VINA RESULT:      -8.2      4.183      9.394
REMARK  4 active torsions:
REMARK  status: ('A' for Active; 'I' for Inactive)
REMARK    1  A    between atoms: C4_5  and  N2_6 
REMARK    2  A    between atoms: N2_6  and  C5_7 
REMARK    3  A    between atoms: C6_8  and  C7_9 
REMARK    4  A    between atoms: C8_10  and  C9_12 
ROOT
HETATM    1  C1  UNL     1      25.848   8.670  47.028  1.00  0.00     0.057 C 
HETATM    2  C2  UNL     1      25.800   8.121  48.429  1.00  0.00    -0.008 C 
HETATM    3  C3  UNL     1      25.168   6.969  48.319  1.00  0.00     0.103 C 
HETATM    4  N1  UNL     1      24.960   6.189  49.458  1.00  0.00    -0.352 N 
HETATM    5  C4  UNL     1      25.623   4.935  49.518  1.00  0.00     0.101 C 
HETATM    6  C12 UNL     1      26.777   4.359  49.220  1.00  0.00     0.030 C 
HETATM    7  C13 UNL     1      27.772   5.305  48.604  1.00  0.00     0.054 C 
HETATM    8  C14 UNL     1      29.053   5.110  48.161  1.00  0.00     0.159 C 
HETATM    9  O1  UNL     1      29.475   6.357  47.692  1.00  0.00    -0.383 OA
HETATM   10  C15 UNL     1      30.817   6.647  47.511  1.00  0.00     0.170 C 
HETATM   11  C16 UNL     1      31.259   7.991  47.110  1.00  0.00     0.046 C 
HETATM   12  C17 UNL     1      31.098   9.138  48.009  1.00  0.00     0.119 C 
HETATM   13  N3  UNL     1      29.851   9.644  48.383  1.00  0.00    -0.407 N 
HETATM   14  C18 UNL     1      29.468  10.914  47.870  1.00  0.00     0.143 C 
HETATM   15  C19 UNL     1      28.556  11.612  48.840  1.00  0.00     0.189 C 
HETATM   16  O2  UNL     1      27.465  10.814  49.118  1.00  0.00    -0.372 OA
HETATM   17  C20 UNL     1      27.889   9.695  49.790  1.00  0.00     0.205 C 
HETATM   18  C21 UNL     1      28.858   8.839  48.918  1.00  0.00     0.160 C 
HETATM   19  S1  UNL     1      26.427   8.604  50.069  1.00  0.00    -0.100 SA
HETATM   20  H5  UNL     1      24.329   6.728  50.055  1.00  0.00     0.166 HD
ENDROOT
BRANCH   5  21
HETATM   21  N2  UNL     1      24.533   4.199  50.129  1.00  0.00    -0.353 N 
HETATM   22  H6  UNL     1      24.218   4.866  50.887  1.00  0.00     0.166 HD
BRANCH  21  23
HETATM   23  C5  UNL     1      23.877   2.931  49.941  1.00  0.00     0.090 C 
HETATM   24  C6  UNL     1      23.756   2.104  51.009  1.00  0.00     0.020 C 
BRANCH  24  25
HETATM   25  C7  UNL     1      24.348   2.726  52.161  1.00  0.00     0.039 C 
HETATM   26  C8  UNL     1      25.071   1.909  52.908  1.00  0.00     0.097 C 
HETATM   27  F1  UNL     1      25.733   2.260  54.051  1.00  0.00    -0.210 F 
BRANCH  26  28
HETATM   28  C9  UNL     1      25.304   0.453  52.641  1.00  0.00     0.040 C 
HETATM   29  C10 UNL     1      24.755  -0.367  53.784  1.00  0.00     0.017 C 
HETATM   30  C11 UNL     1      26.732   0.144  52.306  1.00  0.00     0.017 C 
ENDBRANCH  26  28
ENDBRANCH  24  25
ENDBRANCH  21  23
ENDBRANCH   5  21
TORSDOF 4
ENDMDL
MODEL 3
REMARK VINA RESULT:      -8.1      4.018      8.795
REMARK  4 active torsions:
REMARK  status: ('A' for Active; 'I' for Inactive)
REMARK    1  A    between atoms: C4_5  and  N2_6 
REMARK    2  A    between atoms: N2_6  and  C5_7 
REMARK    3  A    between atoms: C6_8  and  C7_9 
REMARK    4  A    between atoms: C8_10  and  C9_12 
ROOT
HETATM    1  C1  UNL     1      24.570   7.753  47.016  1.00  0.00     0.057 C 
HETATM    2  C2  UNL     1      24.711   7.392  48.471  1.00  0.00    -0.008 C 
HETATM    3  C3  UNL     1      24.349   6.126  48.543  1.00  0.00     0.103 C 
HETATM    4  N1  UNL     1      24.375   5.474  49.776  1.00  0.00    -0.352 N 
HETATM    5  C4  UNL     1      25.305   4.412  49.931  1.00  0.00     0.101 C 
HETATM    6  C12 UNL     1      26.543   4.066  49.618  1.00  0.00     0.030 C 
HETATM    7  C13 UNL     1      27.272   5.118  48.825  1.00  0.00     0.054 C 
HETATM    8  C14 UNL     1      28.541   5.150  48.314  1.00  0.00     0.159 C 
HETATM    9  O1  UNL     1      28.650   6.388  47.674  1.00  0.00    -0.383 OA
HETATM   10  C15 UNL     1      29.883   6.937  47.362  1.00  0.00     0.170 C 
HETATM   11  C16 UNL     1      29.993   8.281  46.777  1.00  0.00     0.046 C 
HETATM   12  C17 UNL     1      29.620   9.472  47.546  1.00  0.00     0.119 C 
HETATM   13  N3  UNL     1      28.310   9.739  47.950  1.00  0.00    -0.407 N 
HETATM   14  C18 UNL     1      27.628  10.819  47.323  1.00  0.00     0.143 C 
HETATM   15  C19 UNL     1      26.629  11.421  48.271  1.00  0.00     0.189 C 
HETATM   16  O2  UNL     1      25.759  10.449  48.719  1.00  0.00    -0.372 OA
HETATM   17  C20 UNL     1      26.454   9.545  49.482  1.00  0.00     0.205 C 
HETATM   18  C21 UNL     1      27.549   8.813  48.646  1.00  0.00     0.160 C 
HETATM   19  S1  UNL     1      25.289   8.207  49.993  1.00  0.00    -0.100 SA
HETATM   20  H5  UNL     1      23.668   5.936  50.352  1.00  0.00     0.166 HD
ENDROOT
BRANCH   5  21
HETATM   21  N2  UNL     1      24.437   3.542  50.703  1.00  0.00    -0.353 N 
HETATM   22  H6  UNL     1      24.144   2.830  49.978  1.00  0.00     0.166 HD
BRANCH  21  23
HETATM   23  C5  UNL     1      23.965   3.454  52.060  1.00  0.00     0.090 C 
HETATM   24  C6  UNL     1      24.196   2.308  52.748  1.00  0.00     0.020 C 
BRANCH  24  25
HETATM   25  C7  UNL     1      24.908   1.385  51.910  1.00  0.00     0.039 C 
HETATM   26  C8  UNL     1      26.083   1.012  52.390  1.00  0.00     0.097 C 
HETATM   27  F1  UNL     1      26.946   0.142  51.781  1.00  0.00    -0.210 F 
BRANCH  26  28
HETATM   28  C9  UNL     1      26.684   1.463  53.686  1.00  0.00     0.040 C 
HETATM   29  C10 UNL     1      27.952   2.238  53.413  1.00  0.00     0.017 C 
HETATM   30  C11 UNL     1      26.858   0.344  54.667  1.00  0.00     0.017 C 
ENDBRANCH  26  28
ENDBRANCH  24  25
ENDBRANCH  21  23
ENDBRANCH   5  21
TORSDOF 4
ENDMDL
MODEL 4
REMARK VINA RESULT:      -8.0      4.803     10.578
REMARK  4 active torsions:
REMARK  status: ('A' for Active; 'I' for Inactive)
REMARK    1  A    between atoms: C4_5  and  N2_6 
REMARK    2  A    between atoms: N2_6  and  C5_7 
REMARK    3  A    between atoms: C6_8  and  C7_9 
REMARK    4  A    between atoms: C8_10  and  C9_12 
ROOT
HETATM    1  C1  UNL     1      21.835   1.187  49.565  1.00  0.00     0.057 C 
HETATM    2  C2  UNL     1      21.166   1.482  50.881  1.00  0.00    -0.008 C 
HETATM    3  C3  UNL     1      20.438   0.413  51.137  1.00  0.00     0.103 C 
HETATM    4  N1  UNL     1      19.683   0.361  52.310  1.00  0.00    -0.352 N 
HETATM    5  C4  UNL     1      20.052  -0.612  53.278  1.00  0.00     0.101 C 
HETATM    6  C12 UNL     1      21.116  -1.174  53.827  1.00  0.00     0.030 C 
HETATM    7  C13 UNL     1      22.416  -0.645  53.282  1.00  0.00     0.054 C 
HETATM    8  C14 UNL     1      23.716  -0.958  53.576  1.00  0.00     0.159 C 
HETATM    9  O1  UNL     1      24.488  -0.137  52.751  1.00  0.00    -0.383 OA
HETATM   10  C15 UNL     1      25.827   0.103  53.015  1.00  0.00     0.170 C 
HETATM   11  C16 UNL     1      26.609   1.043  52.199  1.00  0.00     0.046 C 
HETATM   12  C17 UNL     1      26.315   2.480  52.212  1.00  0.00     0.119 C 
HETATM   13  N3  UNL     1      25.124   3.018  51.719  1.00  0.00    -0.407 N 
HETATM   14  C18 UNL     1      25.186   3.778  50.518  1.00  0.00     0.143 C 
HETATM   15  C19 UNL     1      24.106   4.824  50.510  1.00  0.00     0.189 C 
HETATM   16  O2  UNL     1      22.873   4.229  50.684  1.00  0.00    -0.372 OA
HETATM   17  C20 UNL     1      22.814   3.684  51.942  1.00  0.00     0.205 C 
HETATM   18  C21 UNL     1      23.882   2.563  52.130  1.00  0.00     0.160 C 
HETATM   19  S1  UNL     1      21.194   2.818  52.118  1.00  0.00    -0.100 SA
HETATM   20  H5  UNL     1      18.974   1.091  52.220  1.00  0.00     0.166 HD
ENDROOT
BRANCH   5  21
HETATM   21  N2  UNL     1      18.703  -0.974  53.671  1.00  0.00    -0.353 N 
HETATM   22  H6  UNL     1      18.869  -1.458  54.596  1.00  0.00     0.166 HD
BRANCH  21  23
HETATM   23  C5  UNL     1      17.372  -0.827  53.142  1.00  0.00     0.090 C 
HETATM   24  C6  UNL     1      16.631  -1.946  52.944  1.00  0.00     0.020 C 
BRANCH  24  25
HETATM   25  C7  UNL     1      17.394  -3.098  53.337  1.00  0.00     0.039 C 
HETATM   26  C8  UNL     1      16.690  -4.214  53.419  1.00  0.00     0.097 C 
HETATM   27  F1  UNL     1      17.186  -5.439  53.770  1.00  0.00    -0.210 F 
BRANCH  26  28
HETATM   28  C9  UNL     1      15.224  -4.348  53.137  1.00  0.00     0.040 C 
HETATM   29  C10 UNL     1      14.548  -5.042  54.296  1.00  0.00     0.017 C 
HETATM   30  C11 UNL     1      14.942  -4.977  51.807  1.00  0.00     0.017 C 
ENDBRANCH  26  28
ENDBRANCH  24  25
ENDBRANCH  21  23
ENDBRANCH   5  21
TORSDOF 4
ENDMDL
MODEL 5
REMARK VINA RESULT:      -8.0      3.868      8.612
REMARK  4 active torsions:
REMARK  status: ('A' for Active; 'I' for Inactive)
REMARK    1  A    between atoms: C4_5  and  N2_6 
REMARK    2  A    between atoms: N2_6  and  C5_7 
REMARK    3  A    between atoms: C6_8  and  C7_9 
REMARK    4  A    between atoms: C8_10  and  C9_12 
ROOT
HETATM    1  C1  UNL     1      24.288   7.606  47.013  1.00  0.00     0.057 C 
HETATM    2  C2  UNL     1      24.163   7.228  48.465  1.00  0.00    -0.008 C 
HETATM    3  C3  UNL     1      23.623   6.025  48.456  1.00  0.00     0.103 C 
HETATM    4  N1  UNL     1      23.376   5.375  49.666  1.00  0.00    -0.352 N 
HETATM    5  C4  UNL     1      24.118   4.193  49.932  1.00  0.00     0.101 C 
HETATM    6  C12 UNL     1      25.329   3.678  49.796  1.00  0.00     0.030 C 
HETATM    7  C13 UNL     1      26.304   4.618  49.139  1.00  0.00     0.054 C 
HETATM    8  C14 UNL     1      27.627   4.473  48.819  1.00  0.00     0.159 C 
HETATM    9  O1  UNL     1      27.999   5.684  48.229  1.00  0.00    -0.383 OA
HETATM   10  C15 UNL     1      29.329   6.055  48.111  1.00  0.00     0.170 C 
HETATM   11  C16 UNL     1      29.708   7.371  47.577  1.00  0.00     0.046 C 
HETATM   12  C17 UNL     1      29.394   8.602  48.309  1.00  0.00     0.119 C 
HETATM   13  N3  UNL     1      28.088   9.049  48.524  1.00  0.00    -0.407 N 
HETATM   14  C18 UNL     1      27.662  10.214  47.827  1.00  0.00     0.143 C 
HETATM   15  C19 UNL     1      26.627  10.950  48.632  1.00  0.00     0.189 C 
HETATM   16  O2  UNL     1      25.575  10.108  48.928  1.00  0.00    -0.372 OA
HETATM   17  C20 UNL     1      26.018   9.115  49.765  1.00  0.00     0.205 C 
HETATM   18  C21 UNL     1      27.113   8.239  49.082  1.00  0.00     0.160 C 
HETATM   19  S1  UNL     1      24.617   7.954  50.072  1.00  0.00    -0.100 SA
HETATM   20  H5  UNL     1      22.663   5.931  50.142  1.00  0.00     0.166 HD
ENDROOT
BRANCH   5  21
HETATM   21  N2  UNL     1      23.034   3.452  50.550  1.00  0.00    -0.353 N 
HETATM   22  H6  UNL     1      22.484   4.223  51.020  1.00  0.00     0.166 HD
BRANCH  21  23
HETATM   23  C5  UNL     1      22.607   2.080  50.638  1.00  0.00     0.090 C 
HETATM   24  C6  UNL     1      22.883   1.393  51.774  1.00  0.00     0.020 C 
BRANCH  24  25
HETATM   25  C7  UNL     1      23.582   2.249  52.691  1.00  0.00     0.039 C 
HETATM   26  C8  UNL     1      24.736   1.763  53.116  1.00  0.00     0.097 C 
HETATM   27  F1  UNL     1      25.584   2.387  53.989  1.00  0.00    -0.210 F 
BRANCH  26  28
HETATM   28  C9  UNL     1      25.333   0.447  52.718  1.00  0.00     0.040 C 
HETATM   29  C10 UNL     1      25.424  -0.453  53.928  1.00  0.00     0.017 C 
HETATM   30  C11 UNL     1      26.625   0.595  51.975  1.00  0.00     0.017 C 
ENDBRANCH  26  28
ENDBRANCH  24  25
ENDBRANCH  21  23
ENDBRANCH   5  21
TORSDOF 4
ENDMDL
MODEL 6
REMARK VINA RESULT:      -7.8      1.702      2.035
REMARK  4 active torsions:
REMARK  status: ('A' for Active; 'I' for Inactive)
REMARK    1  A    between atoms: C4_5  and  N2_6 
REMARK    2  A    between atoms: N2_6  and  C5_7 
REMARK    3  A    between atoms: C6_8  and  C7_9 
REMARK    4  A    between atoms: C8_10  and  C9_12 
ROOT
HETATM    1  C1  UNL     1      22.011   4.077  52.283  1.00  0.00     0.057 C 
HETATM    2  C2  UNL     1      22.664   3.657  50.993  1.00  0.00    -0.008 C 
HETATM    3  C3  UNL     1      23.733   4.422  50.890  1.00  0.00     0.103 C 
HETATM    4  N1  UNL     1      24.576   4.278  49.787  1.00  0.00    -0.352 N 
HETATM    5  C4  UNL     1      25.892   3.804  50.033  1.00  0.00     0.101 C 
HETATM    6  C12 UNL     1      26.557   2.932  50.773  1.00  0.00     0.030 C 
HETATM    7  C13 UNL     1      25.671   2.135  51.693  1.00  0.00     0.054 C 
HETATM    8  C14 UNL     1      25.959   1.154  52.603  1.00  0.00     0.159 C 
HETATM    9  O1  UNL     1      24.727   0.790  53.154  1.00  0.00    -0.383 OA
HETATM   10  C15 UNL     1      24.561  -0.409  53.830  1.00  0.00     0.170 C 
HETATM   11  C16 UNL     1      23.242  -0.829  54.323  1.00  0.00     0.046 C 
HETATM   12  C17 UNL     1      22.160  -1.166  53.393  1.00  0.00     0.119 C 
HETATM   13  N3  UNL     1      21.562  -0.228  52.548  1.00  0.00    -0.407 N 
HETATM   14  C18 UNL     1      20.222   0.159  52.829  1.00  0.00     0.143 C 
HETATM   15  C19 UNL     1      19.516   0.539  51.557  1.00  0.00     0.189 C 
HETATM   16  O2  UNL     1      20.218   1.533  50.907  1.00  0.00    -0.372 OA
HETATM   17  C20 UNL     1      21.424   1.029  50.491  1.00  0.00     0.205 C 
HETATM   18  C21 UNL     1      22.302   0.579  51.700  1.00  0.00     0.160 C 
HETATM   19  S1  UNL     1      22.380   2.400  49.707  1.00  0.00    -0.100 SA
HETATM   20  H5  UNL     1      24.025   4.562  48.974  1.00  0.00     0.166 HD
ENDROOT
BRANCH   5  21
HETATM   21  N2  UNL     1      26.560   4.663  49.073  1.00  0.00    -0.353 N 
HETATM   22  H6  UNL     1      25.758   5.248  48.710  1.00  0.00     0.166 HD
BRANCH  21  23
HETATM   23  C5  UNL     1      27.900   4.862  48.587  1.00  0.00     0.090 C 
HETATM   24  C6  UNL     1      28.247   6.097  48.145  1.00  0.00     0.020 C 
BRANCH  24  25
HETATM   25  C7  UNL     1      27.124   6.982  48.275  1.00  0.00     0.039 C 
HETATM   26  C8  UNL     1      27.151   8.018  47.454  1.00  0.00     0.097 C 
HETATM   27  F1  UNL     1      26.199   8.998  47.384  1.00  0.00    -0.210 F 
BRANCH  26  28
HETATM   28  C9  UNL     1      28.221   8.310  46.446  1.00  0.00     0.040 C 
HETATM   29  C10 UNL     1      29.016   9.516  46.886  1.00  0.00     0.017 C 
HETATM   30  C11 UNL     1      27.691   8.413  45.048  1.00  0.00     0.017 C 
ENDBRANCH  26  28
ENDBRANCH  24  25
ENDBRANCH  21  23
ENDBRANCH   5  21
TORSDOF 4
ENDMDL
MODEL 7
REMARK VINA RESULT:      -7.6      3.945      9.183
REMARK  4 active torsions:
REMARK  status: ('A' for Active; 'I' for Inactive)
REMARK    1  A    between atoms: C4_5  and  N2_6 
REMARK    2  A    between atoms: N2_6  and  C5_7 
REMARK    3  A    between atoms: C6_8  and  C7_9 
REMARK    4  A    between atoms: C8_10  and  C9_12 
ROOT
HETATM    1  C1  UNL     1      24.050   7.386  47.209  1.00  0.00     0.057 C 
HETATM    2  C2  UNL     1      23.968   7.041  48.672  1.00  0.00    -0.008 C 
HETATM    3  C3  UNL     1      23.405   5.849  48.707  1.00  0.00     0.103 C 
HETATM    4  N1  UNL     1      23.189   5.228  49.938  1.00  0.00    -0.352 N 
HETATM    5  C4  UNL     1      23.916   4.038  50.203  1.00  0.00     0.101 C 
HETATM    6  C12 UNL     1      25.112   3.496  50.036  1.00  0.00     0.030 C 
HETATM    7  C13 UNL     1      26.081   4.403  49.326  1.00  0.00     0.054 C 
HETATM    8  C14 UNL     1      27.389   4.225  48.964  1.00  0.00     0.159 C 
HETATM    9  O1  UNL     1      27.763   5.416  48.336  1.00  0.00    -0.383 OA
HETATM   10  C15 UNL     1      29.095   5.758  48.165  1.00  0.00     0.170 C 
HETATM   11  C16 UNL     1      29.480   7.055  47.590  1.00  0.00     0.046 C 
HETATM   12  C17 UNL     1      29.217   8.307  48.307  1.00  0.00     0.119 C 
HETATM   13  N3  UNL     1      27.928   8.784  48.557  1.00  0.00    -0.407 N 
HETATM   14  C18 UNL     1      27.500   9.943  47.851  1.00  0.00     0.143 C 
HETATM   15  C19 UNL     1      26.508  10.715  48.676  1.00  0.00     0.189 C 
HETATM   16  O2  UNL     1      25.450   9.901  49.025  1.00  0.00    -0.372 OA
HETATM   17  C20 UNL     1      25.904   8.917  49.867  1.00  0.00     0.205 C 
HETATM   18  C21 UNL     1      26.957   8.005  49.165  1.00  0.00     0.160 C 
HETATM   19  S1  UNL     1      24.492   7.790  50.246  1.00  0.00    -0.100 SA
HETATM   20  H5  UNL     1      22.503   5.808  50.427  1.00  0.00     0.166 HD
ENDROOT
BRANCH   5  21
HETATM   21  N2  UNL     1      22.841   3.331  50.874  1.00  0.00    -0.353 N 
HETATM   22  H6  UNL     1      22.923   3.697  51.862  1.00  0.00     0.166 HD
BRANCH  21  23
HETATM   23  C5  UNL     1      21.823   2.376  50.522  1.00  0.00     0.090 C 
HETATM   24  C6  UNL     1      21.880   1.141  51.079  1.00  0.00     0.020 C 
BRANCH  24  25
HETATM   25  C7  UNL     1      23.018   1.065  51.952  1.00  0.00     0.039 C 
HETATM   26  C8  UNL     1      22.822   0.335  53.037  1.00  0.00     0.097 C 
HETATM   27  F1  UNL     1      23.748   0.110  54.018  1.00  0.00    -0.210 F 
BRANCH  26  28
HETATM   28  C9  UNL     1      21.556  -0.385  53.393  1.00  0.00     0.040 C 
HETATM   29  C10 UNL     1      20.675   0.520  54.220  1.00  0.00     0.017 C 
HETATM   30  C11 UNL     1      21.804  -1.724  54.017  1.00  0.00     0.017 C 
ENDBRANCH  26  28
ENDBRANCH  24  25
ENDBRANCH  21  23
ENDBRANCH   5  21
TORSDOF 4
ENDMDL
MODEL 8
REMARK VINA RESULT:      -7.5      5.009      9.803
REMARK  4 active torsions:
REMARK  status: ('A' for Active; 'I' for Inactive)
REMARK    1  A    between atoms: C4_5  and  N2_6 
REMARK    2  A    between atoms: N2_6  and  C5_7 
REMARK    3  A    between atoms: C6_8  and  C7_9 
REMARK    4  A    between atoms: C8_10  and  C9_12 
ROOT
HETATM    1  C1  UNL     1      22.725   2.516  48.212  1.00  0.00     0.057 C 
HETATM    2  C2  UNL     1      22.085   3.396  49.253  1.00  0.00    -0.008 C 
HETATM    3  C3  UNL     1      20.896   2.866  49.459  1.00  0.00     0.103 C 
HETATM    4  N1  UNL     1      20.036   3.450  50.391  1.00  0.00    -0.352 N 
HETATM    5  C4  UNL     1      19.718   2.690  51.548  1.00  0.00     0.101 C 
HETATM    6  C12 UNL     1      20.264   1.868  52.429  1.00  0.00     0.030 C 
HETATM    7  C13 UNL     1      21.725   1.607  52.172  1.00  0.00     0.054 C 
HETATM    8  C14 UNL     1      22.636   0.831  52.836  1.00  0.00     0.159 C 
HETATM    9  O1  UNL     1      23.834   0.986  52.132  1.00  0.00    -0.383 OA
HETATM   10  C15 UNL     1      25.056   0.659  52.699  1.00  0.00     0.170 C 
HETATM   11  C16 UNL     1      26.317   0.915  51.991  1.00  0.00     0.046 C 
HETATM   12  C17 UNL     1      26.770   2.285  51.724  1.00  0.00     0.119 C 
HETATM   13  N3  UNL     1      26.094   3.157  50.867  1.00  0.00    -0.407 N 
HETATM   14  C18 UNL     1      26.714   3.483  49.628  1.00  0.00     0.143 C 
HETATM   15  C19 UNL     1      26.304   4.862  49.192  1.00  0.00     0.189 C 
HETATM   16  O2  UNL     1      24.929   4.945  49.122  1.00  0.00    -0.372 OA
HETATM   17  C20 UNL     1      24.408   4.816  50.385  1.00  0.00     0.205 C 
HETATM   18  C21 UNL     1      24.741   3.422  51.000  1.00  0.00     0.160 C 
HETATM   19  S1  UNL     1      22.567   4.839  50.253  1.00  0.00    -0.100 SA
HETATM   20  H5  UNL     1      19.803   4.372  50.017  1.00  0.00     0.166 HD
ENDROOT
BRANCH   5  21
HETATM   21  N2  UNL     1      18.322   3.079  51.624  1.00  0.00    -0.353 N 
HETATM   22  H6  UNL     1      17.898   2.265  52.148  1.00  0.00     0.166 HD
BRANCH  21  23
HETATM   23  C5  UNL     1      17.510   4.189  51.200  1.00  0.00     0.090 C 
HETATM   24  C6  UNL     1      16.188   4.173  51.505  1.00  0.00     0.020 C 
BRANCH  24  25
HETATM   25  C7  UNL     1      15.883   2.972  52.232  1.00  0.00     0.039 C 
HETATM   26  C8  UNL     1      14.655   2.931  52.721  1.00  0.00     0.097 C 
HETATM   27  F1  UNL     1      14.126   1.899  53.446  1.00  0.00    -0.210 F 
BRANCH  26  28
HETATM   28  C9  UNL     1      13.615   3.999  52.569  1.00  0.00     0.040 C 
HETATM   29  C10 UNL     1      13.082   4.384  53.929  1.00  0.00     0.017 C 
HETATM   30  C11 UNL     1      12.547   3.636  51.582  1.00  0.00     0.017 C 
ENDBRANCH  26  28
ENDBRANCH  24  25
ENDBRANCH  21  23
ENDBRANCH   5  21
TORSDOF 4
ENDMDL
MODEL 9
REMARK VINA RESULT:      -7.4      4.774      6.953
REMARK  4 active torsions:
REMARK  status: ('A' for Active; 'I' for Inactive)
REMARK    1  A    between atoms: C4_5  and  N2_6 
REMARK    2  A    between atoms: N2_6  and  C5_7 
REMARK    3  A    between atoms: C6_8  and  C7_9 
REMARK    4  A    between atoms: C8_10  and  C9_12 
ROOT
HETATM    1  C1  UNL     1      27.057   9.187  50.117  1.00  0.00     0.057 C 
HETATM    2  C2  UNL     1      27.591   8.865  48.747  1.00  0.00    -0.008 C 
HETATM    3  C3  UNL     1      28.831   8.467  48.952  1.00  0.00     0.103 C 
HETATM    4  N1  UNL     1      29.617   8.081  47.864  1.00  0.00    -0.352 N 
HETATM    5  C4  UNL     1      30.012   6.719  47.799  1.00  0.00     0.101 C 
HETATM    6  C12 UNL     1      29.556   5.497  48.022  1.00  0.00     0.030 C 
HETATM    7  C13 UNL     1      28.135   5.474  48.518  1.00  0.00     0.054 C 
HETATM    8  C14 UNL     1      27.312   4.435  48.861  1.00  0.00     0.159 C 
HETATM    9  O1  UNL     1      26.108   5.030  49.246  1.00  0.00    -0.383 OA
HETATM   10  C15 UNL     1      24.928   4.306  49.305  1.00  0.00     0.170 C 
HETATM   11  C16 UNL     1      23.649   4.959  49.617  1.00  0.00     0.046 C 
HETATM   12  C17 UNL     1      23.048   5.925  48.691  1.00  0.00     0.119 C 
HETATM   13  N3  UNL     1      23.626   7.164  48.402  1.00  0.00    -0.407 N 
HETATM   14  C18 UNL     1      22.980   8.331  48.896  1.00  0.00     0.143 C 
HETATM   15  C19 UNL     1      23.236   9.493  47.978  1.00  0.00     0.189 C 
HETATM   16  O2  UNL     1      24.594   9.679  47.821  1.00  0.00    -0.372 OA
HETATM   17  C20 UNL     1      25.120   8.598  47.160  1.00  0.00     0.205 C 
HETATM   18  C21 UNL     1      24.941   7.284  47.982  1.00  0.00     0.160 C 
HETATM   19  S1  UNL     1      26.948   8.829  47.044  1.00  0.00    -0.100 SA
HETATM   20  H5  UNL     1      29.748   8.924  47.301  1.00  0.00     0.166 HD
ENDROOT
BRANCH   5  21
HETATM   21  N2  UNL     1      31.356   6.959  47.307  1.00  0.00    -0.353 N 
HETATM   22  H6  UNL     1      31.177   7.193  46.292  1.00  0.00     0.166 HD
BRANCH  21  23
HETATM   23  C5  UNL     1      32.693   6.953  47.841  1.00  0.00     0.090 C 
HETATM   24  C6  UNL     1      33.701   6.519  47.044  1.00  0.00     0.020 C 
BRANCH  24  25
HETATM   25  C7  UNL     1      33.169   6.142  45.765  1.00  0.00     0.039 C 
HETATM   26  C8  UNL     1      33.251   4.849  45.502  1.00  0.00     0.097 C 
HETATM   27  F1  UNL     1      32.814   4.245  44.356  1.00  0.00    -0.210 F 
BRANCH  26  28
HETATM   28  C9  UNL     1      33.829   3.805  46.409  1.00  0.00     0.040 C 
HETATM   29  C10 UNL     1      35.123   3.288  45.825  1.00  0.00     0.017 C 
HETATM   30  C11 UNL     1      32.848   2.727  46.756  1.00  0.00     0.017 C 
ENDBRANCH  26  28
ENDBRANCH  24  25
ENDBRANCH  21  23
ENDBRANCH   5  21
TORSDOF 4
ENDMDL
