MODEL 1
REMARK VINA RESULT:      -8.3      0.000      0.000
REMARK  6 active torsions:
REMARK  status: ('A' for Active; 'I' for Inactive)
REMARK    1  A    between atoms: O1_1  and  N1_2 
REMARK    2  A    between atoms: N1_2  and  C1_3 
REMARK    3  A    between atoms: N4_7  and  C3_8 
REMARK    4  A    between atoms: C4_9  and  C5_10 
REMARK    5  A    between atoms: C12_17  and  C13_18 
REMARK    6  A    between atoms: C13_18  and  N5_19 
ROOT
HETATM    1  C1  UNL     1      27.473  -1.734  53.105  1.00  0.00     0.167 C 
HETATM    2  N2  UNL     1      28.553  -1.025  53.337  1.00  0.00    -0.158 NA
HETATM    3  N3  UNL     1      28.653   0.387  53.434  1.00  0.00    -0.294 N 
HETATM    4  C2  UNL     1      28.125   1.512  52.675  1.00  0.00     0.266 C 
HETATM    5  N4  UNL     1      26.709   1.732  52.875  1.00  0.00    -0.364 N 
HETATM    6  C10 UNL     1      25.699   1.015  53.632  1.00  0.00     0.116 A 
HETATM    7  C11 UNL     1      24.266   1.425  53.369  1.00  0.00     0.040 A 
HETATM    8  C12 UNL     1      23.988   0.052  52.942  1.00  0.00     0.047 A 
HETATM    9  C17 UNL     1      25.426  -0.343  53.120  1.00  0.00    -0.048 A 
HETATM   10  C18 UNL     1      26.029  -1.508  52.866  1.00  0.00     0.059 C 
HETATM   11  H3  UNL     1      29.243   0.764  54.238  1.00  0.00     0.184 HD
ENDROOT
BRANCH   5  12
HETATM   12  C3  UNL     1      26.590   2.921  52.055  1.00  0.00     0.088 C 
HETATM   13  C4  UNL     1      26.532   2.812  50.717  1.00  0.00     0.024 C 
BRANCH  13  14
HETATM   14  C5  UNL     1      26.412   4.003  49.881  1.00  0.00    -0.053 A 
HETATM   15  C6  UNL     1      25.330   4.765  49.885  1.00  0.00     0.007 A 
HETATM   16  C7  UNL     1      25.484   5.886  48.955  1.00  0.00    -0.003 A 
HETATM   17  C8  UNL     1      26.690   5.761  48.402  1.00  0.00    -0.022 A 
HETATM   18  C9  UNL     1      27.396   4.545  48.943  1.00  0.00     0.065 A 
ENDBRANCH  13  14
ENDBRANCH   5  12
BRANCH   8  19
HETATM   19  C13 UNL     1      23.130  -0.781  53.832  1.00  0.00     0.281 C 
BRANCH  19  20
HETATM   20  N5  UNL     1      21.896  -1.134  53.203  1.00  0.00     0.089 N 
HETATM   21  C14 UNL     1      20.845  -1.482  54.175  1.00  0.00     0.274 C 
HETATM   22  C15 UNL     1      19.918  -0.573  53.417  1.00  0.00     0.060 C 
HETATM   23  C16 UNL     1      21.135  -0.004  52.680  1.00  0.00     0.274 C 
ENDBRANCH  19  20
ENDBRANCH   8  19
BRANCH   1  24
HETATM   24  N1  UNL     1      27.770  -3.139  53.077  1.00  0.00    -0.250 N 
HETATM   25  H2  UNL     1      27.008  -3.761  52.725  1.00  0.00     0.196 HD
BRANCH  24  26
HETATM   26  O1  UNL     1      29.014  -3.524  53.509  1.00  0.00    -0.288 OA
HETATM   27  H1  UNL     1      29.592  -2.724  53.658  1.00  0.00     0.244 HD
ENDBRANCH  24  26
ENDBRANCH   1  24
TORSDOF 6
ENDMDL
MODEL 2
REMARK VINA RESULT:      -8.0      2.088      6.478
REMARK  6 active torsions:
REMARK  status: ('A' for Active; 'I' for Inactive)
REMARK    1  A    between atoms: O1_1  and  N1_2 
REMARK    2  A    between atoms: N1_2  and  C1_3 
REMARK    3  A    between atoms: N4_7  and  C3_8 
REMARK    4  A    between atoms: C4_9  and  C5_10 
REMARK    5  A    between atoms: C12_17  and  C13_18 
REMARK    6  A    between atoms: C13_18  and  N5_19 
ROOT
HETATM    1  C1  UNL     1      27.708   0.981  54.428  1.00  0.00     0.167 C 
HETATM    2  N2  UNL     1      27.333  -0.197  54.871  1.00  0.00    -0.158 NA
HETATM    3  N3  UNL     1      26.165  -0.919  54.517  1.00  0.00    -0.294 N 
HETATM    4  C2  UNL     1      24.759  -0.582  54.340  1.00  0.00     0.266 C 
HETATM    5  N4  UNL     1      24.493   0.178  53.138  1.00  0.00    -0.364 N 
HETATM    6  C10 UNL     1      25.357   0.724  52.107  1.00  0.00     0.116 A 
HETATM    7  C11 UNL     1      24.702   1.689  51.143  1.00  0.00     0.040 A 
HETATM    8  C12 UNL     1      25.656   2.713  51.573  1.00  0.00     0.047 A 
HETATM    9  C17 UNL     1      26.259   1.788  52.591  1.00  0.00    -0.048 A 
HETATM   10  C18 UNL     1      27.222   2.017  53.488  1.00  0.00     0.059 C 
HETATM   11  H3  UNL     1      26.294  -1.959  54.323  1.00  0.00     0.184 HD
ENDROOT
BRANCH   5  12
HETATM   12  C3  UNL     1      23.052   0.243  53.277  1.00  0.00     0.088 C 
HETATM   13  C4  UNL     1      22.271  -0.597  52.576  1.00  0.00     0.024 C 
BRANCH  13  14
HETATM   14  C5  UNL     1      20.818  -0.541  52.708  1.00  0.00    -0.053 A 
HETATM   15  C6  UNL     1      20.059   0.172  51.891  1.00  0.00     0.007 A 
HETATM   16  C7  UNL     1      18.646   0.044  52.255  1.00  0.00    -0.003 A 
HETATM   17  C8  UNL     1      18.595  -0.764  53.312  1.00  0.00    -0.022 A 
HETATM   18  C9  UNL     1      19.979  -1.215  53.701  1.00  0.00     0.065 A 
ENDBRANCH  13  14
ENDBRANCH   5  12
BRANCH   8  19
HETATM   19  C13 UNL     1      26.704   3.126  50.595  1.00  0.00     0.281 C 
BRANCH  19  20
HETATM   20  N5  UNL     1      26.169   3.956  49.562  1.00  0.00     0.089 N 
HETATM   21  C14 UNL     1      25.507   5.161  50.092  1.00  0.00     0.274 C 
HETATM   22  C15 UNL     1      26.277   5.964  49.081  1.00  0.00     0.060 C 
HETATM   23  C16 UNL     1      27.163   4.738  48.835  1.00  0.00     0.274 C 
ENDBRANCH  19  20
ENDBRANCH   8  19
BRANCH   1  24
HETATM   24  N1  UNL     1      28.951   1.387  55.021  1.00  0.00    -0.250 N 
HETATM   25  H2  UNL     1      29.290   0.804  55.818  1.00  0.00     0.196 HD
BRANCH  24  26
HETATM   26  O1  UNL     1      29.568   2.491  54.488  1.00  0.00    -0.288 OA
HETATM   27  H1  UNL     1      29.492   2.483  53.493  1.00  0.00     0.244 HD
ENDBRANCH  24  26
ENDBRANCH   1  24
TORSDOF 6
ENDMDL
MODEL 3
REMARK VINA RESULT:      -7.8      3.799      6.536
REMARK  6 active torsions:
REMARK  status: ('A' for Active; 'I' for Inactive)
REMARK    1  A    between atoms: O1_1  and  N1_2 
REMARK    2  A    between atoms: N1_2  and  C1_3 
REMARK    3  A    between atoms: N4_7  and  C3_8 
REMARK    4  A    between atoms: C4_9  and  C5_10 
REMARK    5  A    between atoms: C12_17  and  C13_18 
REMARK    6  A    between atoms: C13_18  and  N5_19 
ROOT
HETATM    1  C1  UNL     1      20.321  -0.306  53.093  1.00  0.00     0.167 C 
HETATM    2  N2  UNL     1      20.696  -0.732  54.277  1.00  0.00    -0.158 NA
HETATM    3  N3  UNL     1      21.989  -0.648  54.852  1.00  0.00    -0.294 N 
HETATM    4  C2  UNL     1      23.346  -0.890  54.379  1.00  0.00     0.266 C 
HETATM    5  N4  UNL     1      23.831   0.125  53.470  1.00  0.00    -0.364 N 
HETATM    6  C10 UNL     1      23.211   1.302  52.886  1.00  0.00     0.116 A 
HETATM    7  C11 UNL     1      23.984   1.965  51.767  1.00  0.00     0.040 A 
HETATM    8  C12 UNL     1      22.842   1.725  50.883  1.00  0.00     0.047 A 
HETATM    9  C17 UNL     1      22.101   0.992  51.964  1.00  0.00    -0.048 A 
HETATM   10  C18 UNL     1      20.917   0.375  51.920  1.00  0.00     0.059 C 
HETATM   11  H3  UNL     1      22.033  -0.338  55.871  1.00  0.00     0.184 HD
ENDROOT
BRANCH   5  12
HETATM   12  C3  UNL     1      25.168  -0.406  53.298  1.00  0.00     0.088 C 
HETATM   13  C4  UNL     1      26.203   0.160  53.943  1.00  0.00     0.024 C 
BRANCH  13  14
HETATM   14  C5  UNL     1      27.555  -0.366  53.778  1.00  0.00    -0.053 A 
HETATM   15  C6  UNL     1      27.807  -1.474  53.099  1.00  0.00     0.007 A 
HETATM   16  C7  UNL     1      29.243  -1.764  53.097  1.00  0.00    -0.003 A 
HETATM   17  C8  UNL     1      29.830  -0.793  53.795  1.00  0.00    -0.022 A 
HETATM   18  C9  UNL     1      28.806   0.192  54.296  1.00  0.00     0.065 A 
ENDBRANCH  13  14
ENDBRANCH   5  12
BRANCH   8  19
HETATM   19  C13 UNL     1      22.048   2.912  50.453  1.00  0.00     0.281 C 
BRANCH  19  20
HETATM   20  N5  UNL     1      22.410   3.347  49.141  1.00  0.00     0.089 N 
HETATM   21  C14 UNL     1      22.572   2.226  48.199  1.00  0.00     0.274 C 
HETATM   22  C15 UNL     1      21.717   2.990  47.226  1.00  0.00     0.060 C 
HETATM   23  C16 UNL     1      21.315   3.927  48.370  1.00  0.00     0.274 C 
ENDBRANCH  19  20
ENDBRANCH   8  19
BRANCH   1  24
HETATM   24  N1  UNL     1      18.928  -0.570  52.863  1.00  0.00    -0.250 N 
HETATM   25  H2  UNL     1      18.576  -0.366  51.901  1.00  0.00     0.196 HD
BRANCH  24  26
HETATM   26  O1  UNL     1      18.202  -1.062  53.918  1.00  0.00    -0.288 OA
HETATM   27  H1  UNL     1      18.703  -1.797  54.371  1.00  0.00     0.244 HD
ENDBRANCH  24  26
ENDBRANCH   1  24
TORSDOF 6
ENDMDL
MODEL 4
REMARK VINA RESULT:      -7.8      2.338      5.157
REMARK  6 active torsions:
REMARK  status: ('A' for Active; 'I' for Inactive)
REMARK    1  A    between atoms: O1_1  and  N1_2 
REMARK    2  A    between atoms: N1_2  and  C1_3 
REMARK    3  A    between atoms: N4_7  and  C3_8 
REMARK    4  A    between atoms: C4_9  and  C5_10 
REMARK    5  A    between atoms: C12_17  and  C13_18 
REMARK    6  A    between atoms: C13_18  and  N5_19 
ROOT
HETATM    1  C1  UNL     1      22.675  -0.486  53.940  1.00  0.00     0.167 C 
HETATM    2  N2  UNL     1      21.625   0.023  53.337  1.00  0.00    -0.158 NA
HETATM    3  N3  UNL     1      21.604   1.080  52.391  1.00  0.00    -0.294 N 
HETATM    4  C2  UNL     1      22.246   2.383  52.287  1.00  0.00     0.266 C 
HETATM    5  N4  UNL     1      23.656   2.309  51.972  1.00  0.00    -0.364 N 
HETATM    6  C10 UNL     1      24.570   1.193  51.802  1.00  0.00     0.116 A 
HETATM    7  C11 UNL     1      26.038   1.551  51.734  1.00  0.00     0.040 A 
HETATM    8  C12 UNL     1      26.263   0.711  52.912  1.00  0.00     0.047 A 
HETATM    9  C17 UNL     1      24.796   0.418  53.038  1.00  0.00    -0.048 A 
HETATM   10  C18 UNL     1      24.142  -0.288  53.966  1.00  0.00     0.059 C 
HETATM   11  H3  UNL     1      20.985   0.934  51.535  1.00  0.00     0.184 HD
ENDROOT
BRANCH   5  12
HETATM   12  C3  UNL     1      23.900   3.734  51.882  1.00  0.00     0.088 C 
HETATM   13  C4  UNL     1      24.038   4.317  50.679  1.00  0.00     0.024 C 
BRANCH  13  14
HETATM   14  C5  UNL     1      24.283   5.753  50.575  1.00  0.00    -0.053 A 
HETATM   15  C6  UNL     1      25.432   6.247  50.141  1.00  0.00     0.007 A 
HETATM   16  C7  UNL     1      25.398   7.711  50.141  1.00  0.00    -0.003 A 
HETATM   17  C8  UNL     1      24.195   8.066  50.590  1.00  0.00    -0.022 A 
HETATM   18  C9  UNL     1      23.369   6.847  50.909  1.00  0.00     0.065 A 
ENDBRANCH  13  14
ENDBRANCH   5  12
BRANCH   8  19
HETATM   19  C13 UNL     1      27.009  -0.564  52.712  1.00  0.00     0.281 C 
BRANCH  19  20
HETATM   20  N5  UNL     1      28.063  -0.718  53.665  1.00  0.00     0.089 N 
HETATM   21  C14 UNL     1      29.079  -1.693  53.231  1.00  0.00     0.274 C 
HETATM   22  C15 UNL     1      30.129  -0.681  53.598  1.00  0.00     0.060 C 
HETATM   23  C16 UNL     1      29.025   0.378  53.691  1.00  0.00     0.274 C 
ENDBRANCH  19  20
ENDBRANCH   8  19
BRANCH   1  24
HETATM   24  N1  UNL     1      22.297  -1.546  54.833  1.00  0.00    -0.250 N 
HETATM   25  H2  UNL     1      21.412  -2.047  54.599  1.00  0.00     0.196 HD
BRANCH  24  26
HETATM   26  O1  UNL     1      23.128  -1.794  55.896  1.00  0.00    -0.288 OA
HETATM   27  H1  UNL     1      22.630  -1.694  56.756  1.00  0.00     0.244 HD
ENDBRANCH  24  26
ENDBRANCH   1  24
TORSDOF 6
ENDMDL
MODEL 5
REMARK VINA RESULT:      -7.7      3.245      6.940
REMARK  6 active torsions:
REMARK  status: ('A' for Active; 'I' for Inactive)
REMARK    1  A    between atoms: O1_1  and  N1_2 
REMARK    2  A    between atoms: N1_2  and  C1_3 
REMARK    3  A    between atoms: N4_7  and  C3_8 
REMARK    4  A    between atoms: C4_9  and  C5_10 
REMARK    5  A    between atoms: C12_17  and  C13_18 
REMARK    6  A    between atoms: C13_18  and  N5_19 
ROOT
HETATM    1  C1  UNL     1      21.153   0.922  50.936  1.00  0.00     0.167 C 
HETATM    2  N2  UNL     1      20.866   0.003  51.829  1.00  0.00    -0.158 NA
HETATM    3  N3  UNL     1      21.641  -0.378  52.954  1.00  0.00    -0.294 N 
HETATM    4  C2  UNL     1      23.053  -0.646  53.190  1.00  0.00     0.266 C 
HETATM    5  N4  UNL     1      23.876   0.543  53.192  1.00  0.00    -0.364 N 
HETATM    6  C10 UNL     1      23.583   1.944  52.944  1.00  0.00     0.116 A 
HETATM    7  C11 UNL     1      24.786   2.848  52.787  1.00  0.00     0.040 A 
HETATM    8  C12 UNL     1      24.314   3.184  51.442  1.00  0.00     0.047 A 
HETATM    9  C17 UNL     1      23.164   2.226  51.557  1.00  0.00    -0.048 A 
HETATM   10  C18 UNL     1      22.234   1.895  50.656  1.00  0.00     0.059 C 
HETATM   11  H3  UNL     1      21.111  -0.510  53.869  1.00  0.00     0.184 HD
ENDROOT
BRANCH   5  12
HETATM   12  C3  UNL     1      25.132  -0.102  53.519  1.00  0.00     0.088 C 
HETATM   13  C4  UNL     1      26.024  -0.367  52.549  1.00  0.00     0.024 C 
BRANCH  13  14
HETATM   14  C5  UNL     1      27.293  -1.016  52.867  1.00  0.00    -0.053 A 
HETATM   15  C6  UNL     1      28.327  -0.351  53.354  1.00  0.00     0.007 A 
HETATM   16  C7  UNL     1      29.462  -1.250  53.578  1.00  0.00    -0.003 A 
HETATM   17  C8  UNL     1      29.064  -2.467  53.206  1.00  0.00    -0.022 A 
HETATM   18  C9  UNL     1      27.640  -2.431  52.717  1.00  0.00     0.065 A 
ENDBRANCH  13  14
ENDBRANCH   5  12
BRANCH   8  19
HETATM   19  C13 UNL     1      23.791   4.564  51.224  1.00  0.00     0.281 C 
BRANCH  19  20
HETATM   20  N5  UNL     1      24.268   5.126  50.000  1.00  0.00     0.089 N 
HETATM   21  C14 UNL     1      25.300   6.155  50.216  1.00  0.00     0.274 C 
HETATM   22  C15 UNL     1      26.126   5.472  49.162  1.00  0.00     0.060 C 
HETATM   23  C16 UNL     1      25.182   4.268  49.253  1.00  0.00     0.274 C 
ENDBRANCH  19  20
ENDBRANCH   8  19
BRANCH   1  24
HETATM   24  N1  UNL     1      20.122   1.020  49.941  1.00  0.00    -0.250 N 
HETATM   25  H2  UNL     1      19.149   0.837  50.272  1.00  0.00     0.196 HD
BRANCH  24  26
HETATM   26  O1  UNL     1      20.512   1.340  48.666  1.00  0.00    -0.288 OA
HETATM   27  H1  UNL     1      20.825   0.524  48.183  1.00  0.00     0.244 HD
ENDBRANCH  24  26
ENDBRANCH   1  24
TORSDOF 6
ENDMDL
MODEL 6
REMARK VINA RESULT:      -7.6      3.073      7.063
REMARK  6 active torsions:
REMARK  status: ('A' for Active; 'I' for Inactive)
REMARK    1  A    between atoms: O1_1  and  N1_2 
REMARK    2  A    between atoms: N1_2  and  C1_3 
REMARK    3  A    between atoms: N4_7  and  C3_8 
REMARK    4  A    between atoms: C4_9  and  C5_10 
REMARK    5  A    between atoms: C12_17  and  C13_18 
REMARK    6  A    between atoms: C13_18  and  N5_19 
ROOT
HETATM    1  C1  UNL     1      26.059   3.815  49.986  1.00  0.00     0.167 C 
HETATM    2  N2  UNL     1      24.968   4.503  49.741  1.00  0.00    -0.158 NA
HETATM    3  N3  UNL     1      23.683   4.310  50.307  1.00  0.00    -0.294 N 
HETATM    4  C2  UNL     1      22.843   3.153  50.588  1.00  0.00     0.266 C 
HETATM    5  N4  UNL     1      23.307   2.358  51.703  1.00  0.00    -0.364 N 
HETATM    6  C10 UNL     1      24.478   2.449  52.558  1.00  0.00     0.116 A 
HETATM    7  C11 UNL     1      24.732   1.256  53.453  1.00  0.00     0.040 A 
HETATM    8  C12 UNL     1      26.030   1.083  52.796  1.00  0.00     0.047 A 
HETATM    9  C17 UNL     1      25.750   2.213  51.847  1.00  0.00    -0.048 A 
HETATM   10  C18 UNL     1      26.484   2.675  50.831  1.00  0.00     0.059 C 
HETATM   11  H3  UNL     1      23.167   5.190  50.619  1.00  0.00     0.184 HD
ENDROOT
BRANCH   5  12
HETATM   12  C3  UNL     1      22.220   1.400  51.711  1.00  0.00     0.088 C 
HETATM   13  C4  UNL     1      21.233   1.511  52.617  1.00  0.00     0.024 C 
BRANCH  13  14
HETATM   14  C5  UNL     1      20.132   0.551  52.634  1.00  0.00    -0.053 A 
HETATM   15  C6  UNL     1      19.180   0.549  51.715  1.00  0.00     0.007 A 
HETATM   16  C7  UNL     1      18.211  -0.517  51.979  1.00  0.00    -0.003 A 
HETATM   17  C8  UNL     1      18.620  -1.142  53.083  1.00  0.00    -0.022 A 
HETATM   18  C9  UNL     1      19.888  -0.518  53.604  1.00  0.00     0.065 A 
ENDBRANCH  13  14
ENDBRANCH   5  12
BRANCH   8  19
HETATM   19  C13 UNL     1      27.249   1.395  53.595  1.00  0.00     0.281 C 
BRANCH  19  20
HETATM   20  N5  UNL     1      27.871   0.211  54.099  1.00  0.00     0.089 N 
HETATM   21  C14 UNL     1      27.934  -0.865  53.095  1.00  0.00     0.274 C 
HETATM   22  C15 UNL     1      29.382  -1.047  53.457  1.00  0.00     0.060 C 
HETATM   23  C16 UNL     1      29.325   0.288  54.207  1.00  0.00     0.274 C 
ENDBRANCH  19  20
ENDBRANCH   8  19
BRANCH   1  24
HETATM   24  N1  UNL     1      27.167   4.308  49.217  1.00  0.00    -0.250 N 
HETATM   25  H2  UNL     1      27.662   3.604  48.625  1.00  0.00     0.196 HD
BRANCH  24  26
HETATM   26  O1  UNL     1      27.466   5.642  49.332  1.00  0.00    -0.288 OA
HETATM   27  H1  UNL     1      28.439   5.795  49.170  1.00  0.00     0.244 HD
ENDBRANCH  24  26
ENDBRANCH   1  24
TORSDOF 6
ENDMDL
MODEL 7
REMARK VINA RESULT:      -7.4      2.693      6.959
REMARK  6 active torsions:
REMARK  status: ('A' for Active; 'I' for Inactive)
REMARK    1  A    between atoms: O1_1  and  N1_2 
REMARK    2  A    between atoms: N1_2  and  C1_3 
REMARK    3  A    between atoms: N4_7  and  C3_8 
REMARK    4  A    between atoms: C4_9  and  C5_10 
REMARK    5  A    between atoms: C12_17  and  C13_18 
REMARK    6  A    between atoms: C13_18  and  N5_19 
ROOT
HETATM    1  C1  UNL     1      26.052   1.273  53.854  1.00  0.00     0.167 C 
HETATM    2  N2  UNL     1      25.894  -0.030  53.797  1.00  0.00    -0.158 NA
HETATM    3  N3  UNL     1      24.783  -0.741  53.278  1.00  0.00    -0.294 N 
HETATM    4  C2  UNL     1      23.336  -0.610  53.381  1.00  0.00     0.266 C 
HETATM    5  N4  UNL     1      22.801   0.507  52.632  1.00  0.00    -0.364 N 
HETATM    6  C10 UNL     1      23.428   1.558  51.851  1.00  0.00     0.116 A 
HETATM    7  C11 UNL     1      22.522   2.698  51.437  1.00  0.00     0.040 A 
HETATM    8  C12 UNL     1      23.399   3.615  52.169  1.00  0.00     0.047 A 
HETATM    9  C17 UNL     1      24.255   2.480  52.653  1.00  0.00    -0.048 A 
HETATM   10  C18 UNL     1      25.308   2.496  53.476  1.00  0.00     0.059 C 
HETATM   11  H3  UNL     1      25.006  -1.579  52.659  1.00  0.00     0.184 HD
ENDROOT
BRANCH   5  12
HETATM   12  C3  UNL     1      21.400   0.261  52.911  1.00  0.00     0.088 C 
HETATM   13  C4  UNL     1      20.556  -0.029  51.906  1.00  0.00     0.024 C 
BRANCH  13  14
HETATM   14  C5  UNL     1      19.143  -0.278  52.175  1.00  0.00    -0.053 A 
HETATM   15  C6  UNL     1      18.177   0.268  51.453  1.00  0.00     0.007 A 
HETATM   16  C7  UNL     1      16.863  -0.155  51.944  1.00  0.00    -0.003 A 
HETATM   17  C8  UNL     1      17.084  -0.967  52.977  1.00  0.00    -0.022 A 
HETATM   18  C9  UNL     1      18.563  -1.122  53.221  1.00  0.00     0.065 A 
ENDBRANCH  13  14
ENDBRANCH   5  12
BRANCH   8  19
HETATM   19  C13 UNL     1      24.229   4.556  51.364  1.00  0.00     0.281 C 
BRANCH  19  20
HETATM   20  N5  UNL     1      23.881   5.919  51.616  1.00  0.00     0.089 N 
HETATM   21  C14 UNL     1      24.692   6.864  50.827  1.00  0.00     0.274 C 
HETATM   22  C15 UNL     1      23.414   7.561  50.449  1.00  0.00     0.060 C 
HETATM   23  C16 UNL     1      22.638   6.356  50.989  1.00  0.00     0.274 C 
ENDBRANCH  19  20
ENDBRANCH   8  19
BRANCH   1  24
HETATM   24  N1  UNL     1      27.312   1.618  54.451  1.00  0.00    -0.250 N 
HETATM   25  H2  UNL     1      27.728   0.902  55.087  1.00  0.00     0.196 HD
BRANCH  24  26
HETATM   26  O1  UNL     1      27.842   2.842  54.130  1.00  0.00    -0.288 OA
HETATM   27  H1  UNL     1      27.114   3.514  54.010  1.00  0.00     0.244 HD
ENDBRANCH  24  26
ENDBRANCH   1  24
TORSDOF 6
ENDMDL
MODEL 8
REMARK VINA RESULT:      -7.0      1.977      2.769
REMARK  6 active torsions:
REMARK  status: ('A' for Active; 'I' for Inactive)
REMARK    1  A    between atoms: O1_1  and  N1_2 
REMARK    2  A    between atoms: N1_2  and  C1_3 
REMARK    3  A    between atoms: N4_7  and  C3_8 
REMARK    4  A    between atoms: C4_9  and  C5_10 
REMARK    5  A    between atoms: C12_17  and  C13_18 
REMARK    6  A    between atoms: C13_18  and  N5_19 
ROOT
HETATM    1  C1  UNL     1      27.019   0.608  52.583  1.00  0.00     0.167 C 
HETATM    2  N2  UNL     1      27.752   1.668  52.327  1.00  0.00    -0.158 NA
HETATM    3  N3  UNL     1      27.319   2.901  51.777  1.00  0.00    -0.294 N 
HETATM    4  C2  UNL     1      26.443   3.291  50.681  1.00  0.00     0.266 C 
HETATM    5  N4  UNL     1      25.040   3.075  50.956  1.00  0.00    -0.364 N 
HETATM    6  C10 UNL     1      24.337   2.489  52.084  1.00  0.00     0.116 A 
HETATM    7  C11 UNL     1      22.865   2.210  51.868  1.00  0.00     0.040 A 
HETATM    8  C12 UNL     1      23.130   0.794  52.132  1.00  0.00     0.047 A 
HETATM    9  C17 UNL     1      24.604   1.048  52.266  1.00  0.00    -0.048 A 
HETATM   10  C18 UNL     1      25.604   0.186  52.470  1.00  0.00     0.059 C 
HETATM   11  H3  UNL     1      27.696   3.783  52.243  1.00  0.00     0.184 HD
ENDROOT
BRANCH   5  12
HETATM   12  C3  UNL     1      24.522   3.630  49.722  1.00  0.00     0.088 C 
HETATM   13  C4  UNL     1      24.052   4.889  49.697  1.00  0.00     0.024 C 
BRANCH  13  14
HETATM   14  C5  UNL     1      23.528   5.459  48.458  1.00  0.00    -0.053 A 
HETATM   15  C6  UNL     1      22.614   4.844  47.726  1.00  0.00     0.007 A 
HETATM   16  C7  UNL     1      22.275   5.642  46.545  1.00  0.00    -0.003 A 
HETATM   17  C8  UNL     1      23.018   6.746  46.603  1.00  0.00    -0.022 A 
HETATM   18  C9  UNL     1      23.889   6.733  47.833  1.00  0.00     0.065 A 
ENDBRANCH  13  14
ENDBRANCH   5  12
BRANCH   8  19
HETATM   19  C13 UNL     1      22.606   0.226  53.407  1.00  0.00     0.281 C 
BRANCH  19  20
HETATM   20  N5  UNL     1      21.618  -0.779  53.175  1.00  0.00     0.089 N 
HETATM   21  C14 UNL     1      21.143  -1.404  54.422  1.00  0.00     0.274 C 
HETATM   22  C15 UNL     1      19.738  -1.201  53.926  1.00  0.00     0.060 C 
HETATM   23  C16 UNL     1      20.292  -0.264  52.847  1.00  0.00     0.274 C 
ENDBRANCH  19  20
ENDBRANCH   8  19
BRANCH   1  24
HETATM   24  N1  UNL     1      27.815  -0.452  53.136  1.00  0.00    -0.250 N 
HETATM   25  H2  UNL     1      28.235  -1.115  52.447  1.00  0.00     0.196 HD
BRANCH  24  26
HETATM   26  O1  UNL     1      27.945  -0.489  54.501  1.00  0.00    -0.288 OA
HETATM   27  H1  UNL     1      27.901  -1.432  54.827  1.00  0.00     0.244 HD
ENDBRANCH  24  26
ENDBRANCH   1  24
TORSDOF 6
ENDMDL
MODEL 9
REMARK VINA RESULT:      -7.0      3.369      5.659
REMARK  6 active torsions:
REMARK  status: ('A' for Active; 'I' for Inactive)
REMARK    1  A    between atoms: O1_1  and  N1_2 
REMARK    2  A    between atoms: N1_2  and  C1_3 
REMARK    3  A    between atoms: N4_7  and  C3_8 
REMARK    4  A    between atoms: C4_9  and  C5_10 
REMARK    5  A    between atoms: C12_17  and  C13_18 
REMARK    6  A    between atoms: C13_18  and  N5_19 
ROOT
HETATM    1  C1  UNL     1      22.100   2.670  51.986  1.00  0.00     0.167 C 
HETATM    2  N2  UNL     1      21.703   3.350  50.934  1.00  0.00    -0.158 NA
HETATM    3  N3  UNL     1      22.511   3.880  49.896  1.00  0.00    -0.294 N 
HETATM    4  C2  UNL     1      23.772   4.607  49.840  1.00  0.00     0.266 C 
HETATM    5  N4  UNL     1      24.926   3.787  50.137  1.00  0.00    -0.364 N 
HETATM    6  C10 UNL     1      25.070   2.400  50.541  1.00  0.00     0.116 A 
HETATM    7  C11 UNL     1      26.450   1.992  51.010  1.00  0.00     0.040 A 
HETATM    8  C12 UNL     1      25.865   1.629  52.303  1.00  0.00     0.047 A 
HETATM    9  C17 UNL     1      24.508   2.109  51.875  1.00  0.00    -0.048 A 
HETATM   10  C18 UNL     1      23.366   2.167  52.566  1.00  0.00     0.059 C 
HETATM   11  H3  UNL     1      22.154   3.739  48.902  1.00  0.00     0.184 HD
ENDROOT
BRANCH   5  12
HETATM   12  C3  UNL     1      25.935   4.802  49.913  1.00  0.00     0.088 C 
HETATM   13  C4  UNL     1      26.680   4.773  48.794  1.00  0.00     0.024 C 
BRANCH  13  14
HETATM   14  C5  UNL     1      27.700   5.791  48.557  1.00  0.00    -0.053 A 
HETATM   15  C6  UNL     1      27.429   7.086  48.585  1.00  0.00     0.007 A 
HETATM   16  C7  UNL     1      28.635   7.872  48.314  1.00  0.00    -0.003 A 
HETATM   17  C8  UNL     1      29.625   7.000  48.124  1.00  0.00    -0.022 A 
HETATM   18  C9  UNL     1      29.120   5.588  48.263  1.00  0.00     0.065 A 
ENDBRANCH  13  14
ENDBRANCH   5  12
BRANCH   8  19
HETATM   19  C13 UNL     1      25.796   0.178  52.639  1.00  0.00     0.281 C 
BRANCH  19  20
HETATM   20  N5  UNL     1      26.735  -0.178  53.656  1.00  0.00     0.089 N 
HETATM   21  C14 UNL     1      27.862  -0.969  53.133  1.00  0.00     0.274 C 
HETATM   22  C15 UNL     1      28.786  -0.048  53.880  1.00  0.00     0.060 C 
HETATM   23  C16 UNL     1      27.608   0.910  54.084  1.00  0.00     0.274 C 
ENDBRANCH  19  20
ENDBRANCH   8  19
BRANCH   1  24
HETATM   24  N1  UNL     1      20.988   2.302  52.816  1.00  0.00    -0.250 N 
HETATM   25  H2  UNL     1      21.141   1.488  53.451  1.00  0.00     0.196 HD
BRANCH  24  26
HETATM   26  O1  UNL     1      19.843   3.050  52.697  1.00  0.00    -0.288 OA
HETATM   27  H1  UNL     1      19.965   3.942  53.128  1.00  0.00     0.244 HD
ENDBRANCH  24  26
ENDBRANCH   1  24
TORSDOF 6
ENDMDL
