MODEL 1
REMARK VINA RESULT:      -8.9      0.000      0.000
REMARK  6 active torsions:
REMARK  status: ('A' for Active; 'I' for Inactive)
REMARK    1  A    between atoms: N1_1  and  C1_2 
REMARK    2  A    between atoms: C6_9  and  N4_10 
REMARK    3  A    between atoms: N4_10  and  C7_11 
REMARK    4  A    between atoms: C10_14  and  O1_15 
REMARK    5  A    between atoms: O1_15  and  C11_16 
REMARK    6  A    between atoms: C11_16  and  C12_17 
ROOT
HETATM    1  C7  UNL     1      21.170  -1.037  53.816  1.00  0.00     0.035 A 
HETATM    2  C8  UNL     1      22.278  -1.213  54.562  1.00  0.00     0.032 A 
HETATM    3  C9  UNL     1      23.526  -0.672  54.325  1.00  0.00     0.041 A 
HETATM    4  C10 UNL     1      23.641   0.127  53.212  1.00  0.00     0.091 A 
HETATM    5  C18 UNL     1      22.508   0.340  52.403  1.00  0.00     0.069 A 
HETATM    6 CL1  UNL     1      22.362   1.307  50.930  1.00  0.00    -0.081 Cl
HETATM    7  C19 UNL     1      21.254  -0.220  52.667  1.00  0.00     0.056 A 
ENDROOT
BRANCH   1   8
HETATM    8  N4  UNL     1      19.907  -1.649  54.163  1.00  0.00    -0.345 N 
HETATM    9  H5  UNL     1      19.932  -2.389  54.894  1.00  0.00     0.167 HD
BRANCH   8  10
HETATM   10  C6  UNL     1      18.783  -1.144  53.394  1.00  0.00     0.108 A 
HETATM   11  C3  UNL     1      18.118  -2.338  53.540  1.00  0.00     0.017 A 
HETATM   12  C2  UNL     1      17.358  -3.699  53.704  1.00  0.00     0.034 A 
HETATM   13  C4  UNL     1      16.974  -1.453  52.603  1.00  0.00     0.205 A 
HETATM   14  C1  UNL     1      16.208  -3.744  53.139  1.00  0.00     0.014 A 
HETATM   15  C5  UNL     1      16.183  -2.374  52.574  1.00  0.00     0.130 A 
HETATM   16  N2  UNL     1      16.823  -1.146  52.403  1.00  0.00    -0.197 NA
HETATM   17  N3  UNL     1      17.903  -0.519  52.698  1.00  0.00    -0.172 NA
BRANCH  14  18
HETATM   18  N1  UNL     1      15.488  -4.885  53.242  1.00  0.00    -0.304 N 
HETATM   19  H1  UNL     1      15.362  -5.338  52.327  1.00  0.00     0.124 HD
HETATM   20  H2  UNL     1      15.522  -5.152  52.229  1.00  0.00     0.124 HD
ENDBRANCH  14  18
ENDBRANCH   8  10
ENDBRANCH   1   8
BRANCH   4  21
HETATM   21  O1  UNL     1      24.578   0.809  52.629  1.00  0.00    -0.345 OA
BRANCH  21  22
HETATM   22  C11 UNL     1      25.704   0.887  51.923  1.00  0.00     0.214 C 
BRANCH  22  23
HETATM   23  C12 UNL     1      26.975   0.552  52.635  1.00  0.00    -0.031 A 
HETATM   24  C13 UNL     1      27.474  -0.723  52.780  1.00  0.00     0.009 A 
HETATM   25  C14 UNL     1      28.654  -0.880  53.469  1.00  0.00     0.004 A 
HETATM   26  C15 UNL     1      29.337   0.190  54.006  1.00  0.00     0.042 A 
HETATM   27  C16 UNL     1      28.821   1.483  53.853  1.00  0.00     0.117 A 
HETATM   28  F1  UNL     1      29.476   2.572  54.373  1.00  0.00    -0.206 F 
HETATM   29  C17 UNL     1      27.621   1.677  53.160  1.00  0.00     0.051 A 
ENDBRANCH  22  23
ENDBRANCH  21  22
ENDBRANCH   4  21
TORSDOF 6
ENDMDL
MODEL 2
REMARK VINA RESULT:      -8.8      4.871      9.785
REMARK  6 active torsions:
REMARK  status: ('A' for Active; 'I' for Inactive)
REMARK    1  A    between atoms: N1_1  and  C1_2 
REMARK    2  A    between atoms: C6_9  and  N4_10 
REMARK    3  A    between atoms: N4_10  and  C7_11 
REMARK    4  A    between atoms: C10_14  and  O1_15 
REMARK    5  A    between atoms: O1_15  and  C11_16 
REMARK    6  A    between atoms: C11_16  and  C12_17 
ROOT
HETATM    1  C7  UNL     1      23.625   0.925  52.095  1.00  0.00     0.035 A 
HETATM    2  C8  UNL     1      22.740   1.328  51.163  1.00  0.00     0.032 A 
HETATM    3  C9  UNL     1      21.386   1.059  51.140  1.00  0.00     0.041 A 
HETATM    4  C10 UNL     1      20.899   0.300  52.178  1.00  0.00     0.091 A 
HETATM    5  C18 UNL     1      21.788  -0.143  53.176  1.00  0.00     0.069 A 
HETATM    6 CL1  UNL     1      21.449  -1.122  54.609  1.00  0.00    -0.081 Cl
HETATM    7  C19 UNL     1      23.157   0.145  53.176  1.00  0.00     0.056 A 
ENDROOT
BRANCH   1   8
HETATM    8  N4  UNL     1      25.026   1.274  52.024  1.00  0.00    -0.345 N 
HETATM    9  H5  UNL     1      25.250   2.251  51.745  1.00  0.00     0.167 HD
BRANCH   8  10
HETATM   10  C6  UNL     1      25.919   0.168  52.326  1.00  0.00     0.108 A 
HETATM   11  C3  UNL     1      26.815   1.024  52.919  1.00  0.00     0.017 A 
HETATM   12  C2  UNL     1      27.839   1.999  53.596  1.00  0.00     0.034 A 
HETATM   13  C4  UNL     1      27.634  -0.479  53.120  1.00  0.00     0.205 A 
HETATM   14  C1  UNL     1      28.893   1.434  54.059  1.00  0.00     0.014 A 
HETATM   15  C5  UNL     1      28.578   0.034  53.687  1.00  0.00     0.130 A 
HETATM   16  N2  UNL     1      27.695  -0.869  53.095  1.00  0.00    -0.197 NA
HETATM   17  N3  UNL     1      26.561  -0.931  52.498  1.00  0.00    -0.172 NA
BRANCH  14  18
HETATM   18  N1  UNL     1      29.822   2.209  54.664  1.00  0.00    -0.304 N 
HETATM   19  H1  UNL     1      30.361   2.759  53.981  1.00  0.00     0.124 HD
HETATM   20  H2  UNL     1      30.198   2.663  53.796  1.00  0.00     0.124 HD
ENDBRANCH  14  18
ENDBRANCH   8  10
ENDBRANCH   1   8
BRANCH   4  21
HETATM   21  O1  UNL     1      19.749  -0.176  52.545  1.00  0.00    -0.345 OA
BRANCH  21  22
HETATM   22  C11 UNL     1      18.419  -0.130  52.579  1.00  0.00     0.214 C 
BRANCH  22  23
HETATM   23  C12 UNL     1      17.703  -1.413  52.850  1.00  0.00    -0.031 A 
HETATM   24  C13 UNL     1      18.219  -2.453  53.591  1.00  0.00     0.009 A 
HETATM   25  C14 UNL     1      17.446  -3.579  53.750  1.00  0.00     0.004 A 
HETATM   26  C15 UNL     1      16.189  -3.689  53.195  1.00  0.00     0.042 A 
HETATM   27  C16 UNL     1      15.673  -2.626  52.442  1.00  0.00     0.117 A 
HETATM   28  F1  UNL     1      14.424  -2.702  51.877  1.00  0.00    -0.206 F 
HETATM   29  C17 UNL     1      16.435  -1.467  52.260  1.00  0.00     0.051 A 
ENDBRANCH  22  23
ENDBRANCH  21  22
ENDBRANCH   4  21
TORSDOF 6
ENDMDL
MODEL 3
REMARK VINA RESULT:      -8.7      6.690      9.063
REMARK  6 active torsions:
REMARK  status: ('A' for Active; 'I' for Inactive)
REMARK    1  A    between atoms: N1_1  and  C1_2 
REMARK    2  A    between atoms: C6_9  and  N4_10 
REMARK    3  A    between atoms: N4_10  and  C7_11 
REMARK    4  A    between atoms: C10_14  and  O1_15 
REMARK    5  A    between atoms: O1_15  and  C11_16 
REMARK    6  A    between atoms: C11_16  and  C12_17 
ROOT
HETATM    1  C7  UNL     1      25.686   2.556  51.818  1.00  0.00     0.035 A 
HETATM    2  C8  UNL     1      26.565   2.679  50.803  1.00  0.00     0.032 A 
HETATM    3  C9  UNL     1      26.480   3.555  49.740  1.00  0.00     0.041 A 
HETATM    4  C10 UNL     1      25.383   4.385  49.722  1.00  0.00     0.091 A 
HETATM    5  C18 UNL     1      24.439   4.292  50.762  1.00  0.00     0.069 A 
HETATM    6 CL1  UNL     1      22.951   5.219  50.996  1.00  0.00    -0.081 Cl
HETATM    7  C19 UNL     1      24.550   3.395  51.829  1.00  0.00     0.056 A 
ENDROOT
BRANCH   1   8
HETATM    8  N4  UNL     1      25.879   1.605  52.888  1.00  0.00    -0.345 N 
HETATM    9  H5  UNL     1      25.047   1.050  53.177  1.00  0.00     0.167 HD
BRANCH   8  10
HETATM   10  C6  UNL     1      27.229   1.599  53.427  1.00  0.00     0.108 A 
HETATM   11  C3  UNL     1      27.333   0.246  53.211  1.00  0.00     0.017 A 
HETATM   12  C2  UNL     1      27.455  -1.298  52.968  1.00  0.00     0.034 A 
HETATM   13  C4  UNL     1      28.880   0.577  53.896  1.00  0.00     0.205 A 
HETATM   14  C1  UNL     1      28.575  -1.811  53.321  1.00  0.00     0.014 A 
HETATM   15  C5  UNL     1      29.237  -0.581  53.820  1.00  0.00     0.130 A 
HETATM   16  N2  UNL     1      29.172   0.792  54.055  1.00  0.00    -0.197 NA
HETATM   17  N3  UNL     1      28.392   1.804  53.931  1.00  0.00    -0.172 NA
BRANCH  14  18
HETATM   18  N1  UNL     1      28.759  -3.138  53.135  1.00  0.00    -0.304 N 
HETATM   19  H1  UNL     1      28.866  -3.635  54.031  1.00  0.00     0.124 HD
HETATM   20  H2  UNL     1      28.813  -3.405  54.149  1.00  0.00     0.124 HD
ENDBRANCH  14  18
ENDBRANCH   8  10
ENDBRANCH   1   8
BRANCH   4  21
HETATM   21  O1  UNL     1      24.915   5.319  48.952  1.00  0.00    -0.345 OA
BRANCH  21  22
HETATM   22  C11 UNL     1      24.979   6.535  48.415  1.00  0.00     0.214 C 
BRANCH  22  23
HETATM   23  C12 UNL     1      26.125   7.400  48.829  1.00  0.00    -0.031 A 
HETATM   24  C13 UNL     1      26.090   8.293  49.876  1.00  0.00     0.009 A 
HETATM   25  C14 UNL     1      27.222   9.029  50.136  1.00  0.00     0.004 A 
HETATM   26  C15 UNL     1      28.372   8.894  49.387  1.00  0.00     0.042 A 
HETATM   27  C16 UNL     1      28.398   7.983  48.323  1.00  0.00     0.117 A 
HETATM   28  F1  UNL     1      29.526   7.822  47.558  1.00  0.00    -0.206 F 
HETATM   29  C17 UNL     1      27.261   7.221  48.031  1.00  0.00     0.051 A 
ENDBRANCH  22  23
ENDBRANCH  21  22
ENDBRANCH   4  21
TORSDOF 6
ENDMDL
MODEL 4
REMARK VINA RESULT:      -8.7      6.534      9.125
REMARK  6 active torsions:
REMARK  status: ('A' for Active; 'I' for Inactive)
REMARK    1  A    between atoms: N1_1  and  C1_2 
REMARK    2  A    between atoms: C6_9  and  N4_10 
REMARK    3  A    between atoms: N4_10  and  C7_11 
REMARK    4  A    between atoms: C10_14  and  O1_15 
REMARK    5  A    between atoms: O1_15  and  C11_16 
REMARK    6  A    between atoms: C11_16  and  C12_17 
ROOT
HETATM    1  C7  UNL     1      25.426   2.612  52.183  1.00  0.00     0.035 A 
HETATM    2  C8  UNL     1      24.245   3.256  52.263  1.00  0.00     0.032 A 
HETATM    3  C9  UNL     1      23.768   4.214  51.391  1.00  0.00     0.041 A 
HETATM    4  C10 UNL     1      24.588   4.539  50.337  1.00  0.00     0.091 A 
HETATM    5  C18 UNL     1      25.832   3.891  50.213  1.00  0.00     0.069 A 
HETATM    6 CL1  UNL     1      27.077   4.106  48.976  1.00  0.00    -0.081 Cl
HETATM    7  C19 UNL     1      26.291   2.922  51.111  1.00  0.00     0.056 A 
ENDROOT
BRANCH   1   8
HETATM    8  N4  UNL     1      25.822   1.616  53.152  1.00  0.00    -0.345 N 
HETATM    9  H5  UNL     1      25.091   0.938  53.452  1.00  0.00     0.167 HD
BRANCH   8  10
HETATM   10  C6  UNL     1      27.202   1.743  53.590  1.00  0.00     0.108 A 
HETATM   11  C3  UNL     1      27.413   0.400  53.390  1.00  0.00     0.017 A 
HETATM   12  C2  UNL     1      27.656  -1.132  53.165  1.00  0.00     0.034 A 
HETATM   13  C4  UNL     1      28.968   0.884  53.953  1.00  0.00     0.205 A 
HETATM   14  C1  UNL     1      28.841  -1.534  53.444  1.00  0.00     0.014 A 
HETATM   15  C5  UNL     1      29.422  -0.239  53.871  1.00  0.00     0.130 A 
HETATM   16  N2  UNL     1      29.251   1.128  54.086  1.00  0.00    -0.197 NA
HETATM   17  N3  UNL     1      28.375   2.063  54.003  1.00  0.00    -0.172 NA
BRANCH  14  18
HETATM   18  N1  UNL     1      29.131  -2.845  53.268  1.00  0.00    -0.304 N 
HETATM   19  H1  UNL     1      28.994  -3.382  54.135  1.00  0.00     0.124 HD
HETATM   20  H2  UNL     1      28.899  -3.161  54.241  1.00  0.00     0.124 HD
ENDBRANCH  14  18
ENDBRANCH   8  10
ENDBRANCH   1   8
BRANCH   4  21
HETATM   21  O1  UNL     1      24.551   5.348  49.322  1.00  0.00    -0.345 OA
BRANCH  21  22
HETATM   22  C11 UNL     1      24.471   6.570  48.801  1.00  0.00     0.214 C 
BRANCH  22  23
HETATM   23  C12 UNL     1      25.742   7.350  48.703  1.00  0.00    -0.031 A 
HETATM   24  C13 UNL     1      26.535   7.412  47.579  1.00  0.00     0.009 A 
HETATM   25  C14 UNL     1      27.683   8.166  47.639  1.00  0.00     0.004 A 
HETATM   26  C15 UNL     1      28.052   8.850  48.778  1.00  0.00     0.042 A 
HETATM   27  C16 UNL     1      27.240   8.779  49.917  1.00  0.00     0.117 A 
HETATM   28  F1  UNL     1      27.577   9.449  51.067  1.00  0.00    -0.206 F 
HETATM   29  C17 UNL     1      26.066   8.019  49.889  1.00  0.00     0.051 A 
ENDBRANCH  22  23
ENDBRANCH  21  22
ENDBRANCH   4  21
TORSDOF 6
ENDMDL
MODEL 5
REMARK VINA RESULT:      -8.4      4.960      9.431
REMARK  6 active torsions:
REMARK  status: ('A' for Active; 'I' for Inactive)
REMARK    1  A    between atoms: N1_1  and  C1_2 
REMARK    2  A    between atoms: C6_9  and  N4_10 
REMARK    3  A    between atoms: N4_10  and  C7_11 
REMARK    4  A    between atoms: C10_14  and  O1_15 
REMARK    5  A    between atoms: O1_15  and  C11_16 
REMARK    6  A    between atoms: C11_16  and  C12_17 
ROOT
HETATM    1  C7  UNL     1      24.702   1.156  52.280  1.00  0.00     0.035 A 
HETATM    2  C8  UNL     1      24.452   0.372  53.348  1.00  0.00     0.032 A 
HETATM    3  C9  UNL     1      23.233  -0.164  53.709  1.00  0.00     0.041 A 
HETATM    4  C10 UNL     1      22.169   0.138  52.892  1.00  0.00     0.091 A 
HETATM    5  C18 UNL     1      22.383   0.953  51.765  1.00  0.00     0.069 A 
HETATM    6 CL1  UNL     1      21.217   1.500  50.552  1.00  0.00    -0.081 Cl
HETATM    7  C19 UNL     1      23.631   1.483  51.419  1.00  0.00     0.056 A 
ENDROOT
BRANCH   1   8
HETATM    8  N4  UNL     1      26.026   1.658  51.991  1.00  0.00    -0.345 N 
HETATM    9  H5  UNL     1      26.228   1.900  50.999  1.00  0.00     0.167 HD
BRANCH   8  10
HETATM   10  C6  UNL     1      26.896   1.711  53.153  1.00  0.00     0.108 A 
HETATM   11  C3  UNL     1      27.325   0.427  52.919  1.00  0.00     0.017 A 
HETATM   12  C2  UNL     1      27.815  -1.039  52.656  1.00  0.00     0.034 A 
HETATM   13  C4  UNL     1      28.230   0.809  54.335  1.00  0.00     0.205 A 
HETATM   14  C1  UNL     1      28.672  -1.479  53.501  1.00  0.00     0.014 A 
HETATM   15  C5  UNL     1      28.769  -0.279  54.366  1.00  0.00     0.130 A 
HETATM   16  N2  UNL     1      28.361   1.027  54.639  1.00  0.00    -0.197 NA
HETATM   17  N3  UNL     1      27.590   1.957  54.205  1.00  0.00    -0.172 NA
BRANCH  14  18
HETATM   18  N1  UNL     1      29.148  -2.735  53.337  1.00  0.00    -0.304 N 
HETATM   19  H1  UNL     1      30.022  -2.741  52.793  1.00  0.00     0.124 HD
HETATM   20  H2  UNL     1      30.012  -2.477  52.800  1.00  0.00     0.124 HD
ENDBRANCH  14  18
ENDBRANCH   8  10
ENDBRANCH   1   8
BRANCH   4  21
HETATM   21  O1  UNL     1      20.901  -0.133  52.850  1.00  0.00    -0.345 OA
BRANCH  21  22
HETATM   22  C11 UNL     1      19.738  -0.392  53.444  1.00  0.00     0.214 C 
BRANCH  22  23
HETATM   23  C12 UNL     1      18.540  -0.525  52.560  1.00  0.00    -0.031 A 
HETATM   24  C13 UNL     1      18.368   0.151  51.372  1.00  0.00     0.009 A 
HETATM   25  C14 UNL     1      17.208  -0.067  50.667  1.00  0.00     0.004 A 
HETATM   26  C15 UNL     1      16.231  -0.932  51.112  1.00  0.00     0.042 A 
HETATM   27  C16 UNL     1      16.414  -1.614  52.322  1.00  0.00     0.117 A 
HETATM   28  F1  UNL     1      15.463  -2.483  52.794  1.00  0.00    -0.206 F 
HETATM   29  C17 UNL     1      17.583  -1.412  53.065  1.00  0.00     0.051 A 
ENDBRANCH  22  23
ENDBRANCH  21  22
ENDBRANCH   4  21
TORSDOF 6
ENDMDL
MODEL 6
REMARK VINA RESULT:      -8.4      6.626      8.726
REMARK  6 active torsions:
REMARK  status: ('A' for Active; 'I' for Inactive)
REMARK    1  A    between atoms: N1_1  and  C1_2 
REMARK    2  A    between atoms: C6_9  and  N4_10 
REMARK    3  A    between atoms: N4_10  and  C7_11 
REMARK    4  A    between atoms: C10_14  and  O1_15 
REMARK    5  A    between atoms: O1_15  and  C11_16 
REMARK    6  A    between atoms: C11_16  and  C12_17 
ROOT
HETATM    1  C7  UNL     1      25.357   3.053  50.976  1.00  0.00     0.035 A 
HETATM    2  C8  UNL     1      26.413   2.979  50.141  1.00  0.00     0.032 A 
HETATM    3  C9  UNL     1      26.822   3.943  49.242  1.00  0.00     0.041 A 
HETATM    4  C10 UNL     1      26.071   5.093  49.200  1.00  0.00     0.091 A 
HETATM    5  C18 UNL     1      24.959   5.216  50.055  1.00  0.00     0.069 A 
HETATM    6 CL1  UNL     1      23.826   6.564  50.216  1.00  0.00    -0.081 Cl
HETATM    7  C19 UNL     1      24.567   4.223  50.959  1.00  0.00     0.056 A 
ENDROOT
BRANCH   1   8
HETATM    8  N4  UNL     1      25.024   1.982  51.887  1.00  0.00    -0.345 N 
HETATM    9  H5  UNL     1      24.185   1.413  51.651  1.00  0.00     0.167 HD
BRANCH   8  10
HETATM   10  C6  UNL     1      25.914   1.890  53.031  1.00  0.00     0.108 A 
HETATM   11  C3  UNL     1      26.235   0.594  52.706  1.00  0.00     0.017 A 
HETATM   12  C2  UNL     1      26.602  -0.885  52.339  1.00  0.00     0.034 A 
HETATM   13  C4  UNL     1      27.190   0.810  54.124  1.00  0.00     0.205 A 
HETATM   14  C1  UNL     1      27.434  -1.446  53.136  1.00  0.00     0.014 A 
HETATM   15  C5  UNL     1      27.640  -0.317  54.074  1.00  0.00     0.130 A 
HETATM   16  N2  UNL     1      27.343   0.996  54.439  1.00  0.00    -0.197 NA
HETATM   17  N3  UNL     1      26.641   2.010  54.082  1.00  0.00    -0.172 NA
BRANCH  14  18
HETATM   18  N1  UNL     1      27.806  -2.722  52.880  1.00  0.00    -0.304 N 
HETATM   19  H1  UNL     1      28.825  -2.843  52.960  1.00  0.00     0.124 HD
HETATM   20  H2  UNL     1      28.834  -2.593  53.044  1.00  0.00     0.124 HD
ENDBRANCH  14  18
ENDBRANCH   8  10
ENDBRANCH   1   8
BRANCH   4  21
HETATM   21  O1  UNL     1      26.085   6.210  48.538  1.00  0.00    -0.345 OA
BRANCH  21  22
HETATM   22  C11 UNL     1      26.615   7.398  48.256  1.00  0.00     0.214 C 
BRANCH  22  23
HETATM   23  C12 UNL     1      28.107   7.489  48.247  1.00  0.00    -0.031 A 
HETATM   24  C13 UNL     1      28.939   6.597  47.607  1.00  0.00     0.009 A 
HETATM   25  C14 UNL     1      30.296   6.804  47.691  1.00  0.00     0.004 A 
HETATM   26  C15 UNL     1      30.833   7.866  48.388  1.00  0.00     0.042 A 
HETATM   27  C16 UNL     1      29.978   8.767  49.037  1.00  0.00     0.117 A 
HETATM   28  F1  UNL     1      30.479   9.836  49.738  1.00  0.00    -0.206 F 
HETATM   29  C17 UNL     1      28.593   8.583  48.972  1.00  0.00     0.051 A 
ENDBRANCH  22  23
ENDBRANCH  21  22
ENDBRANCH   4  21
TORSDOF 6
ENDMDL
MODEL 7
REMARK VINA RESULT:      -8.4      7.763     11.696
REMARK  6 active torsions:
REMARK  status: ('A' for Active; 'I' for Inactive)
REMARK    1  A    between atoms: N1_1  and  C1_2 
REMARK    2  A    between atoms: C6_9  and  N4_10 
REMARK    3  A    between atoms: N4_10  and  C7_11 
REMARK    4  A    between atoms: C10_14  and  O1_15 
REMARK    5  A    between atoms: O1_15  and  C11_16 
REMARK    6  A    between atoms: C11_16  and  C12_17 
ROOT
HETATM    1  C7  UNL     1      27.058   5.687  48.735  1.00  0.00     0.035 A 
HETATM    2  C8  UNL     1      27.140   4.370  49.015  1.00  0.00     0.032 A 
HETATM    3  C9  UNL     1      26.307   3.652  49.848  1.00  0.00     0.041 A 
HETATM    4  C10 UNL     1      25.293   4.357  50.451  1.00  0.00     0.091 A 
HETATM    5  C18 UNL     1      25.168   5.735  50.187  1.00  0.00     0.069 A 
HETATM    6 CL1  UNL     1      23.976   6.881  50.814  1.00  0.00    -0.081 Cl
HETATM    7  C19 UNL     1      26.026   6.440  49.336  1.00  0.00     0.056 A 
ENDROOT
BRANCH   1   8
HETATM    8  N4  UNL     1      27.984   6.338  47.836  1.00  0.00    -0.345 N 
HETATM    9  H5  UNL     1      27.578   6.776  46.984  1.00  0.00     0.167 HD
BRANCH   8  10
HETATM   10  C6  UNL     1      29.371   6.246  48.260  1.00  0.00     0.108 A 
HETATM   11  C3  UNL     1      29.386   7.583  48.576  1.00  0.00     0.017 A 
HETATM   12  C2  UNL     1      29.408   9.109  48.937  1.00  0.00     0.034 A 
HETATM   13  C4  UNL     1      31.000   7.142  48.988  1.00  0.00     0.205 A 
HETATM   14  C1  UNL     1      30.526   9.537  49.393  1.00  0.00     0.014 A 
HETATM   15  C5  UNL     1      31.290   8.267  49.342  1.00  0.00     0.130 A 
HETATM   16  N2  UNL     1      31.316   6.907  49.035  1.00  0.00    -0.197 NA
HETATM   17  N3  UNL     1      30.580   5.958  48.581  1.00  0.00    -0.172 NA
BRANCH  14  18
HETATM   18  N1  UNL     1      30.621  10.843  49.733  1.00  0.00    -0.304 N 
HETATM   19  H1  UNL     1      29.716  11.324  49.647  1.00  0.00     0.124 HD
HETATM   20  H2  UNL     1      29.611  11.089  49.591  1.00  0.00     0.124 HD
ENDBRANCH  14  18
ENDBRANCH   8  10
ENDBRANCH   1   8
BRANCH   4  21
HETATM   21  O1  UNL     1      24.321   4.104  51.273  1.00  0.00    -0.345 OA
BRANCH  21  22
HETATM   22  C11 UNL     1      23.859   3.649  52.436  1.00  0.00     0.214 C 
BRANCH  22  23
HETATM   23  C12 UNL     1      24.455   2.379  52.952  1.00  0.00    -0.031 A 
HETATM   24  C13 UNL     1      25.694   2.283  53.544  1.00  0.00     0.009 A 
HETATM   25  C14 UNL     1      26.115   1.043  53.964  1.00  0.00     0.004 A 
HETATM   26  C15 UNL     1      25.338  -0.086  53.810  1.00  0.00     0.042 A 
HETATM   27  C16 UNL     1      24.079   0.022  53.206  1.00  0.00     0.117 A 
HETATM   28  F1  UNL     1      23.279  -1.080  53.038  1.00  0.00    -0.206 F 
HETATM   29  C17 UNL     1      23.623   1.270  52.765  1.00  0.00     0.051 A 
ENDBRANCH  22  23
ENDBRANCH  21  22
ENDBRANCH   4  21
TORSDOF 6
ENDMDL
MODEL 8
REMARK VINA RESULT:      -8.3      5.620      7.944
REMARK  6 active torsions:
REMARK  status: ('A' for Active; 'I' for Inactive)
REMARK    1  A    between atoms: N1_1  and  C1_2 
REMARK    2  A    between atoms: C6_9  and  N4_10 
REMARK    3  A    between atoms: N4_10  and  C7_11 
REMARK    4  A    between atoms: C10_14  and  O1_15 
REMARK    5  A    between atoms: O1_15  and  C11_16 
REMARK    6  A    between atoms: C11_16  and  C12_17 
ROOT
HETATM    1  C7  UNL     1      24.128   3.193  50.115  1.00  0.00     0.035 A 
HETATM    2  C8  UNL     1      25.433   2.976  50.373  1.00  0.00     0.032 A 
HETATM    3  C9  UNL     1      25.956   2.055  51.258  1.00  0.00     0.041 A 
HETATM    4  C10 UNL     1      25.046   1.286  51.944  1.00  0.00     0.091 A 
HETATM    5  C18 UNL     1      23.671   1.478  51.707  1.00  0.00     0.069 A 
HETATM    6 CL1  UNL     1      22.292   0.645  52.435  1.00  0.00    -0.081 Cl
HETATM    7  C19 UNL     1      23.168   2.418  50.802  1.00  0.00     0.056 A 
ENDROOT
BRANCH   1   8
HETATM    8  N4  UNL     1      23.691   4.183  49.157  1.00  0.00    -0.345 N 
HETATM    9  H5  UNL     1      23.852   3.964  48.152  1.00  0.00     0.167 HD
BRANCH   8  10
HETATM   10  C6  UNL     1      23.114   5.369  49.765  1.00  0.00     0.108 A 
HETATM   11  C3  UNL     1      24.349   5.968  49.823  1.00  0.00     0.017 A 
HETATM   12  C2  UNL     1      25.758   6.652  49.892  1.00  0.00     0.034 A 
HETATM   13  C4  UNL     1      23.368   7.201  50.521  1.00  0.00     0.205 A 
HETATM   14  C1  UNL     1      25.759   7.828  50.404  1.00  0.00     0.014 A 
HETATM   15  C5  UNL     1      24.310   7.948  50.693  1.00  0.00     0.130 A 
HETATM   16  N2  UNL     1      23.038   7.377  50.652  1.00  0.00    -0.197 NA
HETATM   17  N3  UNL     1      22.418   6.313  50.288  1.00  0.00    -0.172 NA
BRANCH  14  18
HETATM   18  N1  UNL     1      26.938   8.487  50.491  1.00  0.00    -0.304 N 
HETATM   19  H1  UNL     1      27.028   9.201  49.756  1.00  0.00     0.124 HD
HETATM   20  H2  UNL     1      26.780   9.143  49.688  1.00  0.00     0.124 HD
ENDBRANCH  14  18
ENDBRANCH   8  10
ENDBRANCH   1   8
BRANCH   4  21
HETATM   21  O1  UNL     1      25.083   0.343  52.835  1.00  0.00    -0.345 OA
BRANCH  21  22
HETATM   22  C11 UNL     1      25.728  -0.384  53.745  1.00  0.00     0.214 C 
BRANCH  22  23
HETATM   23  C12 UNL     1      27.222  -0.358  53.699  1.00  0.00    -0.031 A 
HETATM   24  C13 UNL     1      28.003  -1.355  53.159  1.00  0.00     0.009 A 
HETATM   25  C14 UNL     1      29.369  -1.196  53.194  1.00  0.00     0.004 A 
HETATM   26  C15 UNL     1      29.963  -0.081  53.746  1.00  0.00     0.042 A 
HETATM   27  C16 UNL     1      29.160   0.928  54.293  1.00  0.00     0.117 A 
HETATM   28  F1  UNL     1      29.718   2.052  54.848  1.00  0.00    -0.206 F 
HETATM   29  C17 UNL     1      27.767   0.795  54.275  1.00  0.00     0.051 A 
ENDBRANCH  22  23
ENDBRANCH  21  22
ENDBRANCH   4  21
TORSDOF 6
ENDMDL
MODEL 9
REMARK VINA RESULT:      -8.2      1.974      2.665
REMARK  6 active torsions:
REMARK  status: ('A' for Active; 'I' for Inactive)
REMARK    1  A    between atoms: N1_1  and  C1_2 
REMARK    2  A    between atoms: C6_9  and  N4_10 
REMARK    3  A    between atoms: N4_10  and  C7_11 
REMARK    4  A    between atoms: C10_14  and  O1_15 
REMARK    5  A    between atoms: O1_15  and  C11_16 
REMARK    6  A    between atoms: C11_16  and  C12_17 
ROOT
HETATM    1  C7  UNL     1      21.370   0.702  51.640  1.00  0.00     0.035 A 
HETATM    2  C8  UNL     1      21.986   0.005  52.616  1.00  0.00     0.032 A 
HETATM    3  C9  UNL     1      23.323   0.068  52.956  1.00  0.00     0.041 A 
HETATM    4  C10 UNL     1      24.098   0.931  52.218  1.00  0.00     0.091 A 
HETATM    5  C18 UNL     1      23.496   1.680  51.189  1.00  0.00     0.069 A 
HETATM    6 CL1  UNL     1      24.237   2.852  50.090  1.00  0.00    -0.081 Cl
HETATM    7  C19 UNL     1      22.138   1.598  50.866  1.00  0.00     0.056 A 
ENDROOT
BRANCH   1   8
HETATM    8  N4  UNL     1      19.956   0.563  51.376  1.00  0.00    -0.345 N 
HETATM    9  H5  UNL     1      19.589   1.045  50.529  1.00  0.00     0.167 HD
BRANCH   8  10
HETATM   10  C6  UNL     1      19.249  -0.218  52.377  1.00  0.00     0.108 A 
HETATM   11  C3  UNL     1      18.132  -0.270  51.579  1.00  0.00     0.017 A 
HETATM   12  C2  UNL     1      16.855  -0.331  50.672  1.00  0.00     0.034 A 
HETATM   13  C4  UNL     1      17.585  -1.164  52.947  1.00  0.00     0.205 A 
HETATM   14  C1  UNL     1      15.867  -0.974  51.176  1.00  0.00     0.014 A 
HETATM   15  C5  UNL     1      16.489  -1.363  52.465  1.00  0.00     0.130 A 
HETATM   16  N2  UNL     1      17.602  -1.335  53.304  1.00  0.00    -0.197 NA
HETATM   17  N3  UNL     1      18.804  -0.891  53.375  1.00  0.00    -0.172 NA
BRANCH  14  18
HETATM   18  N1  UNL     1      14.730  -1.076  50.449  1.00  0.00    -0.304 N 
HETATM   19  H1  UNL     1      14.125  -1.833  50.795  1.00  0.00     0.124 HD
HETATM   20  H2  UNL     1      14.298  -1.863  50.992  1.00  0.00     0.124 HD
ENDBRANCH  14  18
ENDBRANCH   8  10
ENDBRANCH   1   8
BRANCH   4  21
HETATM   21  O1  UNL     1      25.343   1.294  52.187  1.00  0.00    -0.345 OA
BRANCH  21  22
HETATM   22  C11 UNL     1      26.452   1.728  52.782  1.00  0.00     0.214 C 
BRANCH  22  23
HETATM   23  C12 UNL     1      27.527   0.719  53.030  1.00  0.00    -0.031 A 
HETATM   24  C13 UNL     1      28.788   1.021  53.492  1.00  0.00     0.009 A 
HETATM   25  C14 UNL     1      29.677  -0.014  53.666  1.00  0.00     0.004 A 
HETATM   26  C15 UNL     1      29.340  -1.323  53.395  1.00  0.00     0.042 A 
HETATM   27  C16 UNL     1      28.054  -1.620  52.924  1.00  0.00     0.117 A 
HETATM   28  F1  UNL     1      27.685  -2.912  52.646  1.00  0.00    -0.206 F 
HETATM   29  C17 UNL     1      27.127  -0.589  52.734  1.00  0.00     0.051 A 
ENDBRANCH  22  23
ENDBRANCH  21  22
ENDBRANCH   4  21
TORSDOF 6
ENDMDL
