MODEL 1
REMARK VINA RESULT:      -8.4      0.000      0.000
REMARK  6 active torsions:
REMARK  status: ('A' for Active; 'I' for Inactive)
REMARK       I    between atoms: C1_2  and  N1_3 
REMARK    1  A    between atoms: C1_2  and  C17_23 
REMARK    2  A    between atoms: N1_3  and  C2_4 
REMARK    3  A    between atoms: C2_4  and  C3_5 
REMARK    4  A    between atoms: C4_6  and  N2_7 
REMARK    5  A    between atoms: C4_6  and  C14_20 
REMARK    6  A    between atoms: N2_7  and  C5_8 
ROOT
HETATM    1  C3  UNL     1      21.111   2.514  52.143  1.00  0.00     0.023 C 
HETATM    2  C4  UNL     1      20.882   1.556  51.252  1.00  0.00     0.053 C 
ENDROOT
BRANCH   2   3
HETATM    3  N2  UNL     1      20.494   0.197  51.556  1.00  0.00    -0.188 N 
HETATM    4  H5  UNL     1      19.785  -0.457  51.176  1.00  0.00     0.184 HD
BRANCH   3   5
HETATM    5  C5  UNL     1      21.370  -0.155  52.621  1.00  0.00     0.727 A 
HETATM    6  N3  UNL     1      20.850  -0.726  53.715  1.00  0.00    -0.075 NA
HETATM    7  C6  UNL     1      21.630  -1.089  54.774  1.00  0.00     0.139 A 
HETATM    8  C7  UNL     1      22.985  -0.828  54.640  1.00  0.00     0.053 A 
HETATM    9  C8  UNL     1      23.549  -0.241  53.527  1.00  0.00     0.089 A 
HETATM   10  C9  UNL     1      24.968   0.018  53.423  1.00  0.00     0.011 A 
HETATM   11  N5  UNL     1      22.700   0.081  52.536  1.00  0.00    -0.062 NA
HETATM   12  C10 UNL     1      25.890  -0.286  54.399  1.00  0.00     0.017 A 
HETATM   13  C13 UNL     1      25.474   0.611  52.288  1.00  0.00     0.130 A 
HETATM   14  C11 UNL     1      27.233   0.000  54.214  1.00  0.00     0.020 A 
HETATM   15  C12 UNL     1      27.715   0.593  53.074  1.00  0.00     0.116 A 
HETATM   16  N4  UNL     1      26.792   0.884  52.128  1.00  0.00    -0.272 NA
ENDBRANCH   3   5
ENDBRANCH   2   3
BRANCH   2  17
HETATM   17  C14 UNL     1      21.004   1.773  49.792  1.00  0.00    -0.031 A 
HETATM   18  C15 UNL     1      21.888   1.472  48.784  1.00  0.00    -0.013 A 
HETATM   19  C16 UNL     1      20.682   2.219  48.456  1.00  0.00     0.068 A 
ENDBRANCH   2  17
BRANCH   1  20
HETATM   20  C2  UNL     1      21.510   3.934  51.997  1.00  0.00     0.152 C 
BRANCH  20  21
HETATM   21  N1  UNL     1      22.875   3.979  51.503  1.00  0.00    -0.353 N 
HETATM   22  C1  UNL     1      23.228   4.592  50.271  1.00  0.00     0.251 C 
HETATM   23  O1  UNL     1      22.362   5.126  49.549  1.00  0.00    -0.268 OA
HETATM   24  H1  UNL     1      23.612   3.537  52.096  1.00  0.00     0.163 HD
BRANCH  22  25
HETATM   25  C17 UNL     1      24.603   4.632  49.784  1.00  0.00     0.032 A 
HETATM   26  C18 UNL     1      25.390   3.509  49.924  1.00  0.00     0.017 A 
HETATM   27  C19 UNL     1      26.698   3.517  49.472  1.00  0.00     0.001 A 
HETATM   28  C20 UNL     1      27.264   4.641  48.864  1.00  0.00     0.000 A 
HETATM   29  C21 UNL     1      26.475   5.778  48.719  1.00  0.00     0.001 A 
HETATM   30  C22 UNL     1      25.177   5.724  49.185  1.00  0.00     0.017 A 
ENDBRANCH  22  25
ENDBRANCH  20  21
ENDBRANCH   1  20
TORSDOF 6
ENDMDL
MODEL 2
REMARK VINA RESULT:      -8.4      2.434      6.404
REMARK  6 active torsions:
REMARK  status: ('A' for Active; 'I' for Inactive)
REMARK       I    between atoms: C1_2  and  N1_3 
REMARK    1  A    between atoms: C1_2  and  C17_23 
REMARK    2  A    between atoms: N1_3  and  C2_4 
REMARK    3  A    between atoms: C2_4  and  C3_5 
REMARK    4  A    between atoms: C4_6  and  N2_7 
REMARK    5  A    between atoms: C4_6  and  C14_20 
REMARK    6  A    between atoms: N2_7  and  C5_8 
ROOT
HETATM    1  C3  UNL     1      24.338   2.720  52.248  1.00  0.00     0.023 C 
HETATM    2  C4  UNL     1      23.402   1.917  51.756  1.00  0.00     0.053 C 
ENDROOT
BRANCH   2   3
HETATM    3  N2  UNL     1      22.795   2.032  50.449  1.00  0.00    -0.188 N 
HETATM    4  H5  UNL     1      22.259   1.387  49.839  1.00  0.00     0.184 HD
BRANCH   3   5
HETATM    5  C5  UNL     1      23.093   3.372  50.074  1.00  0.00     0.727 A 
HETATM    6  N3  UNL     1      22.104   4.274  50.085  1.00  0.00    -0.075 NA
HETATM    7  C6  UNL     1      22.318   5.577  49.736  1.00  0.00     0.139 A 
HETATM    8  C7  UNL     1      23.617   5.896  49.374  1.00  0.00     0.053 A 
HETATM    9  C8  UNL     1      24.655   4.989  49.353  1.00  0.00     0.089 A 
HETATM   10  C9  UNL     1      26.000   5.358  48.968  1.00  0.00     0.011 A 
HETATM   11  N5  UNL     1      24.347   3.731  49.712  1.00  0.00    -0.062 NA
HETATM   12  C10 UNL     1      26.382   6.626  48.590  1.00  0.00     0.017 A 
HETATM   13  C13 UNL     1      26.995   4.408  48.962  1.00  0.00     0.130 A 
HETATM   14  C11 UNL     1      27.695   6.889  48.234  1.00  0.00     0.020 A 
HETATM   15  C12 UNL     1      28.671   5.926  48.235  1.00  0.00     0.116 A 
HETATM   16  N4  UNL     1      28.275   4.687  48.609  1.00  0.00    -0.272 NA
ENDBRANCH   3   5
ENDBRANCH   2   3
BRANCH   2  17
HETATM   17  C14 UNL     1      22.847   0.772  52.515  1.00  0.00    -0.031 A 
HETATM   18  C15 UNL     1      21.869   0.545  53.452  1.00  0.00    -0.013 A 
HETATM   19  C16 UNL     1      22.664  -0.582  52.984  1.00  0.00     0.068 A 
ENDBRANCH   2  17
BRANCH   1  20
HETATM   20  C2  UNL     1      25.051   2.737  53.547  1.00  0.00     0.152 C 
BRANCH  20  21
HETATM   21  N1  UNL     1      25.845   1.525  53.651  1.00  0.00    -0.353 N 
HETATM   22  C1  UNL     1      27.113   1.380  53.027  1.00  0.00     0.251 C 
HETATM   23  O1  UNL     1      27.605   2.305  52.351  1.00  0.00    -0.268 OA
HETATM   24  H1  UNL     1      25.448   0.741  54.214  1.00  0.00     0.163 HD
BRANCH  22  25
HETATM   25  C17 UNL     1      27.902   0.158  53.138  1.00  0.00     0.032 A 
HETATM   26  C18 UNL     1      27.324  -1.041  52.780  1.00  0.00     0.017 A 
HETATM   27  C19 UNL     1      28.048  -2.218  52.874  1.00  0.00     0.001 A 
HETATM   28  C20 UNL     1      29.371  -2.237  53.325  1.00  0.00     0.000 A 
HETATM   29  C21 UNL     1      29.961  -1.031  53.687  1.00  0.00     0.001 A 
HETATM   30  C22 UNL     1      29.201   0.115  53.577  1.00  0.00     0.017 A 
ENDBRANCH  22  25
ENDBRANCH  20  21
ENDBRANCH   1  20
TORSDOF 6
ENDMDL
MODEL 3
REMARK VINA RESULT:      -8.4      1.785      2.845
REMARK  6 active torsions:
REMARK  status: ('A' for Active; 'I' for Inactive)
REMARK       I    between atoms: C1_2  and  N1_3 
REMARK    1  A    between atoms: C1_2  and  C17_23 
REMARK    2  A    between atoms: N1_3  and  C2_4 
REMARK    3  A    between atoms: C2_4  and  C3_5 
REMARK    4  A    between atoms: C4_6  and  N2_7 
REMARK    5  A    between atoms: C4_6  and  C14_20 
REMARK    6  A    between atoms: N2_7  and  C5_8 
ROOT
HETATM    1  C3  UNL     1      22.736   1.627  50.514  1.00  0.00     0.023 C 
HETATM    2  C4  UNL     1      21.963   1.043  51.422  1.00  0.00     0.053 C 
ENDROOT
BRANCH   2   3
HETATM    3  N2  UNL     1      22.416   0.154  52.468  1.00  0.00    -0.188 N 
HETATM    4  H5  UNL     1      22.017  -0.685  52.930  1.00  0.00     0.184 HD
BRANCH   3   5
HETATM    5  C5  UNL     1      23.685   0.693  52.819  1.00  0.00     0.727 A 
HETATM    6  N3  UNL     1      23.769   1.999  53.104  1.00  0.00    -0.075 NA
HETATM    7  C6  UNL     1      24.954   2.583  53.448  1.00  0.00     0.139 A 
HETATM    8  C7  UNL     1      26.053   1.738  53.481  1.00  0.00     0.053 A 
HETATM    9  C8  UNL     1      25.997   0.391  53.192  1.00  0.00     0.089 A 
HETATM   10  C9  UNL     1      27.166  -0.460  53.234  1.00  0.00     0.011 A 
HETATM   11  N5  UNL     1      24.787  -0.093  52.864  1.00  0.00    -0.062 NA
HETATM   12  C10 UNL     1      28.432  -0.029  53.562  1.00  0.00     0.017 A 
HETATM   13  C13 UNL     1      27.050  -1.798  52.932  1.00  0.00     0.130 A 
HETATM   14  C11 UNL     1      29.496  -0.916  53.575  1.00  0.00     0.020 A 
HETATM   15  C12 UNL     1      29.358  -2.246  53.269  1.00  0.00     0.116 A 
HETATM   16  N4  UNL     1      28.106  -2.648  52.950  1.00  0.00    -0.272 NA
ENDBRANCH   3   5
ENDBRANCH   2   3
BRANCH   2  17
HETATM   17  C14 UNL     1      20.495   1.238  51.471  1.00  0.00    -0.031 A 
HETATM   18  C15 UNL     1      19.364   0.463  51.557  1.00  0.00    -0.013 A 
HETATM   19  C16 UNL     1      19.217   1.910  51.485  1.00  0.00     0.068 A 
ENDBRANCH   2  17
BRANCH   1  20
HETATM   20  C2  UNL     1      22.433   2.549  49.394  1.00  0.00     0.152 C 
BRANCH  20  21
HETATM   21  N1  UNL     1      23.674   3.166  48.958  1.00  0.00    -0.353 N 
HETATM   22  C1  UNL     1      24.207   4.334  49.565  1.00  0.00     0.251 C 
HETATM   23  O1  UNL     1      23.618   4.889  50.516  1.00  0.00    -0.268 OA
HETATM   24  H1  UNL     1      24.178   2.713  48.164  1.00  0.00     0.163 HD
BRANCH  22  25
HETATM   25  C17 UNL     1      25.454   4.946  49.120  1.00  0.00     0.032 A 
HETATM   26  C18 UNL     1      25.434   6.254  48.687  1.00  0.00     0.017 A 
HETATM   27  C19 UNL     1      26.602   6.862  48.258  1.00  0.00     0.001 A 
HETATM   28  C20 UNL     1      27.826   6.188  48.248  1.00  0.00     0.000 A 
HETATM   29  C21 UNL     1      27.853   4.868  48.684  1.00  0.00     0.001 A 
HETATM   30  C22 UNL     1      26.665   4.303  49.102  1.00  0.00     0.017 A 
ENDBRANCH  22  25
ENDBRANCH  20  21
ENDBRANCH   1  20
TORSDOF 6
ENDMDL
MODEL 4
REMARK VINA RESULT:      -8.4      2.348      3.855
REMARK  6 active torsions:
REMARK  status: ('A' for Active; 'I' for Inactive)
REMARK       I    between atoms: C1_2  and  N1_3 
REMARK    1  A    between atoms: C1_2  and  C17_23 
REMARK    2  A    between atoms: N1_3  and  C2_4 
REMARK    3  A    between atoms: C2_4  and  C3_5 
REMARK    4  A    between atoms: C4_6  and  N2_7 
REMARK    5  A    between atoms: C4_6  and  C14_20 
REMARK    6  A    between atoms: N2_7  and  C5_8 
ROOT
HETATM    1  C3  UNL     1      24.683   4.048  50.746  1.00  0.00     0.023 C 
HETATM    2  C4  UNL     1      23.847   4.162  51.771  1.00  0.00     0.053 C 
ENDROOT
BRANCH   2   3
HETATM    3  N2  UNL     1      24.154   3.847  53.148  1.00  0.00    -0.188 N 
HETATM    4  H5  UNL     1      24.197   4.398  54.026  1.00  0.00     0.184 HD
BRANCH   3   5
HETATM    5  C5  UNL     1      24.431   2.452  53.104  1.00  0.00     0.727 A 
HETATM    6  N3  UNL     1      23.407   1.602  52.953  1.00  0.00    -0.075 NA
HETATM    7  C6  UNL     1      23.598   0.251  52.903  1.00  0.00     0.139 A 
HETATM    8  C7  UNL     1      24.913  -0.174  53.018  1.00  0.00     0.053 A 
HETATM    9  C8  UNL     1      25.986   0.677  53.175  1.00  0.00     0.089 A 
HETATM   10  C9  UNL     1      27.345   0.197  53.294  1.00  0.00     0.011 A 
HETATM   11  N5  UNL     1      25.698   1.989  53.213  1.00  0.00    -0.062 NA
HETATM   12  C10 UNL     1      27.709  -1.131  53.263  1.00  0.00     0.017 A 
HETATM   13  C13 UNL     1      28.377   1.094  53.453  1.00  0.00     0.130 A 
HETATM   14  C11 UNL     1      29.038  -1.500  53.386  1.00  0.00     0.020 A 
HETATM   15  C12 UNL     1      30.050  -0.588  53.544  1.00  0.00     0.116 A 
HETATM   16  N4  UNL     1      29.672   0.710  53.572  1.00  0.00    -0.272 NA
ENDBRANCH   3   5
ENDBRANCH   2   3
BRANCH   2  17
HETATM   17  C14 UNL     1      22.452   4.636  51.620  1.00  0.00    -0.031 A 
HETATM   18  C15 UNL     1      21.795   5.817  51.365  1.00  0.00    -0.013 A 
HETATM   19  C16 UNL     1      21.008   4.608  51.565  1.00  0.00     0.068 A 
ENDBRANCH   2  17
BRANCH   1  20
HETATM   20  C2  UNL     1      24.524   4.325  49.298  1.00  0.00     0.152 C 
BRANCH  20  21
HETATM   21  N1  UNL     1      25.548   5.274  48.898  1.00  0.00    -0.353 N 
HETATM   22  C1  UNL     1      26.919   4.922  48.777  1.00  0.00     0.251 C 
HETATM   23  O1  UNL     1      27.307   3.760  49.015  1.00  0.00    -0.268 OA
HETATM   24  H1  UNL     1      25.240   6.250  48.694  1.00  0.00     0.163 HD
BRANCH  22  25
HETATM   25  C17 UNL     1      27.940   5.884  48.374  1.00  0.00     0.032 A 
HETATM   26  C18 UNL     1      27.575   7.199  48.183  1.00  0.00     0.017 A 
HETATM   27  C19 UNL     1      28.522   8.134  47.800  1.00  0.00     0.001 A 
HETATM   28  C20 UNL     1      29.861   7.790  47.597  1.00  0.00     0.000 A 
HETATM   29  C21 UNL     1      30.236   6.465  47.789  1.00  0.00     0.001 A 
HETATM   30  C22 UNL     1      29.259   5.568  48.170  1.00  0.00     0.017 A 
ENDBRANCH  22  25
ENDBRANCH  20  21
ENDBRANCH   1  20
TORSDOF 6
ENDMDL
MODEL 5
REMARK VINA RESULT:      -8.2      1.470      1.925
REMARK  6 active torsions:
REMARK  status: ('A' for Active; 'I' for Inactive)
REMARK       I    between atoms: C1_2  and  N1_3 
REMARK    1  A    between atoms: C1_2  and  C17_23 
REMARK    2  A    between atoms: N1_3  and  C2_4 
REMARK    3  A    between atoms: C2_4  and  C3_5 
REMARK    4  A    between atoms: C4_6  and  N2_7 
REMARK    5  A    between atoms: C4_6  and  C14_20 
REMARK    6  A    between atoms: N2_7  and  C5_8 
ROOT
HETATM    1  C3  UNL     1      22.748   3.227  52.162  1.00  0.00     0.023 C 
HETATM    2  C4  UNL     1      22.414   2.469  51.123  1.00  0.00     0.053 C 
ENDROOT
BRANCH   2   3
HETATM    3  N2  UNL     1      21.940   1.106  51.193  1.00  0.00    -0.188 N 
HETATM    4  H5  UNL     1      21.219   0.561  50.684  1.00  0.00     0.184 HD
BRANCH   3   5
HETATM    5  C5  UNL     1      22.739   0.541  52.227  1.00  0.00     0.727 A 
HETATM    6  N3  UNL     1      22.169  -0.328  53.072  1.00  0.00    -0.075 NA
HETATM    7  C6  UNL     1      22.874  -0.907  54.087  1.00  0.00     0.139 A 
HETATM    8  C7  UNL     1      24.207  -0.536  54.182  1.00  0.00     0.053 A 
HETATM    9  C8  UNL     1      24.819   0.356  53.328  1.00  0.00     0.089 A 
HETATM   10  C9  UNL     1      26.213   0.722  53.458  1.00  0.00     0.011 A 
HETATM   11  N5  UNL     1      24.044   0.874  52.359  1.00  0.00    -0.062 NA
HETATM   12  C10 UNL     1      27.061   0.230  54.425  1.00  0.00     0.017 A 
HETATM   13  C13 UNL     1      26.769   1.622  52.578  1.00  0.00     0.130 A 
HETATM   14  C11 UNL     1      28.383   0.638  54.475  1.00  0.00     0.020 A 
HETATM   15  C12 UNL     1      28.917   1.538  53.587  1.00  0.00     0.116 A 
HETATM   16  N4  UNL     1      28.067   2.009  52.646  1.00  0.00    -0.272 NA
ENDBRANCH   3   5
ENDBRANCH   2   3
BRANCH   2  17
HETATM   17  C14 UNL     1      22.494   2.947  49.723  1.00  0.00    -0.031 A 
HETATM   18  C15 UNL     1      23.040   2.534  48.532  1.00  0.00    -0.013 A 
HETATM   19  C16 UNL     1      22.301   3.788  48.565  1.00  0.00     0.068 A 
ENDBRANCH   2  17
BRANCH   1  20
HETATM   20  C2  UNL     1      23.244   4.620  52.258  1.00  0.00     0.152 C 
BRANCH  20  21
HETATM   21  N1  UNL     1      24.462   4.730  51.473  1.00  0.00    -0.353 N 
HETATM   22  C1  UNL     1      24.653   5.733  50.485  1.00  0.00     0.251 C 
HETATM   23  O1  UNL     1      23.765   6.576  50.247  1.00  0.00    -0.268 OA
HETATM   24  H1  UNL     1      25.214   4.032  51.661  1.00  0.00     0.163 HD
BRANCH  22  25
HETATM   25  C17 UNL     1      25.880   5.834  49.702  1.00  0.00     0.032 A 
HETATM   26  C18 UNL     1      26.331   7.083  49.334  1.00  0.00     0.017 A 
HETATM   27  C19 UNL     1      27.492   7.211  48.590  1.00  0.00     0.001 A 
HETATM   28  C20 UNL     1      28.241   6.100  48.192  1.00  0.00     0.000 A 
HETATM   29  C21 UNL     1      27.791   4.837  48.561  1.00  0.00     0.001 A 
HETATM   30  C22 UNL     1      26.629   4.758  49.301  1.00  0.00     0.017 A 
ENDBRANCH  22  25
ENDBRANCH  20  21
ENDBRANCH   1  20
TORSDOF 6
ENDMDL
MODEL 6
REMARK VINA RESULT:      -8.2      2.016      4.901
REMARK  6 active torsions:
REMARK  status: ('A' for Active; 'I' for Inactive)
REMARK       I    between atoms: C1_2  and  N1_3 
REMARK    1  A    between atoms: C1_2  and  C17_23 
REMARK    2  A    between atoms: N1_3  and  C2_4 
REMARK    3  A    between atoms: C2_4  and  C3_5 
REMARK    4  A    between atoms: C4_6  and  N2_7 
REMARK    5  A    between atoms: C4_6  and  C14_20 
REMARK    6  A    between atoms: N2_7  and  C5_8 
ROOT
HETATM    1  C3  UNL     1      24.514   3.096  49.773  1.00  0.00     0.023 C 
HETATM    2  C4  UNL     1      23.201   3.269  49.667  1.00  0.00     0.053 C 
ENDROOT
BRANCH   2   3
HETATM    3  N2  UNL     1      22.328   2.554  48.764  1.00  0.00    -0.188 N 
HETATM    4  H5  UNL     1      22.239   2.498  47.733  1.00  0.00     0.184 HD
BRANCH   3   5
HETATM    5  C5  UNL     1      21.479   1.829  49.647  1.00  0.00     0.727 A 
HETATM    6  N3  UNL     1      20.171   1.763  49.367  1.00  0.00    -0.075 NA
HETATM    7  C6  UNL     1      19.299   1.086  50.170  1.00  0.00     0.139 A 
HETATM    8  C7  UNL     1      19.856   0.478  51.284  1.00  0.00     0.053 A 
HETATM    9  C8  UNL     1      21.198   0.529  51.598  1.00  0.00     0.089 A 
HETATM   10  C9  UNL     1      21.744  -0.117  52.772  1.00  0.00     0.011 A 
HETATM   11  N5  UNL     1      21.978   1.219  50.748  1.00  0.00    -0.062 NA
HETATM   12  C10 UNL     1      21.003  -0.838  53.681  1.00  0.00     0.017 A 
HETATM   13  C13 UNL     1      23.092  -0.028  53.037  1.00  0.00     0.130 A 
HETATM   14  C11 UNL     1      21.612  -1.422  54.780  1.00  0.00     0.020 A 
HETATM   15  C12 UNL     1      22.957  -1.320  55.025  1.00  0.00     0.116 A 
HETATM   16  N4  UNL     1      23.667  -0.607  54.120  1.00  0.00    -0.272 NA
ENDBRANCH   3   5
ENDBRANCH   2   3
BRANCH   2  17
HETATM   17  C14 UNL     1      22.453   4.250  50.485  1.00  0.00    -0.031 A 
HETATM   18  C15 UNL     1      21.845   5.471  50.316  1.00  0.00    -0.013 A 
HETATM   19  C16 UNL     1      21.817   4.853  51.634  1.00  0.00     0.068 A 
ENDBRANCH   2  17
BRANCH   1  20
HETATM   20  C2  UNL     1      25.535   3.739  50.634  1.00  0.00     0.152 C 
BRANCH  20  21
HETATM   21  N1  UNL     1      26.472   2.719  51.074  1.00  0.00    -0.353 N 
HETATM   22  C1  UNL     1      26.389   2.098  52.349  1.00  0.00     0.251 C 
HETATM   23  O1  UNL     1      25.492   2.410  53.158  1.00  0.00    -0.268 OA
HETATM   24  H1  UNL     1      27.228   2.446  50.409  1.00  0.00     0.163 HD
BRANCH  22  25
HETATM   25  C17 UNL     1      27.335   1.075  52.783  1.00  0.00     0.032 A 
HETATM   26  C18 UNL     1      28.498   1.468  53.409  1.00  0.00     0.017 A 
HETATM   27  C19 UNL     1      29.415   0.521  53.831  1.00  0.00     0.001 A 
HETATM   28  C20 UNL     1      29.202  -0.848  53.645  1.00  0.00     0.000 A 
HETATM   29  C21 UNL     1      28.030  -1.252  53.014  1.00  0.00     0.001 A 
HETATM   30  C22 UNL     1      27.146  -0.272  52.610  1.00  0.00     0.017 A 
ENDBRANCH  22  25
ENDBRANCH  20  21
ENDBRANCH   1  20
TORSDOF 6
ENDMDL
MODEL 7
REMARK VINA RESULT:      -8.1      2.920      5.979
REMARK  6 active torsions:
REMARK  status: ('A' for Active; 'I' for Inactive)
REMARK       I    between atoms: C1_2  and  N1_3 
REMARK    1  A    between atoms: C1_2  and  C17_23 
REMARK    2  A    between atoms: N1_3  and  C2_4 
REMARK    3  A    between atoms: C2_4  and  C3_5 
REMARK    4  A    between atoms: C4_6  and  N2_7 
REMARK    5  A    between atoms: C4_6  and  C14_20 
REMARK    6  A    between atoms: N2_7  and  C5_8 
ROOT
HETATM    1  C3  UNL     1      23.004   2.784  52.099  1.00  0.00     0.023 C 
HETATM    2  C4  UNL     1      21.795   2.334  51.785  1.00  0.00     0.053 C 
ENDROOT
BRANCH   2   3
HETATM    3  N2  UNL     1      20.622   2.412  52.626  1.00  0.00    -0.188 N 
HETATM    4  H5  UNL     1      19.953   3.166  52.871  1.00  0.00     0.184 HD
BRANCH   3   5
HETATM    5  C5  UNL     1      20.511   1.091  53.144  1.00  0.00     0.727 A 
HETATM    6  N3  UNL     1      21.541   0.589  53.838  1.00  0.00    -0.075 NA
HETATM    7  C6  UNL     1      21.505  -0.671  54.363  1.00  0.00     0.139 A 
HETATM    8  C7  UNL     1      20.340  -1.386  54.131  1.00  0.00     0.053 A 
HETATM    9  C8  UNL     1      19.265  -0.896  53.420  1.00  0.00     0.089 A 
HETATM   10  C9  UNL     1      18.066  -1.672  53.195  1.00  0.00     0.011 A 
HETATM   11  N5  UNL     1      19.394   0.354  52.942  1.00  0.00    -0.062 NA
HETATM   12  C10 UNL     1      17.869  -2.954  53.656  1.00  0.00     0.017 A 
HETATM   13  C13 UNL     1      17.026  -1.131  52.474  1.00  0.00     0.130 A 
HETATM   14  C11 UNL     1      16.686  -3.624  53.391  1.00  0.00     0.020 A 
HETATM   15  C12 UNL     1      15.662  -3.066  52.669  1.00  0.00     0.116 A 
HETATM   16  N4  UNL     1      15.876  -1.805  52.226  1.00  0.00    -0.272 NA
ENDBRANCH   3   5
ENDBRANCH   2   3
BRANCH   2  17
HETATM   17  C14 UNL     1      21.495   1.674  50.493  1.00  0.00    -0.031 A 
HETATM   18  C15 UNL     1      21.446   0.399  49.983  1.00  0.00    -0.013 A 
HETATM   19  C16 UNL     1      21.137   1.516  49.103  1.00  0.00     0.068 A 
ENDBRANCH   2  17
BRANCH   1  20
HETATM   20  C2  UNL     1      24.289   2.781  51.361  1.00  0.00     0.152 C 
BRANCH  20  21
HETATM   21  N1  UNL     1      25.185   1.834  52.003  1.00  0.00    -0.353 N 
HETATM   22  C1  UNL     1      26.599   1.928  51.908  1.00  0.00     0.251 C 
HETATM   23  O1  UNL     1      27.139   2.845  51.257  1.00  0.00    -0.268 OA
HETATM   24  H1  UNL     1      24.749   1.061  52.552  1.00  0.00     0.163 HD
BRANCH  22  25
HETATM   25  C17 UNL     1      27.491   0.971  52.556  1.00  0.00     0.032 A 
HETATM   26  C18 UNL     1      27.214  -0.374  52.446  1.00  0.00     0.017 A 
HETATM   27  C19 UNL     1      28.041  -1.306  53.050  1.00  0.00     0.001 A 
HETATM   28  C20 UNL     1      29.171  -0.927  53.781  1.00  0.00     0.000 A 
HETATM   29  C21 UNL     1      29.456   0.429  53.896  1.00  0.00     0.001 A 
HETATM   30  C22 UNL     1      28.603   1.321  53.278  1.00  0.00     0.017 A 
ENDBRANCH  22  25
ENDBRANCH  20  21
ENDBRANCH   1  20
TORSDOF 6
ENDMDL
MODEL 8
REMARK VINA RESULT:      -7.9      1.933      4.887
REMARK  6 active torsions:
REMARK  status: ('A' for Active; 'I' for Inactive)
REMARK       I    between atoms: C1_2  and  N1_3 
REMARK    1  A    between atoms: C1_2  and  C17_23 
REMARK    2  A    between atoms: N1_3  and  C2_4 
REMARK    3  A    between atoms: C2_4  and  C3_5 
REMARK    4  A    between atoms: C4_6  and  N2_7 
REMARK    5  A    between atoms: C4_6  and  C14_20 
REMARK    6  A    between atoms: N2_7  and  C5_8 
ROOT
HETATM    1  C3  UNL     1      24.723   4.905  50.623  1.00  0.00     0.023 C 
HETATM    2  C4  UNL     1      23.430   4.993  50.332  1.00  0.00     0.053 C 
ENDROOT
BRANCH   2   3
HETATM    3  N2  UNL     1      22.420   5.612  51.160  1.00  0.00    -0.188 N 
HETATM    4  H5  UNL     1      22.267   6.572  51.522  1.00  0.00     0.184 HD
BRANCH   3   5
HETATM    5  C5  UNL     1      21.534   4.535  51.444  1.00  0.00     0.727 A 
HETATM    6  N3  UNL     1      20.240   4.672  51.129  1.00  0.00    -0.075 NA
HETATM    7  C6  UNL     1      19.334   3.680  51.374  1.00  0.00     0.139 A 
HETATM    8  C7  UNL     1      19.843   2.534  51.965  1.00  0.00     0.053 A 
HETATM    9  C8  UNL     1      21.170   2.365  52.301  1.00  0.00     0.089 A 
HETATM   10  C9  UNL     1      21.665   1.155  52.919  1.00  0.00     0.011 A 
HETATM   11  N5  UNL     1      21.985   3.397  52.021  1.00  0.00    -0.062 NA
HETATM   12  C10 UNL     1      20.886   0.064  53.231  1.00  0.00     0.017 A 
HETATM   13  C13 UNL     1      23.000   1.046  53.236  1.00  0.00     0.130 A 
HETATM   14  C11 UNL     1      21.446  -1.055  53.825  1.00  0.00     0.020 A 
HETATM   15  C12 UNL     1      22.780  -1.142  54.133  1.00  0.00     0.116 A 
HETATM   16  N4  UNL     1      23.528  -0.059  53.819  1.00  0.00    -0.272 NA
ENDBRANCH   3   5
ENDBRANCH   2   3
BRANCH   2  17
HETATM   17  C14 UNL     1      22.850   4.446  49.083  1.00  0.00    -0.031 A 
HETATM   18  C15 UNL     1      22.414   4.915  47.868  1.00  0.00    -0.013 A 
HETATM   19  C16 UNL     1      22.338   3.485  48.134  1.00  0.00     0.068 A 
ENDBRANCH   2  17
BRANCH   1  20
HETATM   20  C2  UNL     1      25.869   4.312  49.894  1.00  0.00     0.152 C 
BRANCH  20  21
HETATM   21  N1  UNL     1      26.682   3.569  50.842  1.00  0.00    -0.353 N 
HETATM   22  C1  UNL     1      26.299   2.302  51.356  1.00  0.00     0.251 C 
HETATM   23  O1  UNL     1      25.228   1.764  51.007  1.00  0.00    -0.268 OA
HETATM   24  H1  UNL     1      27.581   4.005  51.143  1.00  0.00     0.163 HD
BRANCH  22  25
HETATM   25  C17 UNL     1      27.123   1.564  52.308  1.00  0.00     0.032 A 
HETATM   26  C18 UNL     1      26.965   0.198  52.404  1.00  0.00     0.017 A 
HETATM   27  C19 UNL     1      27.733  -0.529  53.298  1.00  0.00     0.001 A 
HETATM   28  C20 UNL     1      28.682   0.080  54.123  1.00  0.00     0.000 A 
HETATM   29  C21 UNL     1      28.846   1.458  54.032  1.00  0.00     0.001 A 
HETATM   30  C22 UNL     1      28.059   2.141  53.127  1.00  0.00     0.017 A 
ENDBRANCH  22  25
ENDBRANCH  20  21
ENDBRANCH   1  20
TORSDOF 6
ENDMDL
MODEL 9
REMARK VINA RESULT:      -7.7      2.197      5.657
REMARK  6 active torsions:
REMARK  status: ('A' for Active; 'I' for Inactive)
REMARK       I    between atoms: C1_2  and  N1_3 
REMARK    1  A    between atoms: C1_2  and  C17_23 
REMARK    2  A    between atoms: N1_3  and  C2_4 
REMARK    3  A    between atoms: C2_4  and  C3_5 
REMARK    4  A    between atoms: C4_6  and  N2_7 
REMARK    5  A    between atoms: C4_6  and  C14_20 
REMARK    6  A    between atoms: N2_7  and  C5_8 
ROOT
HETATM    1  C3  UNL     1      24.091   3.448  52.069  1.00  0.00     0.023 C 
HETATM    2  C4  UNL     1      24.148   3.740  50.774  1.00  0.00     0.053 C 
ENDROOT
BRANCH   2   3
HETATM    3  N2  UNL     1      23.012   3.946  49.905  1.00  0.00    -0.188 N 
HETATM    4  H5  UNL     1      22.887   4.352  48.959  1.00  0.00     0.184 HD
BRANCH   3   5
HETATM    5  C5  UNL     1      21.928   3.427  50.667  1.00  0.00     0.727 A 
HETATM    6  N3  UNL     1      20.776   4.110  50.687  1.00  0.00    -0.075 NA
HETATM    7  C6  UNL     1      19.695   3.672  51.397  1.00  0.00     0.139 A 
HETATM    8  C7  UNL     1      19.872   2.484  52.088  1.00  0.00     0.053 A 
HETATM    9  C8  UNL     1      21.045   1.760  52.087  1.00  0.00     0.089 A 
HETATM   10  C9  UNL     1      21.195   0.524  52.823  1.00  0.00     0.011 A 
HETATM   11  N5  UNL     1      22.053   2.271  51.359  1.00  0.00    -0.062 NA
HETATM   12  C10 UNL     1      20.204  -0.054  53.586  1.00  0.00     0.017 A 
HETATM   13  C13 UNL     1      22.392  -0.154  52.788  1.00  0.00     0.130 A 
HETATM   14  C11 UNL     1      20.437  -1.241  54.259  1.00  0.00     0.020 A 
HETATM   15  C12 UNL     1      21.639  -1.900  54.211  1.00  0.00     0.116 A 
HETATM   16  N4  UNL     1      22.599  -1.315  53.456  1.00  0.00    -0.272 NA
ENDBRANCH   3   5
ENDBRANCH   2   3
BRANCH   2  17
HETATM   17  C14 UNL     1      25.427   3.889  50.042  1.00  0.00    -0.031 A 
HETATM   18  C15 UNL     1      26.485   3.099  49.658  1.00  0.00    -0.013 A 
HETATM   19  C16 UNL     1      26.504   4.512  49.306  1.00  0.00     0.068 A 
ENDBRANCH   2  17
BRANCH   1  20
HETATM   20  C2  UNL     1      25.145   3.209  53.082  1.00  0.00     0.152 C 
BRANCH  20  21
HETATM   21  N1  UNL     1      25.657   1.861  52.903  1.00  0.00    -0.353 N 
HETATM   22  C1  UNL     1      26.922   1.447  53.400  1.00  0.00     0.251 C 
HETATM   23  O1  UNL     1      27.659   2.239  54.021  1.00  0.00    -0.268 OA
HETATM   24  H1  UNL     1      25.052   1.186  52.386  1.00  0.00     0.163 HD
BRANCH  22  25
HETATM   25  C17 UNL     1      27.427   0.090  53.215  1.00  0.00     0.032 A 
HETATM   26  C18 UNL     1      28.722  -0.193  53.590  1.00  0.00     0.017 A 
HETATM   27  C19 UNL     1      29.230  -1.471  53.426  1.00  0.00     0.001 A 
HETATM   28  C20 UNL     1      28.463  -2.507  52.886  1.00  0.00     0.000 A 
HETATM   29  C21 UNL     1      27.155  -2.228  52.506  1.00  0.00     0.001 A 
HETATM   30  C22 UNL     1      26.692  -0.941  52.687  1.00  0.00     0.017 A 
ENDBRANCH  22  25
ENDBRANCH  20  21
ENDBRANCH   1  20
TORSDOF 6
ENDMDL
