MODEL 1
REMARK VINA RESULT:      -7.6      0.000      0.000
REMARK  7 active torsions:
REMARK  status: ('A' for Active; 'I' for Inactive)
REMARK    1  A    between atoms: O1_2  and  C2_3 
REMARK    2  A    between atoms: C9_13  and  C10_14 
REMARK    3  A    between atoms: C10_14  and  C11_15 
REMARK    4  A    between atoms: C12_16  and  C13_17 
REMARK    5  A    between atoms: C12_16  and  C14_19 
REMARK    6  A    between atoms: C13_17  and  O3_18 
REMARK    7  A    between atoms: C14_19  and  O4_20 
ROOT
HETATM    1  C2  UNL     1      21.012   1.178  50.342  1.00  0.00     0.102 C 
HETATM    2  C3  UNL     1      19.837   1.463  49.810  1.00  0.00     0.172 C 
HETATM    3  O2  UNL     1      18.632   1.361  50.477  1.00  0.00    -0.356 OA
HETATM    4  C4  UNL     1      18.139   0.633  51.536  1.00  0.00     0.204 C 
HETATM    5  C5  UNL     1      19.056   0.255  52.606  1.00  0.00     0.032 C 
HETATM    6  C6  UNL     1      20.382   0.281  52.681  1.00  0.00     0.069 C 
HETATM    7  N1  UNL     1      20.502  -0.226  54.001  1.00  0.00    -0.242 NA
HETATM    8  C7  UNL     1      21.491  -0.764  54.635  1.00  0.00     0.232 C 
HETATM    9  N2  UNL     1      22.857  -1.067  54.276  1.00  0.00    -0.258 NA
HETATM   10  C8  UNL     1      23.640  -0.484  53.433  1.00  0.00     0.099 C 
HETATM   11  C9  UNL     1      23.826   0.599  52.435  1.00  0.00     0.053 C 
HETATM   12  C16 UNL     1      22.655   0.835  51.580  1.00  0.00     0.000 C 
HETATM   13  C17 UNL     1      21.342   0.711  51.679  1.00  0.00     0.025 C 
ENDROOT
BRANCH  11  14
HETATM   14  C10 UNL     1      24.194   1.913  53.099  1.00  0.00     0.041 C 
BRANCH  14  15
HETATM   15  C11 UNL     1      25.638   1.997  53.294  1.00  0.00    -0.014 C 
HETATM   16  C12 UNL     1      26.695   2.184  52.524  1.00  0.00    -0.005 C 
BRANCH  16  17
HETATM   17  C13 UNL     1      26.713   2.384  51.076  1.00  0.00     0.205 C 
BRANCH  17  18
HETATM   18  O3  UNL     1      27.096   3.618  50.629  1.00  0.00    -0.396 OA
HETATM   19  H16 UNL     1      28.008   3.625  50.231  1.00  0.00     0.209 HD
ENDBRANCH  17  18
ENDBRANCH  16  17
BRANCH  16  20
HETATM   20  C14 UNL     1      27.985   2.191  53.199  1.00  0.00     0.084 C 
HETATM   21  C15 UNL     1      28.306   1.312  54.101  1.00  0.00     0.121 C 
HETATM   22 CL1  UNL     1      27.626  -0.076  54.895  1.00  0.00    -0.094 Cl
BRANCH  20  23
HETATM   23  O4  UNL     1      28.973   3.131  52.939  1.00  0.00    -0.359 OA
HETATM   24  H17 UNL     1      28.914   4.092  53.295  1.00  0.00     0.217 HD
ENDBRANCH  20  23
ENDBRANCH  16  20
ENDBRANCH  14  15
ENDBRANCH  11  14
BRANCH   1  25
HETATM   25  O1  UNL     1      22.110   1.343  49.515  1.00  0.00    -0.353 OA
HETATM   26  C1  UNL     1      22.075   1.670  48.158  1.00  0.00     0.210 C 
ENDBRANCH   1  25
TORSDOF 7
ENDMDL
MODEL 2
REMARK VINA RESULT:      -7.6      2.936      4.039
REMARK  7 active torsions:
REMARK  status: ('A' for Active; 'I' for Inactive)
REMARK    1  A    between atoms: O1_2  and  C2_3 
REMARK    2  A    between atoms: C9_13  and  C10_14 
REMARK    3  A    between atoms: C10_14  and  C11_15 
REMARK    4  A    between atoms: C12_16  and  C13_17 
REMARK    5  A    between atoms: C12_16  and  C14_19 
REMARK    6  A    between atoms: C13_17  and  O3_18 
REMARK    7  A    between atoms: C14_19  and  O4_20 
ROOT
HETATM    1  C2  UNL     1      21.289   0.286  52.536  1.00  0.00     0.102 C 
HETATM    2  C3  UNL     1      20.108   0.101  51.975  1.00  0.00     0.172 C 
HETATM    3  O2  UNL     1      19.777   0.512  50.698  1.00  0.00    -0.356 OA
HETATM    4  C4  UNL     1      20.204   1.485  49.824  1.00  0.00     0.204 C 
HETATM    5  C5  UNL     1      21.602   1.896  49.869  1.00  0.00     0.032 C 
HETATM    6  C6  UNL     1      22.559   1.673  50.764  1.00  0.00     0.069 C 
HETATM    7  N1  UNL     1      23.597   2.381  50.106  1.00  0.00    -0.242 NA
HETATM    8  C7  UNL     1      24.721   2.857  50.528  1.00  0.00     0.232 C 
HETATM    9  N2  UNL     1      25.379   2.870  51.814  1.00  0.00    -0.258 NA
HETATM   10  C8  UNL     1      25.304   2.030  52.789  1.00  0.00     0.099 C 
HETATM   11  C9  UNL     1      24.722   0.771  53.319  1.00  0.00     0.053 C 
HETATM   12  C16 UNL     1      23.305   0.577  52.984  1.00  0.00     0.000 C 
HETATM   13  C17 UNL     1      22.484   0.924  52.008  1.00  0.00     0.025 C 
ENDROOT
BRANCH  11  14
HETATM   14  C10 UNL     1      25.490  -0.446  52.835  1.00  0.00     0.041 C 
BRANCH  14  15
HETATM   15  C11 UNL     1      26.895  -0.344  53.214  1.00  0.00    -0.014 C 
HETATM   16  C12 UNL     1      27.957  -1.129  53.160  1.00  0.00    -0.005 C 
BRANCH  16  17
HETATM   17  C13 UNL     1      28.027  -2.492  52.639  1.00  0.00     0.205 C 
BRANCH  17  18
HETATM   18  O3  UNL     1      28.626  -3.427  53.437  1.00  0.00    -0.396 OA
HETATM   19  H16 UNL     1      28.376  -4.361  53.202  1.00  0.00     0.209 HD
ENDBRANCH  17  18
ENDBRANCH  16  17
BRANCH  16  20
HETATM   20  C14 UNL     1      29.196  -0.566  53.681  1.00  0.00     0.084 C 
HETATM   21  C15 UNL     1      29.384   0.715  53.802  1.00  0.00     0.121 C 
HETATM   22 CL1  UNL     1      28.542   2.207  53.516  1.00  0.00    -0.094 Cl
BRANCH  20  23
HETATM   23  O4  UNL     1      30.270  -1.344  54.087  1.00  0.00    -0.359 OA
HETATM   24  H17 UNL     1      30.877  -1.066  54.867  1.00  0.00     0.217 HD
ENDBRANCH  20  23
ENDBRANCH  16  20
ENDBRANCH  14  15
ENDBRANCH  11  14
BRANCH   1  25
HETATM   25  O1  UNL     1      21.431  -0.197  53.826  1.00  0.00    -0.353 OA
HETATM   26  C1  UNL     1      20.882  -1.379  54.327  1.00  0.00     0.210 C 
ENDBRANCH   1  25
TORSDOF 7
ENDMDL
MODEL 3
REMARK VINA RESULT:      -7.4      2.727      3.667
REMARK  7 active torsions:
REMARK  status: ('A' for Active; 'I' for Inactive)
REMARK    1  A    between atoms: O1_2  and  C2_3 
REMARK    2  A    between atoms: C9_13  and  C10_14 
REMARK    3  A    between atoms: C10_14  and  C11_15 
REMARK    4  A    between atoms: C12_16  and  C13_17 
REMARK    5  A    between atoms: C12_16  and  C14_19 
REMARK    6  A    between atoms: C13_17  and  O3_18 
REMARK    7  A    between atoms: C14_19  and  O4_20 
ROOT
HETATM    1  C2  UNL     1      24.292   3.049  51.296  1.00  0.00     0.102 C 
HETATM    2  C3  UNL     1      24.109   4.313  50.959  1.00  0.00     0.172 C 
HETATM    3  O2  UNL     1      22.997   5.059  51.298  1.00  0.00    -0.356 OA
HETATM    4  C4  UNL     1      21.683   4.800  51.610  1.00  0.00     0.204 C 
HETATM    5  C5  UNL     1      21.361   3.545  52.280  1.00  0.00     0.032 C 
HETATM    6  C6  UNL     1      22.075   2.442  52.476  1.00  0.00     0.069 C 
HETATM    7  N1  UNL     1      21.090   1.706  53.184  1.00  0.00    -0.242 NA
HETATM    8  C7  UNL     1      20.958   0.444  53.423  1.00  0.00     0.232 C 
HETATM    9  N2  UNL     1      21.739  -0.722  53.080  1.00  0.00    -0.258 NA
HETATM   10  C8  UNL     1      23.006  -0.837  52.869  1.00  0.00     0.099 C 
HETATM   11  C9  UNL     1      24.332  -0.171  52.800  1.00  0.00     0.053 C 
HETATM   12  C16 UNL     1      24.303   1.161  52.183  1.00  0.00     0.000 C 
HETATM   13  C17 UNL     1      23.439   2.155  52.062  1.00  0.00     0.025 C 
ENDROOT
BRANCH  11  14
HETATM   14  C10 UNL     1      24.962  -0.039  54.174  1.00  0.00     0.041 C 
BRANCH  14  15
HETATM   15  C11 UNL     1      26.417  -0.020  54.067  1.00  0.00    -0.014 C 
HETATM   16  C12 UNL     1      27.341  -0.762  53.482  1.00  0.00    -0.005 C 
BRANCH  16  17
HETATM   17  C13 UNL     1      27.134  -1.964  52.678  1.00  0.00     0.205 C 
BRANCH  17  18
HETATM   18  O3  UNL     1      27.921  -3.044  52.971  1.00  0.00    -0.396 OA
HETATM   19  H16 UNL     1      28.439  -2.933  53.813  1.00  0.00     0.209 HD
ENDBRANCH  17  18
ENDBRANCH  16  17
BRANCH  16  20
HETATM   20  C14 UNL     1      28.719  -0.328  53.665  1.00  0.00     0.084 C 
HETATM   21  C15 UNL     1      29.071   0.922  53.614  1.00  0.00     0.121 C 
HETATM   22 CL1  UNL     1      28.356   2.487  53.368  1.00  0.00    -0.094 Cl
BRANCH  20  23
HETATM   23  O4  UNL     1      29.765  -1.208  53.907  1.00  0.00    -0.359 OA
HETATM   24  H17 UNL     1      30.741  -0.957  53.712  1.00  0.00     0.217 HD
ENDBRANCH  20  23
ENDBRANCH  16  20
ENDBRANCH  14  15
ENDBRANCH  11  14
BRANCH   1  25
HETATM   25  O1  UNL     1      25.472   2.469  50.862  1.00  0.00    -0.353 OA
HETATM   26  C1  UNL     1      26.458   3.089  50.093  1.00  0.00     0.210 C 
ENDBRANCH   1  25
TORSDOF 7
ENDMDL
MODEL 4
REMARK VINA RESULT:      -7.3      2.656      3.736
REMARK  7 active torsions:
REMARK  status: ('A' for Active; 'I' for Inactive)
REMARK    1  A    between atoms: O1_2  and  C2_3 
REMARK    2  A    between atoms: C9_13  and  C10_14 
REMARK    3  A    between atoms: C10_14  and  C11_15 
REMARK    4  A    between atoms: C12_16  and  C13_17 
REMARK    5  A    between atoms: C12_16  and  C14_19 
REMARK    6  A    between atoms: C13_17  and  O3_18 
REMARK    7  A    between atoms: C14_19  and  O4_20 
ROOT
HETATM    1  C2  UNL     1      21.881   0.177  53.359  1.00  0.00     0.102 C 
HETATM    2  C3  UNL     1      20.852  -0.629  53.163  1.00  0.00     0.172 C 
HETATM    3  O2  UNL     1      19.848  -0.404  52.241  1.00  0.00    -0.356 OA
HETATM    4  C4  UNL     1      19.296   0.692  51.619  1.00  0.00     0.204 C 
HETATM    5  C5  UNL     1      20.150   1.843  51.351  1.00  0.00     0.032 C 
HETATM    6  C6  UNL     1      21.362   2.164  51.792  1.00  0.00     0.069 C 
HETATM    7  N1  UNL     1      21.494   3.392  51.093  1.00  0.00    -0.242 NA
HETATM    8  C7  UNL     1      22.271   4.409  51.270  1.00  0.00     0.232 C 
HETATM    9  N2  UNL     1      23.307   4.716  52.228  1.00  0.00    -0.258 NA
HETATM   10  C8  UNL     1      24.098   3.928  52.874  1.00  0.00     0.099 C 
HETATM   11  C9  UNL     1      24.532   2.535  53.148  1.00  0.00     0.053 C 
HETATM   12  C16 UNL     1      23.429   1.568  53.226  1.00  0.00     0.000 C 
HETATM   13  C17 UNL     1      22.221   1.431  52.707  1.00  0.00     0.025 C 
ENDROOT
BRANCH  11  14
HETATM   14  C10 UNL     1      25.516   2.042  52.104  1.00  0.00     0.041 C 
BRANCH  14  15
HETATM   15  C11 UNL     1      26.833   1.842  52.700  1.00  0.00    -0.014 C 
HETATM   16  C12 UNL     1      27.321   1.185  53.737  1.00  0.00    -0.005 C 
BRANCH  16  17
HETATM   17  C13 UNL     1      26.581   0.371  54.699  1.00  0.00     0.205 C 
BRANCH  17  18
HETATM   18  O3  UNL     1      25.997  -0.769  54.220  1.00  0.00    -0.396 OA
HETATM   19  H16 UNL     1      25.152  -1.003  54.691  1.00  0.00     0.209 HD
ENDBRANCH  17  18
ENDBRANCH  16  17
BRANCH  16  20
HETATM   20  C14 UNL     1      28.760   1.288  53.939  1.00  0.00     0.084 C 
HETATM   21  C15 UNL     1      29.564   0.282  53.762  1.00  0.00     0.121 C 
HETATM   22 CL1  UNL     1      29.505  -1.390  53.296  1.00  0.00    -0.094 Cl
BRANCH  20  23
HETATM   23  O4  UNL     1      29.388   2.460  54.336  1.00  0.00    -0.359 OA
HETATM   24  H17 UNL     1      28.865   3.243  54.745  1.00  0.00     0.217 HD
ENDBRANCH  20  23
ENDBRANCH  16  20
ENDBRANCH  14  15
ENDBRANCH  11  14
BRANCH   1  25
HETATM   25  O1  UNL     1      22.786  -0.218  54.330  1.00  0.00    -0.353 OA
HETATM   26  C1  UNL     1      22.644  -1.308  55.191  1.00  0.00     0.210 C 
ENDBRANCH   1  25
TORSDOF 7
ENDMDL
MODEL 5
REMARK VINA RESULT:      -7.2      2.732      3.780
REMARK  7 active torsions:
REMARK  status: ('A' for Active; 'I' for Inactive)
REMARK    1  A    between atoms: O1_2  and  C2_3 
REMARK    2  A    between atoms: C9_13  and  C10_14 
REMARK    3  A    between atoms: C10_14  and  C11_15 
REMARK    4  A    between atoms: C12_16  and  C13_17 
REMARK    5  A    between atoms: C12_16  and  C14_19 
REMARK    6  A    between atoms: C13_17  and  O3_18 
REMARK    7  A    between atoms: C14_19  and  O4_20 
ROOT
HETATM    1  C2  UNL     1      21.748   0.379  51.869  1.00  0.00     0.102 C 
HETATM    2  C3  UNL     1      20.443   0.181  51.820  1.00  0.00     0.172 C 
HETATM    3  O2  UNL     1      19.700  -0.387  52.836  1.00  0.00    -0.356 OA
HETATM    4  C4  UNL     1      19.939  -1.251  53.880  1.00  0.00     0.204 C 
HETATM    5  C5  UNL     1      21.257  -1.240  54.505  1.00  0.00     0.032 C 
HETATM    6  C6  UNL     1      22.408  -0.695  54.125  1.00  0.00     0.069 C 
HETATM    7  N1  UNL     1      23.186  -1.116  55.234  1.00  0.00    -0.242 NA
HETATM    8  C7  UNL     1      24.463  -1.222  55.404  1.00  0.00     0.232 C 
HETATM    9  N2  UNL     1      25.606  -0.965  54.560  1.00  0.00    -0.258 NA
HETATM   10  C8  UNL     1      25.748  -0.121  53.595  1.00  0.00     0.099 C 
HETATM   11  C9  UNL     1      25.141   0.949  52.764  1.00  0.00     0.053 C 
HETATM   12  C16 UNL     1      23.737   0.707  52.405  1.00  0.00     0.000 C 
HETATM   13  C17 UNL     1      22.698   0.078  52.928  1.00  0.00     0.025 C 
ENDROOT
BRANCH  11  14
HETATM   14  C10 UNL     1      25.225   2.301  53.447  1.00  0.00     0.041 C 
BRANCH  14  15
HETATM   15  C11 UNL     1      24.239   3.218  52.884  1.00  0.00    -0.014 C 
HETATM   16  C12 UNL     1      24.061   3.836  51.730  1.00  0.00    -0.005 C 
BRANCH  16  17
HETATM   17  C13 UNL     1      24.912   3.763  50.544  1.00  0.00     0.205 C 
BRANCH  17  18
HETATM   18  O3  UNL     1      26.151   4.331  50.640  1.00  0.00    -0.396 OA
HETATM   19  H16 UNL     1      26.817   3.745  51.090  1.00  0.00     0.209 HD
ENDBRANCH  17  18
ENDBRANCH  16  17
BRANCH  16  20
HETATM   20  C14 UNL     1      22.881   4.685  51.635  1.00  0.00     0.084 C 
HETATM   21  C15 UNL     1      22.957   5.961  51.400  1.00  0.00     0.121 C 
HETATM   22 CL1  UNL     1      24.157   7.185  51.117  1.00  0.00    -0.094 Cl
BRANCH  20  23
HETATM   23  O4  UNL     1      21.588   4.206  51.788  1.00  0.00    -0.359 OA
HETATM   24  H17 UNL     1      20.788   4.836  51.918  1.00  0.00     0.217 HD
ENDBRANCH  20  23
ENDBRANCH  16  20
ENDBRANCH  14  15
ENDBRANCH  11  14
BRANCH   1  25
HETATM   25  O1  UNL     1      22.317   0.962  50.750  1.00  0.00    -0.353 OA
HETATM   26  C1  UNL     1      21.651   1.301  49.571  1.00  0.00     0.210 C 
ENDBRANCH   1  25
TORSDOF 7
ENDMDL
MODEL 6
REMARK VINA RESULT:      -7.2      4.309      6.820
REMARK  7 active torsions:
REMARK  status: ('A' for Active; 'I' for Inactive)
REMARK    1  A    between atoms: O1_2  and  C2_3 
REMARK    2  A    between atoms: C9_13  and  C10_14 
REMARK    3  A    between atoms: C10_14  and  C11_15 
REMARK    4  A    between atoms: C12_16  and  C13_17 
REMARK    5  A    between atoms: C12_16  and  C14_19 
REMARK    6  A    between atoms: C13_17  and  O3_18 
REMARK    7  A    between atoms: C14_19  and  O4_20 
ROOT
HETATM    1  C2  UNL     1      24.725  -0.026  53.439  1.00  0.00     0.102 C 
HETATM    2  C3  UNL     1      25.466  -0.741  54.266  1.00  0.00     0.172 C 
HETATM    3  O2  UNL     1      26.820  -0.555  54.462  1.00  0.00    -0.356 OA
HETATM    4  C4  UNL     1      27.869  -0.039  53.736  1.00  0.00     0.204 C 
HETATM    5  C5  UNL     1      27.597   1.040  52.792  1.00  0.00     0.032 C 
HETATM    6  C6  UNL     1      26.458   1.514  52.299  1.00  0.00     0.069 C 
HETATM    7  N1  UNL     1      27.019   2.525  51.476  1.00  0.00    -0.242 NA
HETATM    8  C7  UNL     1      26.547   3.181  50.469  1.00  0.00     0.232 C 
HETATM    9  N2  UNL     1      25.281   3.165  49.774  1.00  0.00    -0.258 NA
HETATM   10  C8  UNL     1      24.102   2.872  50.208  1.00  0.00     0.099 C 
HETATM   11  C9  UNL     1      23.256   2.448  51.352  1.00  0.00     0.053 C 
HETATM   12  C16 UNL     1      23.875   1.431  52.212  1.00  0.00     0.000 C 
HETATM   13  C17 UNL     1      25.098   1.078  52.570  1.00  0.00     0.025 C 
ENDROOT
BRANCH  11  14
HETATM   14  C10 UNL     1      22.866   3.627  52.225  1.00  0.00     0.041 C 
BRANCH  14  15
HETATM   15  C11 UNL     1      22.377   4.729  51.403  1.00  0.00    -0.014 C 
HETATM   16  C12 UNL     1      22.824   5.917  51.037  1.00  0.00    -0.005 C 
BRANCH  16  17
HETATM   17  C13 UNL     1      24.096   6.537  51.400  1.00  0.00     0.205 C 
BRANCH  17  18
HETATM   18  O3  UNL     1      24.106   7.899  51.521  1.00  0.00    -0.396 OA
HETATM   19  H16 UNL     1      24.012   8.209  52.462  1.00  0.00     0.209 HD
ENDBRANCH  17  18
ENDBRANCH  16  17
BRANCH  16  20
HETATM   20  C14 UNL     1      21.944   6.692  50.173  1.00  0.00     0.084 C 
HETATM   21  C15 UNL     1      21.812   6.442  48.904  1.00  0.00     0.121 C 
HETATM   22 CL1  UNL     1      22.413   5.337  47.706  1.00  0.00    -0.094 Cl
BRANCH  20  23
HETATM   23  O4  UNL     1      21.178   7.756  50.630  1.00  0.00    -0.359 OA
HETATM   24  H17 UNL     1      21.331   8.177  51.553  1.00  0.00     0.217 HD
ENDBRANCH  20  23
ENDBRANCH  16  20
ENDBRANCH  14  15
ENDBRANCH  11  14
BRANCH   1  25
HETATM   25  O1  UNL     1      23.383  -0.363  53.379  1.00  0.00    -0.353 OA
HETATM   26  C1  UNL     1      22.635  -0.948  54.402  1.00  0.00     0.210 C 
ENDBRANCH   1  25
TORSDOF 7
ENDMDL
MODEL 7
REMARK VINA RESULT:      -7.2      3.344      7.511
REMARK  7 active torsions:
REMARK  status: ('A' for Active; 'I' for Inactive)
REMARK    1  A    between atoms: O1_2  and  C2_3 
REMARK    2  A    between atoms: C9_13  and  C10_14 
REMARK    3  A    between atoms: C10_14  and  C11_15 
REMARK    4  A    between atoms: C12_16  and  C13_17 
REMARK    5  A    between atoms: C12_16  and  C14_19 
REMARK    6  A    between atoms: C13_17  and  O3_18 
REMARK    7  A    between atoms: C14_19  and  O4_20 
ROOT
HETATM    1  C2  UNL     1      24.017   2.074  51.967  1.00  0.00     0.102 C 
HETATM    2  C3  UNL     1      25.259   2.257  51.555  1.00  0.00     0.172 C 
HETATM    3  O2  UNL     1      26.317   1.426  51.868  1.00  0.00    -0.356 OA
HETATM    4  C4  UNL     1      26.628   0.551  52.883  1.00  0.00     0.204 C 
HETATM    5  C5  UNL     1      25.541  -0.160  53.546  1.00  0.00     0.032 C 
HETATM    6  C6  UNL     1      24.225   0.022  53.524  1.00  0.00     0.069 C 
HETATM    7  N1  UNL     1      23.876  -1.041  54.396  1.00  0.00    -0.242 NA
HETATM    8  C7  UNL     1      22.808  -1.282  55.082  1.00  0.00     0.232 C 
HETATM    9  N2  UNL     1      21.551  -0.590  55.245  1.00  0.00    -0.258 NA
HETATM   10  C8  UNL     1      20.920   0.183  54.428  1.00  0.00     0.099 C 
HETATM   11  C9  UNL     1      20.882   0.838  53.096  1.00  0.00     0.053 C 
HETATM   12  C16 UNL     1      22.184   1.339  52.636  1.00  0.00     0.000 C 
HETATM   13  C17 UNL     1      23.457   1.024  52.803  1.00  0.00     0.025 C 
ENDROOT
BRANCH  11  14
HETATM   14  C10 UNL     1      20.335  -0.095  52.032  1.00  0.00     0.041 C 
BRANCH  14  15
HETATM   15  C11 UNL     1      18.878  -0.131  52.086  1.00  0.00    -0.014 C 
HETATM   16  C12 UNL     1      17.962  -0.904  52.641  1.00  0.00    -0.005 C 
BRANCH  16  17
HETATM   17  C13 UNL     1      18.184  -2.093  53.462  1.00  0.00     0.205 C 
BRANCH  17  18
HETATM   18  O3  UNL     1      17.087  -2.855  53.752  1.00  0.00    -0.396 OA
HETATM   19  H16 UNL     1      16.228  -2.408  53.523  1.00  0.00     0.209 HD
ENDBRANCH  17  18
ENDBRANCH  16  17
BRANCH  16  20
HETATM   20  C14 UNL     1      16.575  -0.524  52.405  1.00  0.00     0.084 C 
HETATM   21  C15 UNL     1      16.081  -0.391  51.211  1.00  0.00     0.121 C 
HETATM   22 CL1  UNL     1      16.578  -0.531  49.552  1.00  0.00    -0.094 Cl
BRANCH  20  23
HETATM   23  O4  UNL     1      15.673  -0.275  53.430  1.00  0.00    -0.359 OA
HETATM   24  H17 UNL     1      15.526   0.669  53.805  1.00  0.00     0.217 HD
ENDBRANCH  20  23
ENDBRANCH  16  20
ENDBRANCH  14  15
ENDBRANCH  11  14
BRANCH   1  25
HETATM   25  O1  UNL     1      23.093   3.016  51.549  1.00  0.00    -0.353 OA
HETATM   26  C1  UNL     1      23.370   4.335  51.186  1.00  0.00     0.210 C 
ENDBRANCH   1  25
TORSDOF 7
ENDMDL
MODEL 8
REMARK VINA RESULT:      -7.2      3.617      5.157
REMARK  7 active torsions:
REMARK  status: ('A' for Active; 'I' for Inactive)
REMARK    1  A    between atoms: O1_2  and  C2_3 
REMARK    2  A    between atoms: C9_13  and  C10_14 
REMARK    3  A    between atoms: C10_14  and  C11_15 
REMARK    4  A    between atoms: C12_16  and  C13_17 
REMARK    5  A    between atoms: C12_16  and  C14_19 
REMARK    6  A    between atoms: C13_17  and  O3_18 
REMARK    7  A    between atoms: C14_19  and  O4_20 
ROOT
HETATM    1  C2  UNL     1      24.415   1.241  53.086  1.00  0.00     0.102 C 
HETATM    2  C3  UNL     1      24.721   0.017  53.477  1.00  0.00     0.172 C 
HETATM    3  O2  UNL     1      23.822  -1.029  53.548  1.00  0.00    -0.356 OA
HETATM    4  C4  UNL     1      22.462  -1.162  53.704  1.00  0.00     0.204 C 
HETATM    5  C5  UNL     1      21.595  -0.117  53.173  1.00  0.00     0.032 C 
HETATM    6  C6  UNL     1      21.859   1.109  52.734  1.00  0.00     0.069 C 
HETATM    7  N1  UNL     1      20.529   1.476  52.401  1.00  0.00    -0.242 NA
HETATM    8  C7  UNL     1      19.972   2.626  52.209  1.00  0.00     0.232 C 
HETATM    9  N2  UNL     1      20.454   3.987  52.251  1.00  0.00    -0.258 NA
HETATM   10  C8  UNL     1      21.631   4.455  52.013  1.00  0.00     0.099 C 
HETATM   11  C9  UNL     1      23.038   4.177  51.629  1.00  0.00     0.053 C 
HETATM   12  C16 UNL     1      23.595   2.958  52.231  1.00  0.00     0.000 C 
HETATM   13  C17 UNL     1      23.140   1.790  52.651  1.00  0.00     0.025 C 
ENDROOT
BRANCH  11  14
HETATM   14  C10 UNL     1      23.195   4.071  50.123  1.00  0.00     0.041 C 
BRANCH  14  15
HETATM   15  C11 UNL     1      24.298   4.909  49.666  1.00  0.00    -0.014 C 
HETATM   16  C12 UNL     1      25.593   4.752  49.459  1.00  0.00    -0.005 C 
BRANCH  16  17
HETATM   17  C13 UNL     1      26.382   3.538  49.659  1.00  0.00     0.205 C 
BRANCH  17  18
HETATM   18  O3  UNL     1      27.151   3.482  50.788  1.00  0.00    -0.396 OA
HETATM   19  H16 UNL     1      27.455   4.377  51.100  1.00  0.00     0.209 HD
ENDBRANCH  17  18
ENDBRANCH  16  17
BRANCH  16  20
HETATM   20  C14 UNL     1      26.311   5.925  48.979  1.00  0.00     0.084 C 
HETATM   21  C15 UNL     1      25.756   6.820  48.218  1.00  0.00     0.121 C 
HETATM   22 CL1  UNL     1      24.226   7.149  47.464  1.00  0.00    -0.094 Cl
BRANCH  20  23
HETATM   23  O4  UNL     1      27.638   6.182  49.293  1.00  0.00    -0.359 OA
HETATM   24  H17 UNL     1      28.282   5.436  49.580  1.00  0.00     0.217 HD
ENDBRANCH  20  23
ENDBRANCH  16  20
ENDBRANCH  14  15
ENDBRANCH  11  14
BRANCH   1  25
HETATM   25  O1  UNL     1      25.454   2.156  53.081  1.00  0.00    -0.353 OA
HETATM   26  C1  UNL     1      26.669   2.024  53.756  1.00  0.00     0.210 C 
ENDBRANCH   1  25
TORSDOF 7
ENDMDL
MODEL 9
REMARK VINA RESULT:      -7.1      3.382      4.965
REMARK  7 active torsions:
REMARK  status: ('A' for Active; 'I' for Inactive)
REMARK    1  A    between atoms: O1_2  and  C2_3 
REMARK    2  A    between atoms: C9_13  and  C10_14 
REMARK    3  A    between atoms: C10_14  and  C11_15 
REMARK    4  A    between atoms: C12_16  and  C13_17 
REMARK    5  A    between atoms: C12_16  and  C14_19 
REMARK    6  A    between atoms: C13_17  and  O3_18 
REMARK    7  A    between atoms: C14_19  and  O4_20 
ROOT
HETATM    1  C2  UNL     1      25.215   5.332  50.098  1.00  0.00     0.102 C 
HETATM    2  C3  UNL     1      25.340   6.550  49.602  1.00  0.00     0.172 C 
HETATM    3  O2  UNL     1      24.411   7.559  49.764  1.00  0.00    -0.356 OA
HETATM    4  C4  UNL     1      23.058   7.637  50.001  1.00  0.00     0.204 C 
HETATM    5  C5  UNL     1      22.428   6.581  50.787  1.00  0.00     0.032 C 
HETATM    6  C6  UNL     1      22.863   5.384  51.165  1.00  0.00     0.069 C 
HETATM    7  N1  UNL     1      21.702   4.982  51.875  1.00  0.00    -0.242 NA
HETATM    8  C7  UNL     1      21.276   3.821  52.250  1.00  0.00     0.232 C 
HETATM    9  N2  UNL     1      21.789   2.478  52.108  1.00  0.00    -0.258 NA
HETATM   10  C8  UNL     1      23.006   2.063  52.011  1.00  0.00     0.099 C 
HETATM   11  C9  UNL     1      24.450   2.407  51.967  1.00  0.00     0.053 C 
HETATM   12  C16 UNL     1      24.754   3.621  51.198  1.00  0.00     0.000 C 
HETATM   13  C17 UNL     1      24.145   4.754  50.895  1.00  0.00     0.025 C 
ENDROOT
BRANCH  11  14
HETATM   14  C10 UNL     1      25.024   2.578  53.361  1.00  0.00     0.041 C 
BRANCH  14  15
HETATM   15  C11 UNL     1      25.967   1.505  53.658  1.00  0.00    -0.014 C 
HETATM   16  C12 UNL     1      27.282   1.376  53.704  1.00  0.00    -0.005 C 
BRANCH  16  17
HETATM   17  C13 UNL     1      28.284   2.405  53.435  1.00  0.00     0.205 C 
BRANCH  17  18
HETATM   18  O3  UNL     1      29.319   2.503  54.323  1.00  0.00    -0.396 OA
HETATM   19  H16 UNL     1      29.203   3.241  54.980  1.00  0.00     0.209 HD
ENDBRANCH  17  18
ENDBRANCH  16  17
BRANCH  16  20
HETATM   20  C14 UNL     1      27.782   0.056  54.063  1.00  0.00     0.084 C 
HETATM   21  C15 UNL     1      27.492  -1.011  53.379  1.00  0.00     0.121 C 
HETATM   22 CL1  UNL     1      26.578  -1.473  51.976  1.00  0.00    -0.094 Cl
BRANCH  20  23
HETATM   23  O4  UNL     1      28.605  -0.171  55.158  1.00  0.00    -0.359 OA
HETATM   24  H17 UNL     1      28.310   0.058  56.113  1.00  0.00     0.217 HD
ENDBRANCH  20  23
ENDBRANCH  16  20
ENDBRANCH  14  15
ENDBRANCH  11  14
BRANCH   1  25
HETATM   25  O1  UNL     1      26.253   4.456  49.828  1.00  0.00    -0.353 OA
HETATM   26  C1  UNL     1      27.297   4.671  48.927  1.00  0.00     0.210 C 
ENDBRANCH   1  25
TORSDOF 7
ENDMDL
