MODEL 1
REMARK VINA RESULT:      -8.4      0.000      0.000
REMARK  8 active torsions:
REMARK  status: ('A' for Active; 'I' for Inactive)
REMARK    1  A    between atoms: C2_2  and  N5_22 
REMARK    2  A    between atoms: C3_3  and  C4_5 
REMARK    3  A    between atoms: C9_12  and  N3_13 
REMARK    4  A    between atoms: N3_13  and  C10_14 
REMARK    5  A    between atoms: N5_22  and  C18_24 
REMARK    6  A    between atoms: C19_26  and  C20_27 
REMARK    7  A    between atoms: C20_27  and  C21_28 
REMARK    8  A    between atoms: C21_28  and  N6_29 
ROOT
HETATM    1  C4  UNL     1      26.847   2.131  51.043  1.00  0.00     0.096 C 
HETATM    2  C5  UNL     1      25.685   2.800  51.027  1.00  0.00     0.157 C 
HETATM    3  N1  UNL     1      24.687   2.354  51.937  1.00  0.00    -0.206 NA
HETATM    4  C6  UNL     1      23.832   2.922  52.705  1.00  0.00     0.199 C 
HETATM    5  N2  UNL     1      23.867   4.190  52.944  1.00  0.00    -0.238 NA
HETATM    6  C7  UNL     1      23.581   5.335  52.109  1.00  0.00     0.123 C 
HETATM    7  C8  UNL     1      24.061   5.661  50.906  1.00  0.00     0.070 C 
HETATM    8  C9  UNL     1      25.019   4.992  50.025  1.00  0.00     0.131 C 
HETATM    9  N4  UNL     1      25.659   3.857  50.081  1.00  0.00    -0.212 NA
ENDROOT
BRANCH   1  10
HETATM   10  C3  UNL     1      27.149   1.002  51.914  1.00  0.00     0.142 C 
HETATM   11  C2  UNL     1      27.764   1.191  53.045  1.00  0.00     0.048 C 
HETATM   12  C1  UNL     1      28.259   2.478  53.600  1.00  0.00     0.071 C 
HETATM   13  F1  UNL     1      26.624  -0.069  51.229  1.00  0.00    -0.204 F 
BRANCH  11  14
HETATM   14  N5  UNL     1      28.049   0.118  53.926  1.00  0.00    -0.335 N 
HETATM   15  C17 UNL     1      29.235  -0.700  54.029  1.00  0.00     0.158 C 
BRANCH  14  16
HETATM   16  C18 UNL     1      26.935  -0.062  54.761  1.00  0.00     0.151 A 
HETATM   17  O1  UNL     1      26.001  -0.214  55.564  1.00  0.00    -0.323 OA
HETATM   18  C19 UNL     1      25.663  -0.262  54.096  1.00  0.00     0.211 A 
BRANCH  18  19
HETATM   19  C20 UNL     1      24.383  -0.467  54.260  1.00  0.00     0.060 C 
BRANCH  19  20
HETATM   20  C21 UNL     1      23.272  -1.208  54.877  1.00  0.00     0.279 C 
BRANCH  20  21
HETATM   21  N6  UNL     1      21.987  -0.852  54.307  1.00  0.00     0.080 N 
HETATM   22  C22 UNL     1      21.005  -1.875  54.457  1.00  0.00     0.309 C 
HETATM   23  C23 UNL     1      22.153  -0.324  52.990  1.00  0.00     0.309 C 
ENDBRANCH  20  21
ENDBRANCH  19  20
ENDBRANCH  18  19
ENDBRANCH  14  16
ENDBRANCH  11  14
ENDBRANCH   1  10
BRANCH   8  24
HETATM   24  N3  UNL     1      25.355   5.718  48.823  1.00  0.00    -0.340 N 
HETATM   25  H7  UNL     1      24.542   5.812  48.158  1.00  0.00     0.167 HD
BRANCH  24  26
HETATM   26  C10 UNL     1      26.708   6.204  48.688  1.00  0.00     0.039 A 
HETATM   27  C11 UNL     1      27.685   5.240  48.428  1.00  0.00     0.030 A 
HETATM   28  C12 UNL     1      29.003   5.683  48.293  1.00  0.00     0.002 A 
HETATM   29  C13 UNL     1      29.268   7.030  48.420  1.00  0.00     0.001 A 
HETATM   30  C14 UNL     1      28.285   7.990  48.679  1.00  0.00     0.009 A 
HETATM   31  C15 UNL     1      26.989   7.548  48.812  1.00  0.00    -0.035 A 
HETATM   32  C16 UNL     1      25.900   8.531  49.092  1.00  0.00     0.050 C 
ENDBRANCH  24  26
ENDBRANCH   8  24
TORSDOF 8
ENDMDL
MODEL 2
REMARK VINA RESULT:      -8.3      5.322      8.407
REMARK  8 active torsions:
REMARK  status: ('A' for Active; 'I' for Inactive)
REMARK    1  A    between atoms: C2_2  and  N5_22 
REMARK    2  A    between atoms: C3_3  and  C4_5 
REMARK    3  A    between atoms: C9_12  and  N3_13 
REMARK    4  A    between atoms: N3_13  and  C10_14 
REMARK    5  A    between atoms: N5_22  and  C18_24 
REMARK    6  A    between atoms: C19_26  and  C20_27 
REMARK    7  A    between atoms: C20_27  and  C21_28 
REMARK    8  A    between atoms: C21_28  and  N6_29 
ROOT
HETATM    1  C4  UNL     1      21.884   2.298  52.376  1.00  0.00     0.096 C 
HETATM    2  C5  UNL     1      23.010   2.022  51.703  1.00  0.00     0.157 C 
HETATM    3  N1  UNL     1      23.140   2.617  50.418  1.00  0.00    -0.206 NA
HETATM    4  C6  UNL     1      24.090   3.171  49.759  1.00  0.00     0.199 C 
HETATM    5  N2  UNL     1      25.212   3.484  50.314  1.00  0.00    -0.238 NA
HETATM    6  C7  UNL     1      26.299   2.671  50.814  1.00  0.00     0.123 C 
HETATM    7  C8  UNL     1      26.282   1.653  51.678  1.00  0.00     0.070 C 
HETATM    8  C9  UNL     1      25.187   1.011  52.406  1.00  0.00     0.131 C 
HETATM    9  N4  UNL     1      23.892   1.164  52.411  1.00  0.00    -0.212 NA
ENDROOT
BRANCH   1  10
HETATM   10  C3  UNL     1      20.808   3.151  51.889  1.00  0.00     0.142 C 
HETATM   11  C2  UNL     1      19.756   2.629  51.330  1.00  0.00     0.048 C 
HETATM   12  C1  UNL     1      19.490   1.188  51.076  1.00  0.00     0.071 C 
HETATM   13  F1  UNL     1      21.245   4.416  52.209  1.00  0.00    -0.204 F 
BRANCH  11  14
HETATM   14  N5  UNL     1      18.681   3.430  50.868  1.00  0.00    -0.335 N 
HETATM   15  C17 UNL     1      18.705   4.641  50.082  1.00  0.00     0.158 C 
BRANCH  14  16
HETATM   16  C18 UNL     1      17.485   2.843  51.312  1.00  0.00     0.151 A 
HETATM   17  O1  UNL     1      16.458   2.252  51.679  1.00  0.00    -0.323 OA
HETATM   18  C19 UNL     1      16.509   3.742  51.892  1.00  0.00     0.211 A 
BRANCH  18  19
HETATM   19  C20 UNL     1      15.325   3.840  52.438  1.00  0.00     0.060 C 
BRANCH  19  20
HETATM   20  C21 UNL     1      14.446   4.317  53.517  1.00  0.00     0.279 C 
BRANCH  20  21
HETATM   21  N6  UNL     1      13.050   4.023  53.262  1.00  0.00     0.080 N 
HETATM   22  C22 UNL     1      12.565   4.605  52.054  1.00  0.00     0.309 C 
HETATM   23  C23 UNL     1      12.266   4.258  54.434  1.00  0.00     0.309 C 
ENDBRANCH  20  21
ENDBRANCH  19  20
ENDBRANCH  18  19
ENDBRANCH  14  16
ENDBRANCH  11  14
ENDBRANCH   1  10
BRANCH   8  24
HETATM   24  N3  UNL     1      25.590  -0.020  53.333  1.00  0.00    -0.340 N 
HETATM   25  H7  UNL     1      24.772  -0.530  53.762  1.00  0.00     0.167 HD
BRANCH  24  26
HETATM   26  C10 UNL     1      27.004  -0.215  53.547  1.00  0.00     0.039 A 
HETATM   27  C11 UNL     1      27.646   0.747  54.331  1.00  0.00     0.030 A 
HETATM   28  C12 UNL     1      29.016   0.583  54.554  1.00  0.00     0.002 A 
HETATM   29  C13 UNL     1      29.654  -0.506  53.999  1.00  0.00     0.001 A 
HETATM   30  C14 UNL     1      29.005  -1.466  53.216  1.00  0.00     0.009 A 
HETATM   31  C15 UNL     1      27.657  -1.298  52.999  1.00  0.00    -0.035 A 
HETATM   32  C16 UNL     1      26.915  -2.294  52.169  1.00  0.00     0.050 C 
ENDBRANCH  24  26
ENDBRANCH   8  24
TORSDOF 8
ENDMDL
MODEL 3
REMARK VINA RESULT:      -8.2      4.979      8.046
REMARK  8 active torsions:
REMARK  status: ('A' for Active; 'I' for Inactive)
REMARK    1  A    between atoms: C2_2  and  N5_22 
REMARK    2  A    between atoms: C3_3  and  C4_5 
REMARK    3  A    between atoms: C9_12  and  N3_13 
REMARK    4  A    between atoms: N3_13  and  C10_14 
REMARK    5  A    between atoms: N5_22  and  C18_24 
REMARK    6  A    between atoms: C19_26  and  C20_27 
REMARK    7  A    between atoms: C20_27  and  C21_28 
REMARK    8  A    between atoms: C21_28  and  N6_29 
ROOT
HETATM    1  C4  UNL     1      22.180   2.528  52.133  1.00  0.00     0.096 C 
HETATM    2  C5  UNL     1      23.358   2.273  51.544  1.00  0.00     0.157 C 
HETATM    3  N1  UNL     1      23.444   2.561  50.154  1.00  0.00    -0.206 NA
HETATM    4  C6  UNL     1      24.325   3.080  49.381  1.00  0.00     0.199 C 
HETATM    5  N2  UNL     1      25.370   3.679  49.846  1.00  0.00    -0.238 NA
HETATM    6  C7  UNL     1      26.546   3.179  50.523  1.00  0.00     0.123 C 
HETATM    7  C8  UNL     1      26.646   2.402  51.605  1.00  0.00     0.070 C 
HETATM    8  C9  UNL     1      25.632   1.794  52.467  1.00  0.00     0.131 C 
HETATM    9  N4  UNL     1      24.329   1.748  52.436  1.00  0.00    -0.212 NA
ENDROOT
BRANCH   1  10
HETATM   10  C3  UNL     1      21.009   3.071  51.457  1.00  0.00     0.142 C 
HETATM   11  C2  UNL     1      20.097   2.275  50.980  1.00  0.00     0.048 C 
HETATM   12  C1  UNL     1      20.092   0.789  51.005  1.00  0.00     0.071 C 
HETATM   13  F1  UNL     1      21.207   4.430  51.536  1.00  0.00    -0.204 F 
BRANCH  11  14
HETATM   14  N5  UNL     1      18.934   2.774  50.340  1.00  0.00    -0.335 N 
HETATM   15  C17 UNL     1      18.578   2.769  48.940  1.00  0.00     0.158 C 
BRANCH  14  16
HETATM   16  C18 UNL     1      18.098   3.318  51.328  1.00  0.00     0.151 A 
HETATM   17  O1  UNL     1      17.420   3.852  52.220  1.00  0.00    -0.323 OA
HETATM   18  C19 UNL     1      16.782   2.726  51.449  1.00  0.00     0.211 A 
BRANCH  18  19
HETATM   19  C20 UNL     1      15.643   2.754  52.091  1.00  0.00     0.060 C 
BRANCH  19  20
HETATM   20  C21 UNL     1      14.389   2.106  52.505  1.00  0.00     0.279 C 
BRANCH  20  21
HETATM   21  N6  UNL     1      13.560   2.976  53.316  1.00  0.00     0.080 N 
HETATM   22  C22 UNL     1      12.191   2.978  52.916  1.00  0.00     0.309 C 
HETATM   23  C23 UNL     1      14.175   4.257  53.466  1.00  0.00     0.309 C 
ENDBRANCH  20  21
ENDBRANCH  19  20
ENDBRANCH  18  19
ENDBRANCH  14  16
ENDBRANCH  11  14
ENDBRANCH   1  10
BRANCH   8  24
HETATM   24  N3  UNL     1      26.148   1.083  53.612  1.00  0.00    -0.340 N 
HETATM   25  H7  UNL     1      25.840   1.501  54.530  1.00  0.00     0.167 HD
BRANCH  24  26
HETATM   26  C10 UNL     1      26.987  -0.066  53.367  1.00  0.00     0.039 A 
HETATM   27  C11 UNL     1      26.364  -1.169  52.777  1.00  0.00     0.030 A 
HETATM   28  C12 UNL     1      27.153  -2.294  52.528  1.00  0.00     0.002 A 
HETATM   29  C13 UNL     1      28.488  -2.259  52.872  1.00  0.00     0.001 A 
HETATM   30  C14 UNL     1      29.106  -1.152  53.462  1.00  0.00     0.009 A 
HETATM   31  C15 UNL     1      28.323  -0.047  53.705  1.00  0.00    -0.035 A 
HETATM   32  C16 UNL     1      28.933   1.162  54.335  1.00  0.00     0.050 C 
ENDBRANCH  24  26
ENDBRANCH   8  24
TORSDOF 8
ENDMDL
MODEL 4
REMARK VINA RESULT:      -8.2      5.273      8.530
REMARK  8 active torsions:
REMARK  status: ('A' for Active; 'I' for Inactive)
REMARK    1  A    between atoms: C2_2  and  N5_22 
REMARK    2  A    between atoms: C3_3  and  C4_5 
REMARK    3  A    between atoms: C9_12  and  N3_13 
REMARK    4  A    between atoms: N3_13  and  C10_14 
REMARK    5  A    between atoms: N5_22  and  C18_24 
REMARK    6  A    between atoms: C19_26  and  C20_27 
REMARK    7  A    between atoms: C20_27  and  C21_28 
REMARK    8  A    between atoms: C21_28  and  N6_29 
ROOT
HETATM    1  C4  UNL     1      21.766   1.183  51.369  1.00  0.00     0.096 C 
HETATM    2  C5  UNL     1      22.273   0.937  52.586  1.00  0.00     0.157 C 
HETATM    3  N1  UNL     1      21.333   0.686  53.623  1.00  0.00    -0.206 NA
HETATM    4  C6  UNL     1      21.255  -0.130  54.609  1.00  0.00     0.199 C 
HETATM    5  N2  UNL     1      22.063  -1.129  54.731  1.00  0.00    -0.238 NA
HETATM    6  C7  UNL     1      23.473  -1.195  55.044  1.00  0.00     0.123 C 
HETATM    7  C8  UNL     1      24.508  -0.570  54.475  1.00  0.00     0.070 C 
HETATM    8  C9  UNL     1      24.583   0.380  53.365  1.00  0.00     0.131 C 
HETATM    9  N4  UNL     1      23.692   0.973  52.620  1.00  0.00    -0.212 NA
ENDROOT
BRANCH   1  10
HETATM   10  C3  UNL     1      20.345   1.208  51.046  1.00  0.00     0.142 C 
HETATM   11  C2  UNL     1      19.749   2.335  50.787  1.00  0.00     0.048 C 
HETATM   12  C1  UNL     1      20.347   3.697  50.800  1.00  0.00     0.071 C 
HETATM   13  F1  UNL     1      19.992  -0.121  51.093  1.00  0.00    -0.204 F 
BRANCH  11  14
HETATM   14  N5  UNL     1      18.374   2.390  50.445  1.00  0.00    -0.335 N 
HETATM   15  C17 UNL     1      17.672   1.767  49.348  1.00  0.00     0.158 C 
BRANCH  14  16
HETATM   16  C18 UNL     1      17.726   3.197  51.393  1.00  0.00     0.151 A 
HETATM   17  O1  UNL     1      17.220   3.959  52.232  1.00  0.00    -0.323 OA
HETATM   18  C19 UNL     1      16.396   2.780  51.786  1.00  0.00     0.211 A 
BRANCH  18  19
HETATM   19  C20 UNL     1      15.360   3.048  52.538  1.00  0.00     0.060 C 
BRANCH  19  20
HETATM   20  C21 UNL     1      13.913   2.986  52.796  1.00  0.00     0.279 C 
BRANCH  20  21
HETATM   21  N6  UNL     1      13.271   4.277  52.652  1.00  0.00     0.080 N 
HETATM   22  C22 UNL     1      12.360   4.572  53.709  1.00  0.00     0.309 C 
HETATM   23  C23 UNL     1      12.769   4.441  51.323  1.00  0.00     0.309 C 
ENDBRANCH  20  21
ENDBRANCH  19  20
ENDBRANCH  18  19
ENDBRANCH  14  16
ENDBRANCH  11  14
ENDBRANCH   1  10
BRANCH   8  24
HETATM   24  N3  UNL     1      25.919   0.768  52.980  1.00  0.00    -0.340 N 
HETATM   25  H7  UNL     1      25.989   1.782  52.700  1.00  0.00     0.167 HD
BRANCH  24  26
HETATM   26  C10 UNL     1      26.951  -0.241  53.027  1.00  0.00     0.039 A 
HETATM   27  C11 UNL     1      26.587  -1.514  52.581  1.00  0.00     0.030 A 
HETATM   28  C12 UNL     1      27.567  -2.510  52.615  1.00  0.00     0.002 A 
HETATM   29  C13 UNL     1      28.825  -2.189  53.078  1.00  0.00     0.001 A 
HETATM   30  C14 UNL     1      29.183  -0.913  53.522  1.00  0.00     0.009 A 
HETATM   31  C15 UNL     1      28.214   0.064  53.487  1.00  0.00    -0.035 A 
HETATM   32  C16 UNL     1      28.543   1.444  53.952  1.00  0.00     0.050 C 
ENDBRANCH  24  26
ENDBRANCH   8  24
TORSDOF 8
ENDMDL
MODEL 5
REMARK VINA RESULT:      -8.1      3.534      9.096
REMARK  8 active torsions:
REMARK  status: ('A' for Active; 'I' for Inactive)
REMARK    1  A    between atoms: C2_2  and  N5_22 
REMARK    2  A    between atoms: C3_3  and  C4_5 
REMARK    3  A    between atoms: C9_12  and  N3_13 
REMARK    4  A    between atoms: N3_13  and  C10_14 
REMARK    5  A    between atoms: N5_22  and  C18_24 
REMARK    6  A    between atoms: C19_26  and  C20_27 
REMARK    7  A    between atoms: C20_27  and  C21_28 
REMARK    8  A    between atoms: C21_28  and  N6_29 
ROOT
HETATM    1  C4  UNL     1      23.498   4.723  50.627  1.00  0.00     0.096 C 
HETATM    2  C5  UNL     1      22.554   3.925  50.108  1.00  0.00     0.157 C 
HETATM    3  N1  UNL     1      22.411   3.953  48.694  1.00  0.00    -0.206 NA
HETATM    4  C6  UNL     1      22.212   3.079  47.777  1.00  0.00     0.199 C 
HETATM    5  N2  UNL     1      22.300   1.812  48.013  1.00  0.00    -0.238 NA
HETATM    6  C7  UNL     1      21.462   0.914  48.776  1.00  0.00     0.123 C 
HETATM    7  C8  UNL     1      21.031   1.007  50.036  1.00  0.00     0.070 C 
HETATM    8  C9  UNL     1      21.243   2.024  51.067  1.00  0.00     0.131 C 
HETATM    9  N4  UNL     1      21.849   3.178  51.088  1.00  0.00    -0.212 NA
ENDROOT
BRANCH   1  10
HETATM   10  C3  UNL     1      24.371   5.596  49.853  1.00  0.00     0.142 C 
HETATM   11  C2  UNL     1      25.504   5.154  49.392  1.00  0.00     0.048 C 
HETATM   12  C1  UNL     1      26.086   3.799  49.577  1.00  0.00     0.071 C 
HETATM   13  F1  UNL     1      23.665   6.776  49.805  1.00  0.00    -0.204 F 
BRANCH  11  14
HETATM   14  N5  UNL     1      26.363   5.971  48.615  1.00  0.00    -0.335 N 
HETATM   15  C17 UNL     1      26.098   7.238  47.972  1.00  0.00     0.158 C 
BRANCH  14  16
HETATM   16  C18 UNL     1      27.614   5.338  48.545  1.00  0.00     0.151 A 
HETATM   17  O1  UNL     1      28.682   4.707  48.501  1.00  0.00    -0.323 OA
HETATM   18  C19 UNL     1      28.747   6.192  48.255  1.00  0.00     0.211 A 
BRANCH  18  19
HETATM   19  C20 UNL     1      30.041   6.240  48.073  1.00  0.00     0.060 C 
BRANCH  19  20
HETATM   20  C21 UNL     1      31.395   6.542  48.564  1.00  0.00     0.279 C 
BRANCH  20  21
HETATM   21  N6  UNL     1      32.416   5.791  47.861  1.00  0.00     0.080 N 
HETATM   22  C22 UNL     1      32.037   4.443  47.592  1.00  0.00     0.309 C 
HETATM   23  C23 UNL     1      33.690   5.976  48.482  1.00  0.00     0.309 C 
ENDBRANCH  20  21
ENDBRANCH  19  20
ENDBRANCH  18  19
ENDBRANCH  14  16
ENDBRANCH  11  14
ENDBRANCH   1  10
BRANCH   8  24
HETATM   24  N3  UNL     1      20.673   1.715  52.358  1.00  0.00    -0.340 N 
HETATM   25  H7  UNL     1      19.903   2.379  52.637  1.00  0.00     0.167 HD
BRANCH  24  26
HETATM   26  C10 UNL     1      21.208   0.581  53.074  1.00  0.00     0.039 A 
HETATM   27  C11 UNL     1      22.568   0.638  53.390  1.00  0.00     0.030 A 
HETATM   28  C12 UNL     1      23.111  -0.447  54.083  1.00  0.00     0.002 A 
HETATM   29  C13 UNL     1      22.289  -1.502  54.416  1.00  0.00     0.001 A 
HETATM   30  C14 UNL     1      20.928  -1.552  54.098  1.00  0.00     0.009 A 
HETATM   31  C15 UNL     1      20.399  -0.482  53.414  1.00  0.00    -0.035 A 
HETATM   32  C16 UNL     1      18.951  -0.486  53.048  1.00  0.00     0.050 C 
ENDBRANCH  24  26
ENDBRANCH   8  24
TORSDOF 8
ENDMDL
MODEL 6
REMARK VINA RESULT:      -8.0      3.262      8.773
REMARK  8 active torsions:
REMARK  status: ('A' for Active; 'I' for Inactive)
REMARK    1  A    between atoms: C2_2  and  N5_22 
REMARK    2  A    between atoms: C3_3  and  C4_5 
REMARK    3  A    between atoms: C9_12  and  N3_13 
REMARK    4  A    between atoms: N3_13  and  C10_14 
REMARK    5  A    between atoms: N5_22  and  C18_24 
REMARK    6  A    between atoms: C19_26  and  C20_27 
REMARK    7  A    between atoms: C20_27  and  C21_28 
REMARK    8  A    between atoms: C21_28  and  N6_29 
ROOT
HETATM    1  C4  UNL     1      25.640   4.842  50.164  1.00  0.00     0.096 C 
HETATM    2  C5  UNL     1      24.414   4.302  50.098  1.00  0.00     0.157 C 
HETATM    3  N1  UNL     1      23.670   4.569  48.916  1.00  0.00    -0.206 NA
HETATM    4  C6  UNL     1      22.900   3.890  48.148  1.00  0.00     0.199 C 
HETATM    5  N2  UNL     1      22.805   2.606  48.242  1.00  0.00    -0.238 NA
HETATM    6  C7  UNL     1      22.217   1.755  49.253  1.00  0.00     0.123 C 
HETATM    7  C8  UNL     1      22.421   1.726  50.573  1.00  0.00     0.070 C 
HETATM    8  C9  UNL     1      23.284   2.524  51.445  1.00  0.00     0.131 C 
HETATM    9  N4  UNL     1      24.072   3.544  51.248  1.00  0.00    -0.212 NA
ENDROOT
BRANCH   1  10
HETATM   10  C3  UNL     1      26.247   5.665  49.126  1.00  0.00     0.142 C 
HETATM   11  C2  UNL     1      26.111   6.959  49.148  1.00  0.00     0.048 C 
HETATM   12  C1  UNL     1      25.350   7.770  50.135  1.00  0.00     0.071 C 
HETATM   13  F1  UNL     1      26.883   4.741  48.330  1.00  0.00    -0.204 F 
BRANCH  11  14
HETATM   14  N5  UNL     1      26.710   7.788  48.167  1.00  0.00    -0.335 N 
HETATM   15  C17 UNL     1      26.156   8.314  46.941  1.00  0.00     0.158 C 
BRANCH  14  16
HETATM   16  C18 UNL     1      28.026   8.059  48.576  1.00  0.00     0.151 A 
HETATM   17  O1  UNL     1      29.157   8.343  49.000  1.00  0.00    -0.323 OA
HETATM   18  C19 UNL     1      29.078   7.455  47.785  1.00  0.00     0.211 A 
BRANCH  18  19
HETATM   19  C20 UNL     1      30.370   7.317  47.636  1.00  0.00     0.060 C 
BRANCH  19  20
HETATM   20  C21 UNL     1      31.548   6.474  47.380  1.00  0.00     0.279 C 
BRANCH  20  21
HETATM   21  N6  UNL     1      32.479   6.474  48.492  1.00  0.00     0.080 N 
HETATM   22  C22 UNL     1      31.915   5.955  49.695  1.00  0.00     0.309 C 
HETATM   23  C23 UNL     1      33.133   7.741  48.598  1.00  0.00     0.309 C 
ENDBRANCH  20  21
ENDBRANCH  19  20
ENDBRANCH  18  19
ENDBRANCH  14  16
ENDBRANCH  11  14
ENDBRANCH   1  10
BRANCH   8  24
HETATM   24  N3  UNL     1      23.293   2.123  52.831  1.00  0.00    -0.340 N 
HETATM   25  H7  UNL     1      22.453   2.470  53.366  1.00  0.00     0.167 HD
BRANCH  24  26
HETATM   26  C10 UNL     1      24.406   1.327  53.293  1.00  0.00     0.039 A 
HETATM   27  C11 UNL     1      25.611   2.008  53.484  1.00  0.00     0.030 A 
HETATM   28  C12 UNL     1      26.705   1.262  53.931  1.00  0.00     0.002 A 
HETATM   29  C13 UNL     1      26.540  -0.088  54.159  1.00  0.00     0.001 A 
HETATM   30  C14 UNL     1      25.331  -0.763  53.966  1.00  0.00     0.009 A 
HETATM   31  C15 UNL     1      24.258  -0.024  53.525  1.00  0.00    -0.035 A 
HETATM   32  C16 UNL     1      22.943  -0.695  53.302  1.00  0.00     0.050 C 
ENDBRANCH  24  26
ENDBRANCH   8  24
TORSDOF 8
ENDMDL
MODEL 7
REMARK VINA RESULT:      -8.0      3.600      9.265
REMARK  8 active torsions:
REMARK  status: ('A' for Active; 'I' for Inactive)
REMARK    1  A    between atoms: C2_2  and  N5_22 
REMARK    2  A    between atoms: C3_3  and  C4_5 
REMARK    3  A    between atoms: C9_12  and  N3_13 
REMARK    4  A    between atoms: N3_13  and  C10_14 
REMARK    5  A    between atoms: N5_22  and  C18_24 
REMARK    6  A    between atoms: C19_26  and  C20_27 
REMARK    7  A    between atoms: C20_27  and  C21_28 
REMARK    8  A    between atoms: C21_28  and  N6_29 
ROOT
HETATM    1  C4  UNL     1      24.393   5.705  51.180  1.00  0.00     0.096 C 
HETATM    2  C5  UNL     1      23.438   4.846  50.791  1.00  0.00     0.157 C 
HETATM    3  N1  UNL     1      22.651   5.241  49.676  1.00  0.00    -0.206 NA
HETATM    4  C6  UNL     1      22.174   4.655  48.640  1.00  0.00     0.199 C 
HETATM    5  N2  UNL     1      22.540   3.463  48.303  1.00  0.00    -0.238 NA
HETATM    6  C7  UNL     1      22.291   2.172  48.904  1.00  0.00     0.123 C 
HETATM    7  C8  UNL     1      22.488   1.758  50.159  1.00  0.00     0.070 C 
HETATM    8  C9  UNL     1      23.010   2.445  51.341  1.00  0.00     0.131 C 
HETATM    9  N4  UNL     1      23.386   3.670  51.583  1.00  0.00    -0.212 NA
ENDROOT
BRANCH   1  10
HETATM   10  C3  UNL     1      24.671   6.987  50.546  1.00  0.00     0.142 C 
HETATM   11  C2  UNL     1      25.530   7.068  49.574  1.00  0.00     0.048 C 
HETATM   12  C1  UNL     1      26.344   5.967  48.994  1.00  0.00     0.071 C 
HETATM   13  F1  UNL     1      23.838   7.852  51.218  1.00  0.00    -0.204 F 
BRANCH  11  14
HETATM   14  N5  UNL     1      25.804   8.296  48.920  1.00  0.00    -0.335 N 
HETATM   15  C17 UNL     1      25.330   8.788  47.648  1.00  0.00     0.158 C 
BRANCH  14  16
HETATM   16  C18 UNL     1      26.668   9.038  49.741  1.00  0.00     0.151 A 
HETATM   17  O1  UNL     1      27.368   9.709  50.515  1.00  0.00    -0.323 OA
HETATM   18  C19 UNL     1      28.051   9.107  49.315  1.00  0.00     0.211 A 
BRANCH  18  19
HETATM   19  C20 UNL     1      29.240   9.578  49.588  1.00  0.00     0.060 C 
BRANCH  19  20
HETATM   20  C21 UNL     1      30.680   9.666  49.302  1.00  0.00     0.279 C 
BRANCH  20  21
HETATM   21  N6  UNL     1      31.015  10.836  48.514  1.00  0.00     0.080 N 
HETATM   22  C22 UNL     1      30.502  12.048  49.063  1.00  0.00     0.309 C 
HETATM   23  C23 UNL     1      30.740  10.603  47.131  1.00  0.00     0.309 C 
ENDBRANCH  20  21
ENDBRANCH  19  20
ENDBRANCH  18  19
ENDBRANCH  14  16
ENDBRANCH  11  14
ENDBRANCH   1  10
BRANCH   8  24
HETATM   24  N3  UNL     1      23.157   1.616  52.514  1.00  0.00    -0.340 N 
HETATM   25  H7  UNL     1      22.340   1.692  53.177  1.00  0.00     0.167 HD
BRANCH  24  26
HETATM   26  C10 UNL     1      24.357   0.821  52.628  1.00  0.00     0.039 A 
HETATM   27  C11 UNL     1      25.474   1.289  51.932  1.00  0.00     0.030 A 
HETATM   28  C12 UNL     1      26.649   0.538  52.025  1.00  0.00     0.002 A 
HETATM   29  C13 UNL     1      26.646  -0.609  52.790  1.00  0.00     0.001 A 
HETATM   30  C14 UNL     1      25.524  -1.072  53.484  1.00  0.00     0.009 A 
HETATM   31  C15 UNL     1      24.370  -0.329  53.388  1.00  0.00    -0.035 A 
HETATM   32  C16 UNL     1      23.142  -0.780  54.109  1.00  0.00     0.050 C 
ENDBRANCH  24  26
ENDBRANCH   8  24
TORSDOF 8
ENDMDL
MODEL 8
REMARK VINA RESULT:      -7.9      3.447      9.148
REMARK  8 active torsions:
REMARK  status: ('A' for Active; 'I' for Inactive)
REMARK    1  A    between atoms: C2_2  and  N5_22 
REMARK    2  A    between atoms: C3_3  and  C4_5 
REMARK    3  A    between atoms: C9_12  and  N3_13 
REMARK    4  A    between atoms: N3_13  and  C10_14 
REMARK    5  A    between atoms: N5_22  and  C18_24 
REMARK    6  A    between atoms: C19_26  and  C20_27 
REMARK    7  A    between atoms: C20_27  and  C21_28 
REMARK    8  A    between atoms: C21_28  and  N6_29 
ROOT
HETATM    1  C4  UNL     1      25.385   5.363  50.070  1.00  0.00     0.096 C 
HETATM    2  C5  UNL     1      24.230   4.686  49.990  1.00  0.00     0.157 C 
HETATM    3  N1  UNL     1      23.379   5.017  48.901  1.00  0.00    -0.206 NA
HETATM    4  C6  UNL     1      22.643   4.359  48.083  1.00  0.00     0.199 C 
HETATM    5  N2  UNL     1      22.707   3.073  47.992  1.00  0.00    -0.238 NA
HETATM    6  C7  UNL     1      22.297   2.022  48.897  1.00  0.00     0.123 C 
HETATM    7  C8  UNL     1      22.594   1.836  50.186  1.00  0.00     0.070 C 
HETATM    8  C9  UNL     1      23.416   2.608  51.118  1.00  0.00     0.131 C 
HETATM    9  N4  UNL     1      24.062   3.737  51.032  1.00  0.00    -0.212 NA
ENDROOT
BRANCH   1  10
HETATM   10  C3  UNL     1      25.816   6.393  49.134  1.00  0.00     0.142 C 
HETATM   11  C2  UNL     1      25.476   7.634  49.319  1.00  0.00     0.048 C 
HETATM   12  C1  UNL     1      24.630   8.186  50.410  1.00  0.00     0.071 C 
HETATM   13  F1  UNL     1      26.564   5.687  48.219  1.00  0.00    -0.204 F 
BRANCH  11  14
HETATM   14  N5  UNL     1      25.900   8.663  48.440  1.00  0.00    -0.335 N 
HETATM   15  C17 UNL     1      25.566   8.886  47.053  1.00  0.00     0.158 C 
BRANCH  14  16
HETATM   16  C18 UNL     1      26.760   9.512  49.154  1.00  0.00     0.151 A 
HETATM   17  O1  UNL     1      27.454  10.302  49.813  1.00  0.00    -0.323 OA
HETATM   18  C19 UNL     1      28.179   9.257  49.005  1.00  0.00     0.211 A 
BRANCH  18  19
HETATM   19  C20 UNL     1      29.383   9.631  49.351  1.00  0.00     0.060 C 
BRANCH  19  20
HETATM   20  C21 UNL     1      30.714  10.151  49.001  1.00  0.00     0.279 C 
BRANCH  20  21
HETATM   21  N6  UNL     1      31.619   9.103  48.571  1.00  0.00     0.080 N 
HETATM   22  C22 UNL     1      31.402   8.694  47.222  1.00  0.00     0.309 C 
HETATM   23  C23 UNL     1      31.677   8.059  49.545  1.00  0.00     0.309 C 
ENDBRANCH  20  21
ENDBRANCH  19  20
ENDBRANCH  18  19
ENDBRANCH  14  16
ENDBRANCH  11  14
ENDBRANCH   1  10
BRANCH   8  24
HETATM   24  N3  UNL     1      23.570   2.022  52.429  1.00  0.00    -0.340 N 
HETATM   25  H7  UNL     1      22.904   2.425  53.141  1.00  0.00     0.167 HD
BRANCH  24  26
HETATM   26  C10 UNL     1      24.575   0.998  52.593  1.00  0.00     0.039 A 
HETATM   27  C11 UNL     1      25.821   1.263  52.021  1.00  0.00     0.030 A 
HETATM   28  C12 UNL     1      26.812   0.288  52.165  1.00  0.00     0.002 A 
HETATM   29  C13 UNL     1      26.514  -0.866  52.857  1.00  0.00     0.001 A 
HETATM   30  C14 UNL     1      25.264  -1.124  53.428  1.00  0.00     0.009 A 
HETATM   31  C15 UNL     1      24.292  -0.162  53.282  1.00  0.00    -0.035 A 
HETATM   32  C16 UNL     1      22.938  -0.387  53.871  1.00  0.00     0.050 C 
ENDBRANCH  24  26
ENDBRANCH   8  24
TORSDOF 8
ENDMDL
MODEL 9
REMARK VINA RESULT:      -7.9      4.541      7.792
REMARK  8 active torsions:
REMARK  status: ('A' for Active; 'I' for Inactive)
REMARK    1  A    between atoms: C2_2  and  N5_22 
REMARK    2  A    between atoms: C3_3  and  C4_5 
REMARK    3  A    between atoms: C9_12  and  N3_13 
REMARK    4  A    between atoms: N3_13  and  C10_14 
REMARK    5  A    between atoms: N5_22  and  C18_24 
REMARK    6  A    between atoms: C19_26  and  C20_27 
REMARK    7  A    between atoms: C20_27  and  C21_28 
REMARK    8  A    between atoms: C21_28  and  N6_29 
ROOT
HETATM    1  C4  UNL     1      22.251   1.933  52.057  1.00  0.00     0.096 C 
HETATM    2  C5  UNL     1      23.470   1.847  51.504  1.00  0.00     0.157 C 
HETATM    3  N1  UNL     1      23.562   2.183  50.125  1.00  0.00    -0.206 NA
HETATM    4  C6  UNL     1      24.394   2.831  49.396  1.00  0.00     0.199 C 
HETATM    5  N2  UNL     1      25.338   3.545  49.911  1.00  0.00    -0.238 NA
HETATM    6  C7  UNL     1      26.546   3.181  50.618  1.00  0.00     0.123 C 
HETATM    7  C8  UNL     1      26.711   2.393  51.684  1.00  0.00     0.070 C 
HETATM    8  C9  UNL     1      25.756   1.636  52.495  1.00  0.00     0.131 C 
HETATM    9  N4  UNL     1      24.471   1.426  52.417  1.00  0.00    -0.212 NA
ENDROOT
BRANCH   1  10
HETATM   10  C3  UNL     1      21.042   2.341  51.353  1.00  0.00     0.142 C 
HETATM   11  C2  UNL     1      20.745   3.602  51.232  1.00  0.00     0.048 C 
HETATM   12  C1  UNL     1      21.503   4.763  51.767  1.00  0.00     0.071 C 
HETATM   13  F1  UNL     1      20.496   1.143  50.952  1.00  0.00    -0.204 F 
BRANCH  11  14
HETATM   14  N5  UNL     1      19.590   4.032  50.531  1.00  0.00    -0.335 N 
HETATM   15  C17 UNL     1      19.467   4.562  49.193  1.00  0.00     0.158 C 
BRANCH  14  16
HETATM   16  C18 UNL     1      18.484   3.860  51.378  1.00  0.00     0.151 A 
HETATM   17  O1  UNL     1      17.535   3.770  52.173  1.00  0.00    -0.323 OA
HETATM   18  C19 UNL     1      17.558   2.807  51.015  1.00  0.00     0.211 A 
BRANCH  18  19
HETATM   19  C20 UNL     1      16.452   2.187  51.335  1.00  0.00     0.060 C 
BRANCH  19  20
HETATM   20  C21 UNL     1      15.478   1.107  51.114  1.00  0.00     0.279 C 
BRANCH  20  21
HETATM   21  N6  UNL     1      14.150   1.459  51.575  1.00  0.00     0.080 N 
HETATM   22  C22 UNL     1      13.555   2.514  50.822  1.00  0.00     0.309 C 
HETATM   23  C23 UNL     1      14.138   1.614  52.996  1.00  0.00     0.309 C 
ENDBRANCH  20  21
ENDBRANCH  19  20
ENDBRANCH  18  19
ENDBRANCH  14  16
ENDBRANCH  11  14
ENDBRANCH   1  10
BRANCH   8  24
HETATM   24  N3  UNL     1      26.322   0.965  53.640  1.00  0.00    -0.340 N 
HETATM   25  H7  UNL     1      26.032   1.399  54.557  1.00  0.00     0.167 HD
BRANCH  24  26
HETATM   26  C10 UNL     1      27.179  -0.172  53.397  1.00  0.00     0.039 A 
HETATM   27  C11 UNL     1      26.570  -1.291  52.825  1.00  0.00     0.030 A 
HETATM   28  C12 UNL     1      27.376  -2.404  52.579  1.00  0.00     0.002 A 
HETATM   29  C13 UNL     1      28.714  -2.342  52.907  1.00  0.00     0.001 A 
HETATM   30  C14 UNL     1      29.318  -1.218  53.478  1.00  0.00     0.009 A 
HETATM   31  C15 UNL     1      28.519  -0.125  53.719  1.00  0.00    -0.035 A 
HETATM   32  C16 UNL     1      29.113   1.102  54.330  1.00  0.00     0.050 C 
ENDBRANCH  24  26
ENDBRANCH   8  24
TORSDOF 8
ENDMDL
