MODEL 1
REMARK VINA RESULT:      -7.7      0.000      0.000
REMARK  3 active torsions:
REMARK  status: ('A' for Active; 'I' for Inactive)
REMARK    1  A    between atoms: C1_2  and  C2_3 
REMARK    2  A    between atoms: C7_10  and  N3_11 
REMARK    3  A    between atoms: N3_11  and  C8_12 
ROOT
HETATM    1  C2  UNL     1      26.358  -0.391  52.988  1.00  0.00    -0.026 C 
HETATM    2  C3  UNL     1      25.161  -0.804  53.540  1.00  0.00     0.013 C 
HETATM    3  C4  UNL     1      24.085   0.019  53.803  1.00  0.00     0.020 C 
HETATM    4  C5  UNL     1      23.149   0.429  52.869  1.00  0.00     0.118 C 
HETATM    5  N1  UNL     1      23.798   0.964  51.828  1.00  0.00    -0.254 NA
HETATM    6  C6  UNL     1      23.840   2.288  51.611  1.00  0.00     0.234 C 
HETATM    7  N2  UNL     1      25.134   2.619  51.808  1.00  0.00    -0.225 NA
HETATM    8  C7  UNL     1      26.083   2.546  50.868  1.00  0.00     0.129 C 
HETATM    9  C14 UNL     1      26.818   1.569  51.502  1.00  0.00     0.051 C 
HETATM   10  C15 UNL     1      26.720   0.233  51.812  1.00  0.00     0.016 C 
ENDROOT
BRANCH   8  11
HETATM   11  N3  UNL     1      26.309   3.202  49.654  1.00  0.00    -0.341 N 
HETATM   12  H6  UNL     1      26.235   2.445  48.919  1.00  0.00     0.167 HD
BRANCH  11  13
HETATM   13  C8  UNL     1      26.583   4.542  49.306  1.00  0.00     0.034 A 
HETATM   14  C9  UNL     1      27.726   4.846  48.601  1.00  0.00     0.029 A 
HETATM   15  C10 UNL     1      28.015   6.147  48.254  1.00  0.00     0.004 A 
HETATM   16  C11 UNL     1      27.122   7.127  48.637  1.00  0.00     0.019 A 
HETATM   17  C12 UNL     1      25.986   6.792  49.343  1.00  0.00     0.013 A 
HETATM   18 BR1  UNL     1      24.797   8.184  49.843  1.00  0.00    -0.051 Br
HETATM   19  C13 UNL     1      25.677   5.501  49.701  1.00  0.00     0.048 A 
ENDBRANCH  11  13
ENDBRANCH   8  11
BRANCH   1  20
HETATM   20  C1  UNL     1      27.752  -0.445  53.429  1.00  0.00     0.092 C 
HETATM   21  S1  UNL     1      28.479   0.248  54.718  1.00  0.00    -0.092 SA
ENDBRANCH   1  20
TORSDOF 3
ENDMDL
MODEL 2
REMARK VINA RESULT:      -7.6      1.333      1.700
REMARK  3 active torsions:
REMARK  status: ('A' for Active; 'I' for Inactive)
REMARK    1  A    between atoms: C1_2  and  C2_3 
REMARK    2  A    between atoms: C7_10  and  N3_11 
REMARK    3  A    between atoms: N3_11  and  C8_12 
ROOT
HETATM    1  C2  UNL     1      26.117  -0.196  52.881  1.00  0.00    -0.026 C 
HETATM    2  C3  UNL     1      24.863  -0.497  53.376  1.00  0.00     0.013 C 
HETATM    3  C4  UNL     1      23.843   0.415  53.552  1.00  0.00     0.020 C 
HETATM    4  C5  UNL     1      22.994   0.864  52.554  1.00  0.00     0.118 C 
HETATM    5  N1  UNL     1      23.740   1.311  51.536  1.00  0.00    -0.254 NA
HETATM    6  C6  UNL     1      23.898   2.620  51.283  1.00  0.00     0.234 C 
HETATM    7  N2  UNL     1      25.201   2.857  51.545  1.00  0.00    -0.225 NA
HETATM    8  C7  UNL     1      26.192   2.679  50.664  1.00  0.00     0.129 C 
HETATM    9  C14 UNL     1      26.812   1.671  51.367  1.00  0.00     0.051 C 
HETATM   10  C15 UNL     1      26.591   0.357  51.711  1.00  0.00     0.016 C 
ENDROOT
BRANCH   8  11
HETATM   11  N3  UNL     1      26.536   3.274  49.445  1.00  0.00    -0.341 N 
HETATM   12  H6  UNL     1      26.639   2.468  48.769  1.00  0.00     0.167 HD
BRANCH  11  13
HETATM   13  C8  UNL     1      26.738   4.610  49.036  1.00  0.00     0.034 A 
HETATM   14  C9  UNL     1      25.695   5.508  49.090  1.00  0.00     0.029 A 
HETATM   15  C10 UNL     1      25.870   6.815  48.694  1.00  0.00     0.004 A 
HETATM   16  C11 UNL     1      27.119   7.188  48.243  1.00  0.00     0.019 A 
HETATM   17  C12 UNL     1      28.144   6.266  48.199  1.00  0.00     0.013 A 
HETATM   18 BR1  UNL     1      29.840   6.838  47.568  1.00  0.00    -0.051 Br
HETATM   19  C13 UNL     1      27.994   4.956  48.589  1.00  0.00     0.048 A 
ENDBRANCH  11  13
ENDBRANCH   8  11
BRANCH   1  20
HETATM   20  C1  UNL     1      27.476  -0.342  53.403  1.00  0.00     0.092 C 
HETATM   21  S1  UNL     1      28.158   0.266  54.758  1.00  0.00    -0.092 SA
ENDBRANCH   1  20
TORSDOF 3
ENDMDL
MODEL 3
REMARK VINA RESULT:      -7.3      4.116      5.674
REMARK  3 active torsions:
REMARK  status: ('A' for Active; 'I' for Inactive)
REMARK    1  A    between atoms: C1_2  and  C2_3 
REMARK    2  A    between atoms: C7_10  and  N3_11 
REMARK    3  A    between atoms: N3_11  and  C8_12 
ROOT
HETATM    1  C2  UNL     1      21.802   0.228  52.447  1.00  0.00    -0.026 C 
HETATM    2  C3  UNL     1      21.009   0.348  51.322  1.00  0.00     0.013 C 
HETATM    3  C4  UNL     1      20.919   1.477  50.534  1.00  0.00     0.020 C 
HETATM    4  C5  UNL     1      21.822   1.834  49.548  1.00  0.00     0.118 C 
HETATM    5  N1  UNL     1      23.050   1.834  50.081  1.00  0.00    -0.254 NA
HETATM    6  C6  UNL     1      23.704   2.968  50.377  1.00  0.00     0.234 C 
HETATM    7  N2  UNL     1      23.780   2.969  51.725  1.00  0.00    -0.225 NA
HETATM    8  C7  UNL     1      24.742   2.360  52.427  1.00  0.00     0.129 C 
HETATM    9  C14 UNL     1      23.905   1.451  53.033  1.00  0.00     0.051 C 
HETATM   10  C15 UNL     1      23.152   0.349  52.700  1.00  0.00     0.016 C 
ENDROOT
BRANCH   8  11
HETATM   11  N3  UNL     1      26.125   2.536  52.549  1.00  0.00    -0.341 N 
HETATM   12  H6  UNL     1      26.304   3.520  52.207  1.00  0.00     0.167 HD
BRANCH  11  13
HETATM   13  C8  UNL     1      27.176   1.710  53.001  1.00  0.00     0.034 A 
HETATM   14  C9  UNL     1      28.235   2.263  53.686  1.00  0.00     0.029 A 
HETATM   15  C10 UNL     1      29.272   1.476  54.134  1.00  0.00     0.004 A 
HETATM   16  C11 UNL     1      29.212   0.123  53.871  1.00  0.00     0.019 A 
HETATM   17  C12 UNL     1      28.139  -0.402  53.182  1.00  0.00     0.013 A 
HETATM   18 BR1  UNL     1      28.112  -2.271  52.850  1.00  0.00    -0.051 Br
HETATM   19  C13 UNL     1      27.092   0.363  52.726  1.00  0.00     0.048 A 
ENDBRANCH  11  13
ENDBRANCH   8  11
BRANCH   1  20
HETATM   20  C1  UNL     1      21.531  -0.078  53.852  1.00  0.00     0.092 C 
HETATM   21  S1  UNL     1      21.968  -1.368  54.755  1.00  0.00    -0.092 SA
ENDBRANCH   1  20
TORSDOF 3
ENDMDL
MODEL 4
REMARK VINA RESULT:      -7.3      2.057      2.934
REMARK  3 active torsions:
REMARK  status: ('A' for Active; 'I' for Inactive)
REMARK    1  A    between atoms: C1_2  and  C2_3 
REMARK    2  A    between atoms: C7_10  and  N3_11 
REMARK    3  A    between atoms: N3_11  and  C8_12 
ROOT
HETATM    1  C2  UNL     1      23.759  -0.017  53.582  1.00  0.00    -0.026 C 
HETATM    2  C3  UNL     1      24.739  -0.537  54.404  1.00  0.00     0.013 C 
HETATM    3  C4  UNL     1      26.084  -0.584  54.100  1.00  0.00     0.020 C 
HETATM    4  C5  UNL     1      26.970   0.470  54.241  1.00  0.00     0.118 C 
HETATM    5  N1  UNL     1      26.468   1.532  53.600  1.00  0.00    -0.254 NA
HETATM    6  C6  UNL     1      26.950   1.953  52.420  1.00  0.00     0.234 C 
HETATM    7  N2  UNL     1      25.950   1.715  51.545  1.00  0.00    -0.225 NA
HETATM    8  C7  UNL     1      24.938   2.558  51.308  1.00  0.00     0.129 C 
HETATM    9  C14 UNL     1      23.957   1.724  51.796  1.00  0.00     0.051 C 
HETATM   10  C15 UNL     1      23.533   1.213  53.000  1.00  0.00     0.016 C 
ENDROOT
BRANCH   8  11
HETATM   11  N3  UNL     1      24.843   3.842  50.760  1.00  0.00    -0.341 N 
HETATM   12  H6  UNL     1      23.884   4.187  51.043  1.00  0.00     0.167 HD
BRANCH  11  13
HETATM   13  C8  UNL     1      25.716   4.639  49.990  1.00  0.00     0.034 A 
HETATM   14  C9  UNL     1      26.791   4.060  49.354  1.00  0.00     0.029 A 
HETATM   15  C10 UNL     1      27.657   4.819  48.599  1.00  0.00     0.004 A 
HETATM   16  C11 UNL     1      27.408   6.173  48.505  1.00  0.00     0.019 A 
HETATM   17  C12 UNL     1      26.324   6.726  49.154  1.00  0.00     0.013 A 
HETATM   18 BR1  UNL     1      26.034   8.594  48.988  1.00  0.00    -0.051 Br
HETATM   19  C13 UNL     1      25.446   5.988  49.912  1.00  0.00     0.048 A 
ENDBRANCH  11  13
ENDBRANCH   8  11
BRANCH   1  20
HETATM   20  C1  UNL     1      22.542  -0.563  52.981  1.00  0.00     0.092 C 
HETATM   21  S1  UNL     1      21.023  -0.661  53.576  1.00  0.00    -0.092 SA
ENDBRANCH   1  20
TORSDOF 3
ENDMDL
MODEL 5
REMARK VINA RESULT:      -6.9      6.166      9.665
REMARK  3 active torsions:
REMARK  status: ('A' for Active; 'I' for Inactive)
REMARK    1  A    between atoms: C1_2  and  C2_3 
REMARK    2  A    between atoms: C7_10  and  N3_11 
REMARK    3  A    between atoms: N3_11  and  C8_12 
ROOT
HETATM    1  C2  UNL     1      22.171   1.269  51.512  1.00  0.00    -0.026 C 
HETATM    2  C3  UNL     1      23.527   1.253  51.773  1.00  0.00     0.013 C 
HETATM    3  C4  UNL     1      24.092   1.036  53.013  1.00  0.00     0.020 C 
HETATM    4  C5  UNL     1      24.287  -0.204  53.594  1.00  0.00     0.118 C 
HETATM    5  N1  UNL     1      23.122  -0.864  53.582  1.00  0.00    -0.254 NA
HETATM    6  C6  UNL     1      22.379  -1.030  54.687  1.00  0.00     0.234 C 
HETATM    7  N2  UNL     1      21.270  -0.296  54.460  1.00  0.00    -0.225 NA
HETATM    8  C7  UNL     1      20.193  -0.740  53.802  1.00  0.00     0.129 C 
HETATM    9  C14 UNL     1      20.312   0.139  52.750  1.00  0.00     0.051 C 
HETATM   10  C15 UNL     1      21.141   0.367  51.676  1.00  0.00     0.016 C 
ENDROOT
BRANCH   8  11
HETATM   11  N3  UNL     1      19.240  -1.735  54.045  1.00  0.00    -0.341 N 
HETATM   12  H6  UNL     1      19.647  -2.315  54.830  1.00  0.00     0.167 HD
BRANCH  11  13
HETATM   13  C8  UNL     1      17.986  -2.043  53.476  1.00  0.00     0.034 A 
HETATM   14  C9  UNL     1      17.326  -1.098  52.722  1.00  0.00     0.029 A 
HETATM   15  C10 UNL     1      16.100  -1.375  52.160  1.00  0.00     0.004 A 
HETATM   16  C11 UNL     1      15.562  -2.627  52.379  1.00  0.00     0.019 A 
HETATM   17  C12 UNL     1      16.245  -3.553  53.138  1.00  0.00     0.013 A 
HETATM   18 BR1  UNL     1      15.454  -5.257  53.405  1.00  0.00    -0.051 Br
HETATM   19  C13 UNL     1      17.470  -3.299  53.710  1.00  0.00     0.048 A 
ENDBRANCH  11  13
ENDBRANCH   8  11
BRANCH   1  20
HETATM   20  C1  UNL     1      21.257   2.264  50.951  1.00  0.00     0.092 C 
HETATM   21  S1  UNL     1      20.714   3.672  51.577  1.00  0.00    -0.092 SA
ENDBRANCH   1  20
TORSDOF 3
ENDMDL
MODEL 6
REMARK VINA RESULT:      -6.9      1.655      2.205
REMARK  3 active torsions:
REMARK  status: ('A' for Active; 'I' for Inactive)
REMARK    1  A    between atoms: C1_2  and  C2_3 
REMARK    2  A    between atoms: C7_10  and  N3_11 
REMARK    3  A    between atoms: N3_11  and  C8_12 
ROOT
HETATM    1  C2  UNL     1      23.991  -0.465  53.453  1.00  0.00    -0.026 C 
HETATM    2  C3  UNL     1      22.818  -0.850  54.071  1.00  0.00     0.013 C 
HETATM    3  C4  UNL     1      21.790   0.002  54.420  1.00  0.00     0.020 C 
HETATM    4  C5  UNL     1      20.812   0.465  53.558  1.00  0.00     0.118 C 
HETATM    5  N1  UNL     1      21.412   1.004  52.490  1.00  0.00    -0.254 NA
HETATM    6  C6  UNL     1      21.487   2.331  52.300  1.00  0.00     0.234 C 
HETATM    7  N2  UNL     1      22.801   2.613  52.422  1.00  0.00    -0.225 NA
HETATM    8  C7  UNL     1      23.686   2.531  51.422  1.00  0.00     0.129 C 
HETATM    9  C14 UNL     1      24.425   1.515  51.985  1.00  0.00     0.051 C 
HETATM   10  C15 UNL     1      24.300   0.176  52.271  1.00  0.00     0.016 C 
ENDROOT
BRANCH   8  11
HETATM   11  N3  UNL     1      23.858   3.209  50.210  1.00  0.00    -0.341 N 
HETATM   12  H6  UNL     1      22.981   3.004  49.658  1.00  0.00     0.167 HD
BRANCH  11  13
HETATM   13  C8  UNL     1      24.888   4.018  49.684  1.00  0.00     0.034 A 
HETATM   14  C9  UNL     1      26.167   3.517  49.580  1.00  0.00     0.029 A 
HETATM   15  C10 UNL     1      27.187   4.289  49.072  1.00  0.00     0.004 A 
HETATM   16  C11 UNL     1      26.882   5.575  48.674  1.00  0.00     0.019 A 
HETATM   17  C12 UNL     1      25.593   6.049  48.790  1.00  0.00     0.013 A 
HETATM   18 BR1  UNL     1      25.235   7.826  48.227  1.00  0.00    -0.051 Br
HETATM   19  C13 UNL     1      24.558   5.298  49.294  1.00  0.00     0.048 A 
ENDBRANCH  11  13
ENDBRANCH   8  11
BRANCH   1  20
HETATM   20  C1  UNL     1      25.407  -0.576  53.803  1.00  0.00     0.092 C 
HETATM   21  S1  UNL     1      26.277   0.204  54.946  1.00  0.00    -0.092 SA
ENDBRANCH   1  20
TORSDOF 3
ENDMDL
MODEL 7
REMARK VINA RESULT:      -6.8      2.293      2.884
REMARK  3 active torsions:
REMARK  status: ('A' for Active; 'I' for Inactive)
REMARK    1  A    between atoms: C1_2  and  C2_3 
REMARK    2  A    between atoms: C7_10  and  N3_11 
REMARK    3  A    between atoms: N3_11  and  C8_12 
ROOT
HETATM    1  C2  UNL     1      26.784  -0.041  52.879  1.00  0.00    -0.026 C 
HETATM    2  C3  UNL     1      25.936  -0.914  53.531  1.00  0.00     0.013 C 
HETATM    3  C4  UNL     1      24.777  -0.551  54.187  1.00  0.00     0.020 C 
HETATM    4  C5  UNL     1      23.557  -0.320  53.577  1.00  0.00     0.118 C 
HETATM    5  N1  UNL     1      23.738   0.570  52.594  1.00  0.00    -0.254 NA
HETATM    6  C6  UNL     1      23.349   1.850  52.703  1.00  0.00     0.234 C 
HETATM    7  N2  UNL     1      24.502   2.551  52.725  1.00  0.00    -0.225 NA
HETATM    8  C7  UNL     1      25.159   2.958  51.633  1.00  0.00     0.129 C 
HETATM    9  C14 UNL     1      26.276   2.186  51.857  1.00  0.00     0.051 C 
HETATM   10  C15 UNL     1      26.641   0.860  51.845  1.00  0.00     0.016 C 
ENDROOT
BRANCH   8  11
HETATM   11  N3  UNL     1      24.871   3.851  50.595  1.00  0.00    -0.341 N 
HETATM   12  H6  UNL     1      25.532   4.663  50.744  1.00  0.00     0.167 HD
BRANCH  11  13
HETATM   13  C8  UNL     1      23.954   3.834  49.522  1.00  0.00     0.034 A 
HETATM   14  C9  UNL     1      23.329   2.657  49.174  1.00  0.00     0.029 A 
HETATM   15  C10 UNL     1      22.433   2.617  48.129  1.00  0.00     0.004 A 
HETATM   16  C11 UNL     1      22.187   3.792  47.449  1.00  0.00     0.019 A 
HETATM   17  C12 UNL     1      22.829   4.955  47.819  1.00  0.00     0.013 A 
HETATM   18 BR1  UNL     1      22.451   6.539  46.845  1.00  0.00    -0.051 Br
HETATM   19  C13 UNL     1      23.727   5.020  48.858  1.00  0.00     0.048 A 
ENDBRANCH  11  13
ENDBRANCH   8  11
BRANCH   1  20
HETATM   20  C1  UNL     1      28.202   0.294  53.021  1.00  0.00     0.092 C 
HETATM   21  S1  UNL     1      29.414  -0.529  53.744  1.00  0.00    -0.092 SA
ENDBRANCH   1  20
TORSDOF 3
ENDMDL
MODEL 8
REMARK VINA RESULT:      -6.8      3.640      7.400
REMARK  3 active torsions:
REMARK  status: ('A' for Active; 'I' for Inactive)
REMARK    1  A    between atoms: C1_2  and  C2_3 
REMARK    2  A    between atoms: C7_10  and  N3_11 
REMARK    3  A    between atoms: N3_11  and  C8_12 
ROOT
HETATM    1  C2  UNL     1      23.723   4.960  49.227  1.00  0.00    -0.026 C 
HETATM    2  C3  UNL     1      24.876   5.472  48.666  1.00  0.00     0.013 C 
HETATM    3  C4  UNL     1      26.130   5.412  49.240  1.00  0.00     0.020 C 
HETATM    4  C5  UNL     1      26.974   4.316  49.197  1.00  0.00     0.118 C 
HETATM    5  N1  UNL     1      26.298   3.246  49.635  1.00  0.00    -0.254 NA
HETATM    6  C6  UNL     1      26.504   2.714  50.850  1.00  0.00     0.234 C 
HETATM    7  N2  UNL     1      25.357   2.955  51.520  1.00  0.00    -0.225 NA
HETATM    8  C7  UNL     1      24.279   2.164  51.478  1.00  0.00     0.129 C 
HETATM    9  C14 UNL     1      23.462   3.091  50.870  1.00  0.00     0.051 C 
HETATM   10  C15 UNL     1      23.322   3.710  49.650  1.00  0.00     0.016 C 
ENDROOT
BRANCH   8  11
HETATM   11  N3  UNL     1      24.010   0.854  51.890  1.00  0.00    -0.341 N 
HETATM   12  H6  UNL     1      24.784   0.272  51.466  1.00  0.00     0.167 HD
BRANCH  11  13
HETATM   13  C8  UNL     1      22.997   0.270  52.681  1.00  0.00     0.034 A 
HETATM   14  C9  UNL     1      23.326  -0.349  53.866  1.00  0.00     0.029 A 
HETATM   15  C10 UNL     1      22.355  -0.927  54.652  1.00  0.00     0.004 A 
HETATM   16  C11 UNL     1      21.049  -0.864  54.210  1.00  0.00     0.019 A 
HETATM   17  C12 UNL     1      20.750  -0.238  53.018  1.00  0.00     0.013 A 
HETATM   18 BR1  UNL     1      18.936  -0.183  52.462  1.00  0.00    -0.051 Br
HETATM   19  C13 UNL     1      21.702   0.347  52.217  1.00  0.00     0.048 A 
ENDBRANCH  11  13
ENDBRANCH   8  11
BRANCH   1  20
HETATM   20  C1  UNL     1      22.436   5.540  49.611  1.00  0.00     0.092 C 
HETATM   21  S1  UNL     1      22.083   6.688  50.720  1.00  0.00    -0.092 SA
ENDBRANCH   1  20
TORSDOF 3
ENDMDL
MODEL 9
REMARK VINA RESULT:      -6.6      2.549      3.480
REMARK  3 active torsions:
REMARK  status: ('A' for Active; 'I' for Inactive)
REMARK    1  A    between atoms: C1_2  and  C2_3 
REMARK    2  A    between atoms: C7_10  and  N3_11 
REMARK    3  A    between atoms: N3_11  and  C8_12 
ROOT
HETATM    1  C2  UNL     1      23.351   1.593  51.930  1.00  0.00    -0.026 C 
HETATM    2  C3  UNL     1      23.647   0.835  53.045  1.00  0.00     0.013 C 
HETATM    3  C4  UNL     1      24.872   0.256  53.307  1.00  0.00     0.020 C 
HETATM    4  C5  UNL     1      25.962   0.911  53.853  1.00  0.00     0.118 C 
HETATM    5  N1  UNL     1      26.202   2.009  53.127  1.00  0.00    -0.254 NA
HETATM    6  C6  UNL     1      27.230   2.092  52.268  1.00  0.00     0.234 C 
HETATM    7  N2  UNL     1      26.647   2.153  51.052  1.00  0.00    -0.225 NA
HETATM    8  C7  UNL     1      26.219   3.283  50.477  1.00  0.00     0.129 C 
HETATM    9  C14 UNL     1      24.887   2.933  50.479  1.00  0.00     0.051 C 
HETATM   10  C15 UNL     1      23.863   2.749  51.378  1.00  0.00     0.016 C 
ENDROOT
BRANCH   8  11
HETATM   11  N3  UNL     1      26.847   4.443  50.012  1.00  0.00    -0.341 N 
HETATM   12  H6  UNL     1      27.814   4.418  50.441  1.00  0.00     0.167 HD
BRANCH  11  13
HETATM   13  C8  UNL     1      26.442   5.501  49.171  1.00  0.00     0.034 A 
HETATM   14  C9  UNL     1      25.103   5.792  49.034  1.00  0.00     0.029 A 
HETATM   15  C10 UNL     1      24.684   6.818  48.217  1.00  0.00     0.004 A 
HETATM   16  C11 UNL     1      25.650   7.538  47.544  1.00  0.00     0.019 A 
HETATM   17  C12 UNL     1      26.984   7.222  47.699  1.00  0.00     0.013 A 
HETATM   18 BR1  UNL     1      28.266   8.247  46.747  1.00  0.00    -0.051 Br
HETATM   19  C13 UNL     1      27.426   6.203  48.509  1.00  0.00     0.048 A 
ENDBRANCH  11  13
ENDBRANCH   8  11
BRANCH   1  20
HETATM   20  C1  UNL     1      22.360   1.480  50.859  1.00  0.00     0.092 C 
HETATM   21  S1  UNL     1      21.025   0.544  50.749  1.00  0.00    -0.092 SA
ENDBRANCH   1  20
TORSDOF 3
ENDMDL
