MODEL 1
REMARK VINA RESULT:      -7.8      0.000      0.000
REMARK  6 active torsions:
REMARK  status: ('A' for Active; 'I' for Inactive)
REMARK    1  A    between atoms: O1_1  and  C1_2 
REMARK    2  A    between atoms: C3_4  and  N1_5 
REMARK    3  A    between atoms: N1_5  and  C4_6 
REMARK    4  A    between atoms: C10_14  and  O2_15 
REMARK    5  A    between atoms: O2_15  and  C11_16 
REMARK    6  A    between atoms: C11_16  and  C12_17 
ROOT
HETATM    1  C1  UNL     1      22.484  -1.161  54.631  1.00  0.00     0.101 A 
HETATM    2  C2  UNL     1      21.093  -1.100  54.691  1.00  0.00     0.069 A 
HETATM    3  C3  UNL     1      20.482  -0.451  53.614  1.00  0.00     0.036 A 
HETATM    4  C8  UNL     1      21.166   0.100  52.551  1.00  0.00     0.032 A 
HETATM    5  C9  UNL     1      22.542   0.005  52.550  1.00  0.00     0.042 A 
HETATM    6  C10 UNL     1      23.231  -0.621  53.579  1.00  0.00     0.102 A 
ENDROOT
BRANCH   6   7
HETATM    7  O2  UNL     1      24.498  -0.732  53.619  1.00  0.00    -0.344 OA
BRANCH   7   8
HETATM    8  C11 UNL     1      25.741  -1.154  53.544  1.00  0.00     0.214 C 
BRANCH   8   9
HETATM    9  C12 UNL     1      26.670   0.048  53.488  1.00  0.00    -0.031 A 
HETATM   10  C13 UNL     1      27.694   0.272  54.383  1.00  0.00     0.009 A 
HETATM   11  C14 UNL     1      28.486   1.393  54.252  1.00  0.00     0.004 A 
HETATM   12  C15 UNL     1      28.279   2.318  53.228  1.00  0.00     0.042 A 
HETATM   13  C16 UNL     1      27.236   2.068  52.338  1.00  0.00     0.117 A 
HETATM   14  F1  UNL     1      27.033   2.981  51.332  1.00  0.00    -0.206 F 
HETATM   15  C17 UNL     1      26.429   0.952  52.447  1.00  0.00     0.051 A 
ENDBRANCH   8   9
ENDBRANCH   7   8
ENDBRANCH   6   7
BRANCH   1  16
HETATM   16  O1  UNL     1      23.048  -1.820  55.732  1.00  0.00    -0.358 OA
HETATM   17  H1  UNL     1      23.990  -2.199  55.548  1.00  0.00     0.217 HD
ENDBRANCH   1  16
BRANCH   3  18
HETATM   18  N1  UNL     1      19.065  -0.338  53.569  1.00  0.00    -0.341 N 
HETATM   19  H3  UNL     1      18.584   0.596  53.657  1.00  0.00     0.167 HD
BRANCH  18  20
HETATM   20  C4  UNL     1      18.160  -1.415  53.406  1.00  0.00     0.130 A 
HETATM   21  C5  UNL     1      17.077  -1.006  52.640  1.00  0.00     0.070 A 
HETATM   22  C6  UNL     1      16.040  -1.885  52.331  1.00  0.00     0.122 A 
HETATM   23  N2  UNL     1      16.135  -3.148  52.807  1.00  0.00    -0.254 NA
HETATM   24  C7  UNL     1      17.193  -3.538  53.551  1.00  0.00     0.234 A 
HETATM   25  N3  UNL     1      18.201  -2.694  53.856  1.00  0.00    -0.225 NA
ENDBRANCH  18  20
ENDBRANCH   3  18
TORSDOF 6
ENDMDL
MODEL 2
REMARK VINA RESULT:      -7.7      6.427      9.105
REMARK  6 active torsions:
REMARK  status: ('A' for Active; 'I' for Inactive)
REMARK    1  A    between atoms: O1_1  and  C1_2 
REMARK    2  A    between atoms: C3_4  and  N1_5 
REMARK    3  A    between atoms: N1_5  and  C4_6 
REMARK    4  A    between atoms: C10_14  and  O2_15 
REMARK    5  A    between atoms: O2_15  and  C11_16 
REMARK    6  A    between atoms: C11_16  and  C12_17 
ROOT
HETATM    1  C1  UNL     1      24.570   3.529  51.458  1.00  0.00     0.101 A 
HETATM    2  C2  UNL     1      24.610   4.677  50.671  1.00  0.00     0.069 A 
HETATM    3  C3  UNL     1      25.682   4.744  49.776  1.00  0.00     0.036 A 
HETATM    4  C8  UNL     1      26.648   3.768  49.648  1.00  0.00     0.032 A 
HETATM    5  C9  UNL     1      26.551   2.654  50.456  1.00  0.00     0.042 A 
HETATM    6  C10 UNL     1      25.520   2.506  51.373  1.00  0.00     0.102 A 
ENDROOT
BRANCH   6   7
HETATM    7  O2  UNL     1      25.390   1.497  52.138  1.00  0.00    -0.344 OA
BRANCH   7   8
HETATM    8  C11 UNL     1      25.482   0.321  52.718  1.00  0.00     0.214 C 
BRANCH   8   9
HETATM    9  C12 UNL     1      26.929   0.073  53.111  1.00  0.00    -0.031 A 
HETATM   10  C13 UNL     1      27.756   1.034  53.650  1.00  0.00     0.009 A 
HETATM   11  C14 UNL     1      29.058   0.715  53.975  1.00  0.00     0.004 A 
HETATM   12  C15 UNL     1      29.568  -0.568  53.771  1.00  0.00     0.042 A 
HETATM   13  C16 UNL     1      28.711  -1.520  53.223  1.00  0.00     0.117 A 
HETATM   14  F1  UNL     1      29.216  -2.781  53.022  1.00  0.00    -0.206 F 
HETATM   15  C17 UNL     1      27.403  -1.226  52.890  1.00  0.00     0.051 A 
ENDBRANCH   8   9
ENDBRANCH   7   8
ENDBRANCH   6   7
BRANCH   1  16
HETATM   16  O1  UNL     1      23.478   3.510  52.338  1.00  0.00    -0.358 OA
HETATM   17  H1  UNL     1      22.661   4.038  51.992  1.00  0.00     0.217 HD
ENDBRANCH   1  16
BRANCH   3  18
HETATM   18  N1  UNL     1      25.817   5.869  48.918  1.00  0.00    -0.341 N 
HETATM   19  H3  UNL     1      25.336   5.910  47.981  1.00  0.00     0.167 HD
BRANCH  18  20
HETATM   20  C4  UNL     1      26.582   7.028  49.198  1.00  0.00     0.130 A 
HETATM   21  C5  UNL     1      27.729   7.035  48.416  1.00  0.00     0.070 A 
HETATM   22  C6  UNL     1      28.653   8.074  48.501  1.00  0.00     0.122 A 
HETATM   23  N2  UNL     1      28.385   9.073  49.374  1.00  0.00    -0.254 NA
HETATM   24  C7  UNL     1      27.265   9.059  50.131  1.00  0.00     0.234 A 
HETATM   25  N3  UNL     1      26.365   8.057  50.056  1.00  0.00    -0.225 NA
ENDBRANCH  18  20
ENDBRANCH   3  18
TORSDOF 6
ENDMDL
MODEL 3
REMARK VINA RESULT:      -7.6      1.422      1.988
REMARK  6 active torsions:
REMARK  status: ('A' for Active; 'I' for Inactive)
REMARK    1  A    between atoms: O1_1  and  C1_2 
REMARK    2  A    between atoms: C3_4  and  N1_5 
REMARK    3  A    between atoms: N1_5  and  C4_6 
REMARK    4  A    between atoms: C10_14  and  O2_15 
REMARK    5  A    between atoms: O2_15  and  C11_16 
REMARK    6  A    between atoms: C11_16  and  C12_17 
ROOT
HETATM    1  C1  UNL     1      23.489  -0.598  54.026  1.00  0.00     0.101 A 
HETATM    2  C2  UNL     1      22.333  -1.210  54.506  1.00  0.00     0.069 A 
HETATM    3  C3  UNL     1      21.172  -0.931  53.780  1.00  0.00     0.036 A 
HETATM    4  C8  UNL     1      21.129  -0.118  52.667  1.00  0.00     0.032 A 
HETATM    5  C9  UNL     1      22.309   0.457  52.242  1.00  0.00     0.042 A 
HETATM    6  C10 UNL     1      23.508   0.235  52.904  1.00  0.00     0.102 A 
ENDROOT
BRANCH   6   7
HETATM    7  O2  UNL     1      24.619   0.743  52.548  1.00  0.00    -0.344 OA
BRANCH   7   8
HETATM    8  C11 UNL     1      25.658   1.185  51.874  1.00  0.00     0.214 C 
BRANCH   8   9
HETATM    9  C12 UNL     1      26.930   0.781  52.602  1.00  0.00    -0.031 A 
HETATM   10  C13 UNL     1      27.383  -0.516  52.698  1.00  0.00     0.009 A 
HETATM   11  C14 UNL     1      28.550  -0.787  53.382  1.00  0.00     0.004 A 
HETATM   12  C15 UNL     1      29.294   0.228  53.986  1.00  0.00     0.042 A 
HETATM   13  C16 UNL     1      28.812   1.530  53.874  1.00  0.00     0.117 A 
HETATM   14  F1  UNL     1      29.546   2.527  54.471  1.00  0.00    -0.206 F 
HETATM   15  C17 UNL     1      27.647   1.827  53.195  1.00  0.00     0.051 A 
ENDBRANCH   8   9
ENDBRANCH   7   8
ENDBRANCH   6   7
BRANCH   1  16
HETATM   16  O1  UNL     1      24.625  -0.909  54.788  1.00  0.00    -0.358 OA
HETATM   17  H1  UNL     1      24.514  -0.707  55.795  1.00  0.00     0.217 HD
ENDBRANCH   1  16
BRANCH   3  18
HETATM   18  N1  UNL     1      19.934  -1.508  54.176  1.00  0.00    -0.341 N 
HETATM   19  H3  UNL     1      19.848  -2.073  55.062  1.00  0.00     0.167 HD
BRANCH  18  20
HETATM   20  C4  UNL     1      18.714  -1.403  53.464  1.00  0.00     0.130 A 
HETATM   21  C5  UNL     1      17.967  -2.560  53.639  1.00  0.00     0.070 A 
HETATM   22  C6  UNL     1      16.718  -2.709  53.041  1.00  0.00     0.122 A 
HETATM   23  N2  UNL     1      16.265  -1.681  52.286  1.00  0.00    -0.254 NA
HETATM   24  C7  UNL     1      16.998  -0.557  52.122  1.00  0.00     0.234 A 
HETATM   25  N3  UNL     1      18.210  -0.405  52.696  1.00  0.00    -0.225 NA
ENDBRANCH  18  20
ENDBRANCH   3  18
TORSDOF 6
ENDMDL
MODEL 4
REMARK VINA RESULT:      -7.5      6.292      9.016
REMARK  6 active torsions:
REMARK  status: ('A' for Active; 'I' for Inactive)
REMARK    1  A    between atoms: O1_1  and  C1_2 
REMARK    2  A    between atoms: C3_4  and  N1_5 
REMARK    3  A    between atoms: N1_5  and  C4_6 
REMARK    4  A    between atoms: C10_14  and  O2_15 
REMARK    5  A    between atoms: O2_15  and  C11_16 
REMARK    6  A    between atoms: C11_16  and  C12_17 
ROOT
HETATM    1  C1  UNL     1      24.528   3.521  51.530  1.00  0.00     0.101 A 
HETATM    2  C2  UNL     1      24.557   4.661  50.729  1.00  0.00     0.069 A 
HETATM    3  C3  UNL     1      25.616   4.717  49.818  1.00  0.00     0.036 A 
HETATM    4  C8  UNL     1      26.579   3.739  49.688  1.00  0.00     0.032 A 
HETATM    5  C9  UNL     1      26.494   2.635  50.510  1.00  0.00     0.042 A 
HETATM    6  C10 UNL     1      25.476   2.498  51.444  1.00  0.00     0.102 A 
ENDROOT
BRANCH   6   7
HETATM    7  O2  UNL     1      25.357   1.497  52.221  1.00  0.00    -0.344 OA
BRANCH   7   8
HETATM    8  C11 UNL     1      25.370   0.301  52.765  1.00  0.00     0.214 C 
BRANCH   8   9
HETATM    9  C12 UNL     1      26.797  -0.054  53.152  1.00  0.00    -0.031 A 
HETATM   10  C13 UNL     1      27.411  -1.243  52.824  1.00  0.00     0.009 A 
HETATM   11  C14 UNL     1      28.711  -1.476  53.220  1.00  0.00     0.004 A 
HETATM   12  C15 UNL     1      29.432  -0.531  53.952  1.00  0.00     0.042 A 
HETATM   13  C16 UNL     1      28.786   0.662  54.271  1.00  0.00     0.117 A 
HETATM   14  F1  UNL     1      29.498   1.590  54.992  1.00  0.00    -0.206 F 
HETATM   15  C17 UNL     1      27.485   0.920  53.885  1.00  0.00     0.051 A 
ENDBRANCH   8   9
ENDBRANCH   7   8
ENDBRANCH   6   7
BRANCH   1  16
HETATM   16  O1  UNL     1      23.448   3.514  52.425  1.00  0.00    -0.358 OA
HETATM   17  H1  UNL     1      23.473   2.727  53.093  1.00  0.00     0.217 HD
ENDBRANCH   1  16
BRANCH   3  18
HETATM   18  N1  UNL     1      25.739   5.832  48.945  1.00  0.00    -0.341 N 
HETATM   19  H3  UNL     1      25.234   5.868  48.021  1.00  0.00     0.167 HD
BRANCH  18  20
HETATM   20  C4  UNL     1      26.522   6.986  49.193  1.00  0.00     0.130 A 
HETATM   21  C5  UNL     1      27.629   6.992  48.356  1.00  0.00     0.070 A 
HETATM   22  C6  UNL     1      28.561   8.027  48.401  1.00  0.00     0.122 A 
HETATM   23  N2  UNL     1      28.341   9.023  49.291  1.00  0.00    -0.254 NA
HETATM   24  C7  UNL     1      27.259   9.010  50.101  1.00  0.00     0.234 A 
HETATM   25  N3  UNL     1      26.352   8.011  50.066  1.00  0.00    -0.225 NA
ENDBRANCH  18  20
ENDBRANCH   3  18
TORSDOF 6
ENDMDL
MODEL 5
REMARK VINA RESULT:      -7.5      5.702      8.012
REMARK  6 active torsions:
REMARK  status: ('A' for Active; 'I' for Inactive)
REMARK    1  A    between atoms: O1_1  and  C1_2 
REMARK    2  A    between atoms: C3_4  and  N1_5 
REMARK    3  A    between atoms: N1_5  and  C4_6 
REMARK    4  A    between atoms: C10_14  and  O2_15 
REMARK    5  A    between atoms: O2_15  and  C11_16 
REMARK    6  A    between atoms: C11_16  and  C12_17 
ROOT
HETATM    1  C1  UNL     1      24.636   3.255  52.176  1.00  0.00     0.101 A 
HETATM    2  C2  UNL     1      24.752   2.171  53.043  1.00  0.00     0.069 A 
HETATM    3  C3  UNL     1      25.718   1.226  52.682  1.00  0.00     0.036 A 
HETATM    4  C8  UNL     1      26.517   1.323  51.562  1.00  0.00     0.032 A 
HETATM    5  C9  UNL     1      26.353   2.421  50.745  1.00  0.00     0.042 A 
HETATM    6  C10 UNL     1      25.417   3.407  51.027  1.00  0.00     0.102 A 
ENDROOT
BRANCH   6   7
HETATM    7  O2  UNL     1      25.232   4.437  50.302  1.00  0.00    -0.344 OA
BRANCH   7   8
HETATM    8  C11 UNL     1      25.049   5.275  49.306  1.00  0.00     0.214 C 
BRANCH   8   9
HETATM    9  C12 UNL     1      26.376   5.929  48.957  1.00  0.00    -0.031 A 
HETATM   10  C13 UNL     1      26.599   7.288  48.999  1.00  0.00     0.009 A 
HETATM   11  C14 UNL     1      27.838   7.791  48.663  1.00  0.00     0.004 A 
HETATM   12  C15 UNL     1      28.886   6.952  48.279  1.00  0.00     0.042 A 
HETATM   13  C16 UNL     1      28.633   5.583  48.244  1.00  0.00     0.117 A 
HETATM   14  F1  UNL     1      29.665   4.760  47.864  1.00  0.00    -0.206 F 
HETATM   15  C17 UNL     1      27.401   5.055  48.576  1.00  0.00     0.051 A 
ENDBRANCH   8   9
ENDBRANCH   7   8
ENDBRANCH   6   7
BRANCH   1  16
HETATM   16  O1  UNL     1      23.655   4.172  52.581  1.00  0.00    -0.358 OA
HETATM   17  H1  UNL     1      22.710   3.946  52.231  1.00  0.00     0.217 HD
ENDBRANCH   1  16
BRANCH   3  18
HETATM   18  N1  UNL     1      25.928   0.082  53.499  1.00  0.00    -0.341 N 
HETATM   19  H3  UNL     1      25.231  -0.206  54.234  1.00  0.00     0.167 HD
BRANCH  18  20
HETATM   20  C4  UNL     1      27.051  -0.779  53.433  1.00  0.00     0.130 A 
HETATM   21  C5  UNL     1      28.155  -0.157  53.998  1.00  0.00     0.070 A 
HETATM   22  C6  UNL     1      29.391  -0.798  54.059  1.00  0.00     0.122 A 
HETATM   23  N2  UNL     1      29.468  -2.048  53.547  1.00  0.00    -0.254 NA
HETATM   24  C7  UNL     1      28.387  -2.647  52.999  1.00  0.00     0.234 A 
HETATM   25  N3  UNL     1      27.187  -2.034  52.935  1.00  0.00    -0.225 NA
ENDBRANCH  18  20
ENDBRANCH   3  18
TORSDOF 6
ENDMDL
MODEL 6
REMARK VINA RESULT:      -7.5      2.054      2.767
REMARK  6 active torsions:
REMARK  status: ('A' for Active; 'I' for Inactive)
REMARK    1  A    between atoms: O1_1  and  C1_2 
REMARK    2  A    between atoms: C3_4  and  N1_5 
REMARK    3  A    between atoms: N1_5  and  C4_6 
REMARK    4  A    between atoms: C10_14  and  O2_15 
REMARK    5  A    between atoms: O2_15  and  C11_16 
REMARK    6  A    between atoms: C11_16  and  C12_17 
ROOT
HETATM    1  C1  UNL     1      22.439  -1.176  54.694  1.00  0.00     0.101 A 
HETATM    2  C2  UNL     1      21.067  -1.148  54.450  1.00  0.00     0.069 A 
HETATM    3  C3  UNL     1      20.679  -0.396  53.338  1.00  0.00     0.036 A 
HETATM    4  C8  UNL     1      21.555   0.283  52.517  1.00  0.00     0.032 A 
HETATM    5  C9  UNL     1      22.900   0.216  52.811  1.00  0.00     0.042 A 
HETATM    6  C10 UNL     1      23.374  -0.508  53.897  1.00  0.00     0.102 A 
ENDROOT
BRANCH   6   7
HETATM    7  O2  UNL     1      24.605  -0.598  54.206  1.00  0.00    -0.344 OA
BRANCH   7   8
HETATM    8  C11 UNL     1      25.751  -0.770  54.827  1.00  0.00     0.214 C 
BRANCH   8   9
HETATM    9  C12 UNL     1      26.753   0.251  54.310  1.00  0.00    -0.031 A 
HETATM   10  C13 UNL     1      26.428   1.548  53.977  1.00  0.00     0.009 A 
HETATM   11  C14 UNL     1      27.405   2.404  53.515  1.00  0.00     0.004 A 
HETATM   12  C15 UNL     1      28.731   1.989  53.375  1.00  0.00     0.042 A 
HETATM   13  C16 UNL     1      29.032   0.673  53.719  1.00  0.00     0.117 A 
HETATM   14  F1  UNL     1      30.337   0.267  53.578  1.00  0.00    -0.206 F 
HETATM   15  C17 UNL     1      28.071  -0.203  54.184  1.00  0.00     0.051 A 
ENDBRANCH   8   9
ENDBRANCH   7   8
ENDBRANCH   6   7
BRANCH   1  16
HETATM   16  O1  UNL     1      22.776  -1.943  55.819  1.00  0.00    -0.358 OA
HETATM   17  H1  UNL     1      23.097  -2.896  55.586  1.00  0.00     0.217 HD
ENDBRANCH   1  16
BRANCH   3  18
HETATM   18  N1  UNL     1      19.303  -0.305  52.991  1.00  0.00    -0.341 N 
HETATM   19  H3  UNL     1      18.573  -0.892  53.473  1.00  0.00     0.167 HD
BRANCH  18  20
HETATM   20  C4  UNL     1      18.762   0.548  51.998  1.00  0.00     0.130 A 
HETATM   21  C5  UNL     1      18.101  -0.207  51.039  1.00  0.00     0.070 A 
HETATM   22  C6  UNL     1      17.476   0.398  49.951  1.00  0.00     0.122 A 
HETATM   23  N2  UNL     1      17.539   1.748  49.870  1.00  0.00    -0.254 NA
HETATM   24  C7  UNL     1      18.183   2.475  50.809  1.00  0.00     0.234 A 
HETATM   25  N3  UNL     1      18.792   1.898  51.866  1.00  0.00    -0.225 NA
ENDBRANCH  18  20
ENDBRANCH   3  18
TORSDOF 6
ENDMDL
MODEL 7
REMARK VINA RESULT:      -7.4      4.176      7.752
REMARK  6 active torsions:
REMARK  status: ('A' for Active; 'I' for Inactive)
REMARK    1  A    between atoms: O1_1  and  C1_2 
REMARK    2  A    between atoms: C3_4  and  N1_5 
REMARK    3  A    between atoms: N1_5  and  C4_6 
REMARK    4  A    between atoms: C10_14  and  O2_15 
REMARK    5  A    between atoms: O2_15  and  C11_16 
REMARK    6  A    between atoms: C11_16  and  C12_17 
ROOT
HETATM    1  C1  UNL     1      22.543  -0.904  54.246  1.00  0.00     0.101 A 
HETATM    2  C2  UNL     1      23.739  -1.097  54.935  1.00  0.00     0.069 A 
HETATM    3  C3  UNL     1      24.858  -0.491  54.358  1.00  0.00     0.036 A 
HETATM    4  C8  UNL     1      24.826   0.251  53.196  1.00  0.00     0.032 A 
HETATM    5  C9  UNL     1      23.611   0.405  52.562  1.00  0.00     0.042 A 
HETATM    6  C10 UNL     1      22.449  -0.162  53.065  1.00  0.00     0.102 A 
ENDROOT
BRANCH   6   7
HETATM    7  O2  UNL     1      21.307  -0.046  52.515  1.00  0.00    -0.344 OA
BRANCH   7   8
HETATM    8  C11 UNL     1      20.301   0.256  51.724  1.00  0.00     0.214 C 
BRANCH   8   9
HETATM    9  C12 UNL     1      20.750   1.317  50.733  1.00  0.00    -0.031 A 
HETATM   10  C13 UNL     1      20.544   2.668  50.906  1.00  0.00     0.009 A 
HETATM   11  C14 UNL     1      20.987   3.558  49.950  1.00  0.00     0.004 A 
HETATM   12  C15 UNL     1      21.646   3.124  48.798  1.00  0.00     0.042 A 
HETATM   13  C16 UNL     1      21.840   1.753  48.648  1.00  0.00     0.117 A 
HETATM   14  F1  UNL     1      22.487   1.329  47.513  1.00  0.00    -0.206 F 
HETATM   15  C17 UNL     1      21.406   0.842  49.591  1.00  0.00     0.051 A 
ENDBRANCH   8   9
ENDBRANCH   7   8
ENDBRANCH   6   7
BRANCH   1  16
HETATM   16  O1  UNL     1      21.452  -1.531  54.865  1.00  0.00    -0.358 OA
HETATM   17  H1  UNL     1      21.314  -2.509  54.565  1.00  0.00     0.217 HD
ENDBRANCH   1  16
BRANCH   3  18
HETATM   18  N1  UNL     1      26.130  -0.617  54.980  1.00  0.00    -0.341 N 
HETATM   19  H3  UNL     1      26.266  -1.206  55.843  1.00  0.00     0.167 HD
BRANCH  18  20
HETATM   20  C4  UNL     1      27.325   0.006  54.541  1.00  0.00     0.130 A 
HETATM   21  C5  UNL     1      28.136  -0.927  53.910  1.00  0.00     0.070 A 
HETATM   22  C6  UNL     1      29.374  -0.566  53.382  1.00  0.00     0.122 A 
HETATM   23  N2  UNL     1      29.749   0.728  53.510  1.00  0.00    -0.254 NA
HETATM   24  C7  UNL     1      28.953   1.630  54.126  1.00  0.00     0.234 A 
HETATM   25  N3  UNL     1      27.753   1.290  54.640  1.00  0.00    -0.225 NA
ENDBRANCH  18  20
ENDBRANCH   3  18
TORSDOF 6
ENDMDL
MODEL 8
REMARK VINA RESULT:      -7.3      4.364      8.899
REMARK  6 active torsions:
REMARK  status: ('A' for Active; 'I' for Inactive)
REMARK    1  A    between atoms: O1_1  and  C1_2 
REMARK    2  A    between atoms: C3_4  and  N1_5 
REMARK    3  A    between atoms: N1_5  and  C4_6 
REMARK    4  A    between atoms: C10_14  and  O2_15 
REMARK    5  A    between atoms: O2_15  and  C11_16 
REMARK    6  A    between atoms: C11_16  and  C12_17 
ROOT
HETATM    1  C1  UNL     1      23.349   0.582  52.425  1.00  0.00     0.101 A 
HETATM    2  C2  UNL     1      24.636   0.384  52.919  1.00  0.00     0.069 A 
HETATM    3  C3  UNL     1      24.713  -0.403  54.071  1.00  0.00     0.036 A 
HETATM    4  C8  UNL     1      23.622  -0.962  54.703  1.00  0.00     0.032 A 
HETATM    5  C9  UNL     1      22.374  -0.730  54.164  1.00  0.00     0.042 A 
HETATM    6  C10 UNL     1      22.206   0.041  53.021  1.00  0.00     0.102 A 
ENDROOT
BRANCH   6   7
HETATM    7  O2  UNL     1      21.075   0.282  52.489  1.00  0.00    -0.344 OA
BRANCH   7   8
HETATM    8  C11 UNL     1      20.098   0.628  51.681  1.00  0.00     0.214 C 
BRANCH   8   9
HETATM    9  C12 UNL     1      18.855  -0.173  52.034  1.00  0.00    -0.031 A 
HETATM   10  C13 UNL     1      18.733  -0.944  53.169  1.00  0.00     0.009 A 
HETATM   11  C14 UNL     1      17.564  -1.638  53.406  1.00  0.00     0.004 A 
HETATM   12  C15 UNL     1      16.488  -1.579  52.518  1.00  0.00     0.042 A 
HETATM   13  C16 UNL     1      16.639  -0.792  51.378  1.00  0.00     0.117 A 
HETATM   14  F1  UNL     1      15.580  -0.738  50.505  1.00  0.00    -0.206 F 
HETATM   15  C17 UNL     1      17.799  -0.088  51.119  1.00  0.00     0.051 A 
ENDBRANCH   8   9
ENDBRANCH   7   8
ENDBRANCH   6   7
BRANCH   1  16
HETATM   16  O1  UNL     1      23.326   1.377  51.270  1.00  0.00    -0.358 OA
HETATM   17  H1  UNL     1      23.177   0.839  50.402  1.00  0.00     0.217 HD
ENDBRANCH   1  16
BRANCH   3  18
HETATM   18  N1  UNL     1      25.979  -0.677  54.658  1.00  0.00    -0.341 N 
HETATM   19  H3  UNL     1      26.096  -1.422  55.394  1.00  0.00     0.167 HD
BRANCH  18  20
HETATM   20  C4  UNL     1      27.191  -0.015  54.341  1.00  0.00     0.130 A 
HETATM   21  C5  UNL     1      28.095  -0.921  53.804  1.00  0.00     0.070 A 
HETATM   22  C6  UNL     1      29.368  -0.519  53.406  1.00  0.00     0.122 A 
HETATM   23  N2  UNL     1      29.684   0.788  53.565  1.00  0.00    -0.254 NA
HETATM   24  C7  UNL     1      28.797   1.663  54.087  1.00  0.00     0.234 A 
HETATM   25  N3  UNL     1      27.562   1.283  54.476  1.00  0.00    -0.225 NA
ENDBRANCH  18  20
ENDBRANCH   3  18
TORSDOF 6
ENDMDL
MODEL 9
REMARK VINA RESULT:      -7.2      7.115     10.851
REMARK  6 active torsions:
REMARK  status: ('A' for Active; 'I' for Inactive)
REMARK    1  A    between atoms: O1_1  and  C1_2 
REMARK    2  A    between atoms: C3_4  and  N1_5 
REMARK    3  A    between atoms: N1_5  and  C4_6 
REMARK    4  A    between atoms: C10_14  and  O2_15 
REMARK    5  A    between atoms: O2_15  and  C11_16 
REMARK    6  A    between atoms: C11_16  and  C12_17 
ROOT
HETATM    1  C1  UNL     1      24.875   6.756  50.708  1.00  0.00     0.101 A 
HETATM    2  C2  UNL     1      25.792   7.407  49.886  1.00  0.00     0.069 A 
HETATM    3  C3  UNL     1      26.504   6.573  49.018  1.00  0.00     0.036 A 
HETATM    4  C8  UNL     1      26.341   5.206  48.948  1.00  0.00     0.032 A 
HETATM    5  C9  UNL     1      25.415   4.622  49.788  1.00  0.00     0.042 A 
HETATM    6  C10 UNL     1      24.665   5.374  50.682  1.00  0.00     0.102 A 
ENDROOT
BRANCH   6   7
HETATM    7  O2  UNL     1      23.801   4.879  51.474  1.00  0.00    -0.344 OA
BRANCH   7   8
HETATM    8  C11 UNL     1      23.167   4.369  52.507  1.00  0.00     0.214 C 
BRANCH   8   9
HETATM    9  C12 UNL     1      23.636   2.939  52.720  1.00  0.00    -0.031 A 
HETATM   10  C13 UNL     1      24.881   2.601  53.204  1.00  0.00     0.009 A 
HETATM   11  C14 UNL     1      25.218   1.273  53.364  1.00  0.00     0.004 A 
HETATM   12  C15 UNL     1      24.324   0.250  53.045  1.00  0.00     0.042 A 
HETATM   13  C16 UNL     1      23.073   0.619  52.556  1.00  0.00     0.117 A 
HETATM   14  F1  UNL     1      22.196  -0.390  52.242  1.00  0.00    -0.206 F 
HETATM   15  C17 UNL     1      22.711   1.942  52.388  1.00  0.00     0.051 A 
ENDBRANCH   8   9
ENDBRANCH   7   8
ENDBRANCH   6   7
BRANCH   1  16
HETATM   16  O1  UNL     1      24.188   7.635  51.558  1.00  0.00    -0.358 OA
HETATM   17  H1  UNL     1      24.478   8.620  51.454  1.00  0.00     0.217 HD
ENDBRANCH   1  16
BRANCH   3  18
HETATM   18  N1  UNL     1      27.462   7.131  48.128  1.00  0.00    -0.341 N 
HETATM   19  H3  UNL     1      27.288   7.179  47.090  1.00  0.00     0.167 HD
BRANCH  18  20
HETATM   20  C4  UNL     1      28.716   7.671  48.505  1.00  0.00     0.130 A 
HETATM   21  C5  UNL     1      29.716   6.735  48.284  1.00  0.00     0.070 A 
HETATM   22  C6  UNL     1      31.049   7.022  48.573  1.00  0.00     0.122 A 
HETATM   23  N2  UNL     1      31.325   8.248  49.075  1.00  0.00    -0.254 NA
HETATM   24  C7  UNL     1      30.345   9.154  49.286  1.00  0.00     0.234 A 
HETATM   25  N3  UNL     1      29.052   8.885  49.011  1.00  0.00    -0.225 NA
ENDBRANCH  18  20
ENDBRANCH   3  18
TORSDOF 6
ENDMDL
