MODEL 1
REMARK VINA RESULT:      -6.6      0.000      0.000
REMARK  5 active torsions:
REMARK  status: ('A' for Active; 'I' for Inactive)
REMARK    1  A    between atoms: C4_4  and  C5_5 
REMARK    2  A    between atoms: C9_11  and  O1_12 
REMARK    3  A    between atoms: O1_12  and  C10_13 
REMARK    4  A    between atoms: C10_13  and  C11_14 
REMARK    5  A    between atoms: C11_14  and  O2_15 
ROOT
HETATM    1  C1  UNL     1      15.154  -1.407  50.928  1.00  0.00     0.017 C 
HETATM    2  C2  UNL     1      16.202  -0.824  51.030  1.00  0.00    -0.089 C 
HETATM    3  C3  UNL     1      17.459  -0.151  51.149  1.00  0.00     0.063 C 
HETATM    4  C4  UNL     1      18.393  -0.488  52.031  1.00  0.00     0.011 C 
ENDROOT
BRANCH   4   5
HETATM    5  C5  UNL     1      19.628   0.237  52.089  1.00  0.00     0.028 C 
HETATM    6  C6  UNL     1      20.495   0.044  53.062  1.00  0.00     0.045 C 
HETATM    7  N1  UNL     1      20.251  -0.901  54.117  1.00  0.00    -0.353 N 
HETATM    8  C15 UNL     1      21.792   0.753  53.200  1.00  0.00     0.297 C 
HETATM    9  C7  UNL     1      21.441  -1.456  54.661  1.00  0.00     0.201 C 
HETATM   10  H5  UNL     1      19.276  -1.120  54.409  1.00  0.00     0.166 HD
HETATM   11  N2  UNL     1      22.645  -1.198  54.308  1.00  0.00    -0.274 NA
HETATM   12  C8  UNL     1      22.885  -0.256  53.254  1.00  0.00     0.177 C 
HETATM   13  C9  UNL     1      24.248   0.401  53.329  1.00  0.00     0.150 C 
HETATM   14  C13 UNL     1      24.346   1.249  52.058  1.00  0.00     0.064 C 
HETATM   15  C14 UNL     1      23.249   2.267  52.047  1.00  0.00     0.273 C 
HETATM   16  N3  UNL     1      21.927   1.671  52.083  1.00  0.00     0.096 N 
HETATM   17  H20 UNL     1      21.256   2.458  52.269  1.00  0.00     0.316 HD
BRANCH  13  18
HETATM   18  O1  UNL     1      25.240  -0.540  53.405  1.00  0.00    -0.382 OA
BRANCH  18  19
HETATM   19  C10 UNL     1      26.150  -0.155  54.392  1.00  0.00     0.194 C 
BRANCH  19  20
HETATM   20  C11 UNL     1      27.514   0.106  53.847  1.00  0.00     0.193 C 
BRANCH  20  21
HETATM   21  O2  UNL     1      28.354  -0.942  54.117  1.00  0.00    -0.394 OA
HETATM   22  C12 UNL     1      29.676  -0.771  53.803  1.00  0.00     0.201 C 
ENDBRANCH  20  21
ENDBRANCH  19  20
ENDBRANCH  18  19
ENDBRANCH  13  18
ENDBRANCH   4   5
TORSDOF 5
ENDMDL
MODEL 2
REMARK VINA RESULT:      -6.4      2.933      7.987
REMARK  5 active torsions:
REMARK  status: ('A' for Active; 'I' for Inactive)
REMARK    1  A    between atoms: C4_4  and  C5_5 
REMARK    2  A    between atoms: C9_11  and  O1_12 
REMARK    3  A    between atoms: O1_12  and  C10_13 
REMARK    4  A    between atoms: C10_13  and  C11_14 
REMARK    5  A    between atoms: C11_14  and  O2_15 
ROOT
HETATM    1  C1  UNL     1      30.092  -0.542  53.453  1.00  0.00     0.017 C 
HETATM    2  C2  UNL     1      28.921  -0.445  53.714  1.00  0.00    -0.089 C 
HETATM    3  C3  UNL     1      27.525  -0.353  54.018  1.00  0.00     0.063 C 
HETATM    4  C4  UNL     1      26.564  -0.701  53.171  1.00  0.00     0.011 C 
ENDROOT
BRANCH   4   5
HETATM    5  C5  UNL     1      25.187  -0.577  53.550  1.00  0.00     0.028 C 
HETATM    6  C6  UNL     1      24.418   0.370  53.053  1.00  0.00     0.045 C 
HETATM    7  N1  UNL     1      24.916   1.331  52.108  1.00  0.00    -0.353 N 
HETATM    8  C15 UNL     1      22.987   0.571  53.393  1.00  0.00     0.297 C 
HETATM    9  C7  UNL     1      23.918   1.817  51.220  1.00  0.00     0.201 C 
HETATM   10  H5  UNL     1      25.921   1.604  52.118  1.00  0.00     0.166 HD
HETATM   11  N2  UNL     1      22.681   1.487  51.194  1.00  0.00    -0.274 NA
HETATM   12  C8  UNL     1      22.187   0.526  52.137  1.00  0.00     0.177 C 
HETATM   13  C9  UNL     1      20.704   0.659  52.416  1.00  0.00     0.150 C 
HETATM   14  C13 UNL     1      20.368  -0.526  53.326  1.00  0.00     0.064 C 
HETATM   15  C14 UNL     1      21.169  -0.437  54.585  1.00  0.00     0.273 C 
HETATM   16  N3  UNL     1      22.600  -0.454  54.345  1.00  0.00     0.096 N 
HETATM   17  H20 UNL     1      23.053  -0.192  55.256  1.00  0.00     0.316 HD
BRANCH  13  18
HETATM   18  O1  UNL     1      19.986   0.643  51.251  1.00  0.00    -0.382 OA
BRANCH  18  19
HETATM   19  C10 UNL     1      18.777   1.313  51.459  1.00  0.00     0.194 C 
BRANCH  19  20
HETATM   20  C11 UNL     1      18.853   2.761  51.107  1.00  0.00     0.193 C 
BRANCH  20  21
HETATM   21  O2  UNL     1      18.129   3.514  51.993  1.00  0.00    -0.394 OA
HETATM   22  C12 UNL     1      16.982   4.093  51.518  1.00  0.00     0.201 C 
ENDBRANCH  20  21
ENDBRANCH  19  20
ENDBRANCH  18  19
ENDBRANCH  13  18
ENDBRANCH   4   5
TORSDOF 5
ENDMDL
MODEL 3
REMARK VINA RESULT:      -6.3      3.195      7.456
REMARK  5 active torsions:
REMARK  status: ('A' for Active; 'I' for Inactive)
REMARK    1  A    between atoms: C4_4  and  C5_5 
REMARK    2  A    between atoms: C9_11  and  O1_12 
REMARK    3  A    between atoms: O1_12  and  C10_13 
REMARK    4  A    between atoms: C10_13  and  C11_14 
REMARK    5  A    between atoms: C11_14  and  O2_15 
ROOT
HETATM    1  C1  UNL     1      30.010  -0.486  53.452  1.00  0.00     0.017 C 
HETATM    2  C2  UNL     1      28.815  -0.494  53.596  1.00  0.00    -0.089 C 
HETATM    3  C3  UNL     1      27.392  -0.519  53.750  1.00  0.00     0.063 C 
HETATM    4  C4  UNL     1      26.542  -0.279  52.759  1.00  0.00     0.011 C 
ENDROOT
BRANCH   4   5
HETATM    5  C5  UNL     1      25.128  -0.322  52.993  1.00  0.00     0.028 C 
HETATM    6  C6  UNL     1      24.409   0.779  53.071  1.00  0.00     0.045 C 
HETATM    7  N1  UNL     1      25.001   2.081  52.928  1.00  0.00    -0.353 N 
HETATM    8  C15 UNL     1      22.946   0.825  53.314  1.00  0.00     0.297 C 
HETATM    9  C7  UNL     1      24.106   3.050  52.396  1.00  0.00     0.201 C 
HETATM   10  H5  UNL     1      25.994   2.239  53.200  1.00  0.00     0.166 HD
HETATM   11  N2  UNL     1      22.886   2.869  52.054  1.00  0.00    -0.274 NA
HETATM   12  C8  UNL     1      22.299   1.568  52.196  1.00  0.00     0.177 C 
HETATM   13  C9  UNL     1      20.792   1.598  52.346  1.00  0.00     0.150 C 
HETATM   14  C13 UNL     1      20.368   0.126  52.345  1.00  0.00     0.064 C 
HETATM   15  C14 UNL     1      21.015  -0.584  53.492  1.00  0.00     0.273 C 
HETATM   16  N3  UNL     1      22.464  -0.539  53.436  1.00  0.00     0.096 N 
HETATM   17  H20 UNL     1      22.803  -0.885  54.369  1.00  0.00     0.316 HD
BRANCH  13  18
HETATM   18  O1  UNL     1      20.215   2.306  51.326  1.00  0.00    -0.382 OA
BRANCH  18  19
HETATM   19  C10 UNL     1      19.829   1.415  50.321  1.00  0.00     0.194 C 
BRANCH  19  20
HETATM   20  C11 UNL     1      20.239   1.868  48.960  1.00  0.00     0.193 C 
BRANCH  20  21
HETATM   21  O2  UNL     1      21.411   1.269  48.582  1.00  0.00    -0.394 OA
HETATM   22  C12 UNL     1      22.456   2.098  48.269  1.00  0.00     0.201 C 
ENDBRANCH  20  21
ENDBRANCH  19  20
ENDBRANCH  18  19
ENDBRANCH  13  18
ENDBRANCH   4   5
TORSDOF 5
ENDMDL
MODEL 4
REMARK VINA RESULT:      -6.2      3.922      7.707
REMARK  5 active torsions:
REMARK  status: ('A' for Active; 'I' for Inactive)
REMARK    1  A    between atoms: C4_4  and  C5_5 
REMARK    2  A    between atoms: C9_11  and  O1_12 
REMARK    3  A    between atoms: O1_12  and  C10_13 
REMARK    4  A    between atoms: C10_13  and  C11_14 
REMARK    5  A    between atoms: C11_14  and  O2_15 
ROOT
HETATM    1  C1  UNL     1      27.230   7.853  47.061  1.00  0.00     0.017 C 
HETATM    2  C2  UNL     1      27.289   6.929  47.829  1.00  0.00    -0.089 C 
HETATM    3  C3  UNL     1      27.352   5.815  48.726  1.00  0.00     0.063 C 
HETATM    4  C4  UNL     1      26.351   4.962  48.910  1.00  0.00     0.011 C 
ENDROOT
BRANCH   4   5
HETATM    5  C5  UNL     1      26.491   3.870  49.828  1.00  0.00     0.028 C 
HETATM    6  C6  UNL     1      25.682   3.727  50.858  1.00  0.00     0.045 C 
HETATM    7  N1  UNL     1      24.618   4.657  51.119  1.00  0.00    -0.353 N 
HETATM    8  C15 UNL     1      25.759   2.631  51.856  1.00  0.00     0.297 C 
HETATM    9  C7  UNL     1      23.509   4.069  51.786  1.00  0.00     0.201 C 
HETATM   10  H5  UNL     1      24.705   5.651  50.821  1.00  0.00     0.166 HD
HETATM   11  N2  UNL     1      23.387   2.849  52.153  1.00  0.00    -0.274 NA
HETATM   12  C8  UNL     1      24.450   1.922  51.890  1.00  0.00     0.177 C 
HETATM   13  C9  UNL     1      24.477   0.746  52.844  1.00  0.00     0.150 C 
HETATM   14  C13 UNL     1      25.583  -0.168  52.308  1.00  0.00     0.064 C 
HETATM   15  C14 UNL     1      26.887   0.565  52.310  1.00  0.00     0.273 C 
HETATM   16  N3  UNL     1      26.861   1.761  51.488  1.00  0.00     0.096 N 
HETATM   17  H20 UNL     1      27.740   2.290  51.715  1.00  0.00     0.316 HD
BRANCH  13  18
HETATM   18  O1  UNL     1      23.259   0.122  52.884  1.00  0.00    -0.382 OA
BRANCH  18  19
HETATM   19  C10 UNL     1      23.210  -0.697  54.014  1.00  0.00     0.194 C 
BRANCH  19  20
HETATM   20  C11 UNL     1      21.916  -0.588  54.749  1.00  0.00     0.193 C 
BRANCH  20  21
HETATM   21  O2  UNL     1      20.946  -1.340  54.139  1.00  0.00    -0.394 OA
HETATM   22  C12 UNL     1      19.917  -0.658  53.548  1.00  0.00     0.201 C 
ENDBRANCH  20  21
ENDBRANCH  19  20
ENDBRANCH  18  19
ENDBRANCH  13  18
ENDBRANCH   4   5
TORSDOF 5
ENDMDL
MODEL 5
REMARK VINA RESULT:      -6.0      3.633      7.966
REMARK  5 active torsions:
REMARK  status: ('A' for Active; 'I' for Inactive)
REMARK    1  A    between atoms: C4_4  and  C5_5 
REMARK    2  A    between atoms: C9_11  and  O1_12 
REMARK    3  A    between atoms: O1_12  and  C10_13 
REMARK    4  A    between atoms: C10_13  and  C11_14 
REMARK    5  A    between atoms: C11_14  and  O2_15 
ROOT
HETATM    1  C1  UNL     1      28.324   6.185  47.867  1.00  0.00     0.017 C 
HETATM    2  C2  UNL     1      27.816   5.339  48.555  1.00  0.00    -0.089 C 
HETATM    3  C3  UNL     1      27.195   4.329  49.357  1.00  0.00     0.063 C 
HETATM    4  C4  UNL     1      25.908   4.337  49.682  1.00  0.00     0.011 C 
ENDROOT
BRANCH   4   5
HETATM    5  C5  UNL     1      25.360   3.288  50.492  1.00  0.00     0.028 C 
HETATM    6  C6  UNL     1      24.440   3.530  51.403  1.00  0.00     0.045 C 
HETATM    7  N1  UNL     1      23.938   4.856  51.638  1.00  0.00    -0.353 N 
HETATM    8  C15 UNL     1      23.824   2.506  52.284  1.00  0.00     0.297 C 
HETATM    9  C7  UNL     1      22.598   4.874  52.112  1.00  0.00     0.201 C 
HETATM   10  H5  UNL     1      24.542   5.685  51.458  1.00  0.00     0.166 HD
HETATM   11  N2  UNL     1      21.844   3.864  52.334  1.00  0.00    -0.274 NA
HETATM   12  C8  UNL     1      22.347   2.541  52.096  1.00  0.00     0.177 C 
HETATM   13  C9  UNL     1      21.655   1.475  52.919  1.00  0.00     0.150 C 
HETATM   14  C13 UNL     1      22.241   0.151  52.418  1.00  0.00     0.064 C 
HETATM   15  C14 UNL     1      23.720   0.139  52.643  1.00  0.00     0.273 C 
HETATM   16  N3  UNL     1      24.403   1.217  51.953  1.00  0.00     0.096 N 
HETATM   17  H20 UNL     1      25.383   1.232  52.332  1.00  0.00     0.316 HD
BRANCH  13  18
HETATM   18  O1  UNL     1      20.297   1.538  52.756  1.00  0.00    -0.382 OA
BRANCH  18  19
HETATM   19  C10 UNL     1      19.946   0.806  51.619  1.00  0.00     0.194 C 
BRANCH  19  20
HETATM   20  C11 UNL     1      18.697   0.011  51.807  1.00  0.00     0.193 C 
BRANCH  20  21
HETATM   21  O2  UNL     1      18.760  -0.726  52.960  1.00  0.00    -0.394 OA
HETATM   22  C12 UNL     1      17.627  -1.406  53.321  1.00  0.00     0.201 C 
ENDBRANCH  20  21
ENDBRANCH  19  20
ENDBRANCH  18  19
ENDBRANCH  13  18
ENDBRANCH   4   5
TORSDOF 5
ENDMDL
MODEL 6
REMARK VINA RESULT:      -6.0      3.279      8.096
REMARK  5 active torsions:
REMARK  status: ('A' for Active; 'I' for Inactive)
REMARK    1  A    between atoms: C4_4  and  C5_5 
REMARK    2  A    between atoms: C9_11  and  O1_12 
REMARK    3  A    between atoms: O1_12  and  C10_13 
REMARK    4  A    between atoms: C10_13  and  C11_14 
REMARK    5  A    between atoms: C11_14  and  O2_15 
ROOT
HETATM    1  C1  UNL     1      30.166  -0.887  53.832  1.00  0.00     0.017 C 
HETATM    2  C2  UNL     1      28.998  -0.785  53.561  1.00  0.00    -0.089 C 
HETATM    3  C3  UNL     1      27.611  -0.640  53.237  1.00  0.00     0.063 C 
HETATM    4  C4  UNL     1      26.781   0.156  53.900  1.00  0.00     0.011 C 
ENDROOT
BRANCH   4   5
HETATM    5  C5  UNL     1      25.403   0.246  53.514  1.00  0.00     0.028 C 
HETATM    6  C6  UNL     1      24.935   1.294  52.869  1.00  0.00     0.045 C 
HETATM    7  N1  UNL     1      25.776   2.405  52.518  1.00  0.00    -0.353 N 
HETATM    8  C15 UNL     1      23.525   1.468  52.436  1.00  0.00     0.297 C 
HETATM    9  C7  UNL     1      25.352   3.083  51.343  1.00  0.00     0.201 C 
HETATM   10  H5  UNL     1      26.605   2.640  53.103  1.00  0.00     0.166 HD
HETATM   11  N2  UNL     1      24.338   2.802  50.613  1.00  0.00    -0.274 NA
HETATM   12  C8  UNL     1      23.501   1.691  50.964  1.00  0.00     0.177 C 
HETATM   13  C9  UNL     1      22.085   1.813  50.441  1.00  0.00     0.150 C 
HETATM   14  C13 UNL     1      21.417   0.484  50.806  1.00  0.00     0.064 C 
HETATM   15  C14 UNL     1      21.436   0.303  52.291  1.00  0.00     0.273 C 
HETATM   16  N3  UNL     1      22.780   0.289  52.839  1.00  0.00     0.096 N 
HETATM   17  H20 UNL     1      22.671   0.356  53.882  1.00  0.00     0.316 HD
BRANCH  13  18
HETATM   18  O1  UNL     1      22.081   2.045  49.092  1.00  0.00    -0.382 OA
BRANCH  18  19
HETATM   19  C10 UNL     1      20.830   1.694  48.579  1.00  0.00     0.194 C 
BRANCH  19  20
HETATM   20  C11 UNL     1      20.101   2.856  47.993  1.00  0.00     0.193 C 
BRANCH  20  21
HETATM   21  O2  UNL     1      18.754   2.748  48.218  1.00  0.00    -0.394 OA
HETATM   22  C12 UNL     1      18.365   2.401  49.484  1.00  0.00     0.201 C 
ENDBRANCH  20  21
ENDBRANCH  19  20
ENDBRANCH  18  19
ENDBRANCH  13  18
ENDBRANCH   4   5
TORSDOF 5
ENDMDL
MODEL 7
REMARK VINA RESULT:      -5.8      3.214      7.759
REMARK  5 active torsions:
REMARK  status: ('A' for Active; 'I' for Inactive)
REMARK    1  A    between atoms: C4_4  and  C5_5 
REMARK    2  A    between atoms: C9_11  and  O1_12 
REMARK    3  A    between atoms: O1_12  and  C10_13 
REMARK    4  A    between atoms: C10_13  and  C11_14 
REMARK    5  A    between atoms: C11_14  and  O2_15 
ROOT
HETATM    1  C1  UNL     1      29.653  -0.812  53.984  1.00  0.00     0.017 C 
HETATM    2  C2  UNL     1      28.847  -0.054  53.511  1.00  0.00    -0.089 C 
HETATM    3  C3  UNL     1      27.893   0.862  52.965  1.00  0.00     0.063 C 
HETATM    4  C4  UNL     1      26.878   1.365  53.658  1.00  0.00     0.011 C 
ENDROOT
BRANCH   4   5
HETATM    5  C5  UNL     1      25.962   2.278  53.039  1.00  0.00     0.028 C 
HETATM    6  C6  UNL     1      24.818   1.868  52.532  1.00  0.00     0.045 C 
HETATM    7  N1  UNL     1      24.425   0.486  52.569  1.00  0.00    -0.353 N 
HETATM    8  C15 UNL     1      23.816   2.743  51.873  1.00  0.00     0.297 C 
HETATM    9  C7  UNL     1      23.016   0.302  52.608  1.00  0.00     0.201 C 
HETATM   10  H5  UNL     1      25.147  -0.264  52.570  1.00  0.00     0.166 HD
HETATM   11  N2  UNL     1      22.118   1.215  52.613  1.00  0.00    -0.274 NA
HETATM   12  C8  UNL     1      22.513   2.594  52.578  1.00  0.00     0.177 C 
HETATM   13  C9  UNL     1      21.456   3.510  51.997  1.00  0.00     0.150 C 
HETATM   14  C13 UNL     1      22.020   4.923  52.177  1.00  0.00     0.064 C 
HETATM   15  C14 UNL     1      23.315   5.046  51.438  1.00  0.00     0.273 C 
HETATM   16  N3  UNL     1      24.318   4.105  51.900  1.00  0.00     0.096 N 
HETATM   17  H20 UNL     1      25.098   4.142  51.197  1.00  0.00     0.316 HD
BRANCH  13  18
HETATM   18  O1  UNL     1      20.258   3.341  52.638  1.00  0.00    -0.382 OA
BRANCH  18  19
HETATM   19  C10 UNL     1      19.228   3.441  51.699  1.00  0.00     0.194 C 
BRANCH  19  20
HETATM   20  C11 UNL     1      19.435   2.550  50.520  1.00  0.00     0.193 C 
BRANCH  20  21
HETATM   21  O2  UNL     1      19.134   1.251  50.834  1.00  0.00    -0.394 OA
HETATM   22  C12 UNL     1      18.049   0.699  50.207  1.00  0.00     0.201 C 
ENDBRANCH  20  21
ENDBRANCH  19  20
ENDBRANCH  18  19
ENDBRANCH  13  18
ENDBRANCH   4   5
TORSDOF 5
ENDMDL
MODEL 8
REMARK VINA RESULT:      -5.7      2.870      3.504
REMARK  5 active torsions:
REMARK  status: ('A' for Active; 'I' for Inactive)
REMARK    1  A    between atoms: C4_4  and  C5_5 
REMARK    2  A    between atoms: C9_11  and  O1_12 
REMARK    3  A    between atoms: O1_12  and  C10_13 
REMARK    4  A    between atoms: C10_13  and  C11_14 
REMARK    5  A    between atoms: C11_14  and  O2_15 
ROOT
HETATM    1  C1  UNL     1      18.243   3.119  47.287  1.00  0.00     0.017 C 
HETATM    2  C2  UNL     1      19.337   3.187  47.785  1.00  0.00    -0.089 C 
HETATM    3  C3  UNL     1      20.643   3.248  48.366  1.00  0.00     0.063 C 
HETATM    4  C4  UNL     1      21.168   2.271  49.097  1.00  0.00     0.011 C 
ENDROOT
BRANCH   4   5
HETATM    5  C5  UNL     1      22.485   2.408  49.647  1.00  0.00     0.028 C 
HETATM    6  C6  UNL     1      22.726   2.184  50.922  1.00  0.00     0.045 C 
HETATM    7  N1  UNL     1      21.684   1.793  51.832  1.00  0.00    -0.353 N 
HETATM    8  C15 UNL     1      24.055   2.305  51.572  1.00  0.00     0.297 C 
HETATM    9  C7  UNL     1      22.150   0.994  52.911  1.00  0.00     0.201 C 
HETATM   10  H5  UNL     1      20.701   2.092  51.663  1.00  0.00     0.166 HD
HETATM   11  N2  UNL     1      23.354   0.616  53.128  1.00  0.00    -0.274 NA
HETATM   12  C8  UNL     1      24.391   1.006  52.218  1.00  0.00     0.177 C 
HETATM   13  C9  UNL     1      25.768   1.036  52.848  1.00  0.00     0.150 C 
HETATM   14  C13 UNL     1      26.723   1.338  51.690  1.00  0.00     0.064 C 
HETATM   15  C14 UNL     1      26.373   2.659  51.080  1.00  0.00     0.273 C 
HETATM   16  N3  UNL     1      25.019   2.698  50.561  1.00  0.00     0.096 N 
HETATM   17  H20 UNL     1      24.819   3.706  50.343  1.00  0.00     0.316 HD
BRANCH  13  18
HETATM   18  O1  UNL     1      26.051  -0.155  53.460  1.00  0.00    -0.382 OA
BRANCH  18  19
HETATM   19  C10 UNL     1      26.513   0.102  54.754  1.00  0.00     0.194 C 
BRANCH  19  20
HETATM   20  C11 UNL     1      27.987   0.323  54.806  1.00  0.00     0.193 C 
BRANCH  20  21
HETATM   21  O2  UNL     1      28.662  -0.803  54.417  1.00  0.00    -0.394 OA
HETATM   22  C12 UNL     1      29.677  -0.634  53.514  1.00  0.00     0.201 C 
ENDBRANCH  20  21
ENDBRANCH  19  20
ENDBRANCH  18  19
ENDBRANCH  13  18
ENDBRANCH   4   5
TORSDOF 5
ENDMDL
MODEL 9
REMARK VINA RESULT:      -5.7      4.688      8.677
REMARK  5 active torsions:
REMARK  status: ('A' for Active; 'I' for Inactive)
REMARK    1  A    between atoms: C4_4  and  C5_5 
REMARK    2  A    between atoms: C9_11  and  O1_12 
REMARK    3  A    between atoms: O1_12  and  C10_13 
REMARK    4  A    between atoms: C10_13  and  C11_14 
REMARK    5  A    between atoms: C11_14  and  O2_15 
ROOT
HETATM    1  C1  UNL     1      29.799  -1.203  53.660  1.00  0.00     0.017 C 
HETATM    2  C2  UNL     1      28.732  -0.663  53.528  1.00  0.00    -0.089 C 
HETATM    3  C3  UNL     1      27.461  -0.031  53.350  1.00  0.00     0.063 C 
HETATM    4  C4  UNL     1      27.148   0.705  52.289  1.00  0.00     0.011 C 
ENDROOT
BRANCH   4   5
HETATM    5  C5  UNL     1      25.851   1.307  52.185  1.00  0.00     0.028 C 
HETATM    6  C6  UNL     1      25.673   2.458  51.569  1.00  0.00     0.045 C 
HETATM    7  N1  UNL     1      26.767   3.173  50.971  1.00  0.00    -0.353 N 
HETATM    8  C15 UNL     1      24.369   3.150  51.418  1.00  0.00     0.297 C 
HETATM    9  C7  UNL     1      26.379   3.967  49.858  1.00  0.00     0.201 C 
HETATM   10  H5  UNL     1      27.730   3.077  51.357  1.00  0.00     0.166 HD
HETATM   11  N2  UNL     1      25.201   4.091  49.371  1.00  0.00    -0.274 NA
HETATM   12  C8  UNL     1      24.111   3.374  49.968  1.00  0.00     0.177 C 
HETATM   13  C9  UNL     1      22.762   4.022  49.735  1.00  0.00     0.150 C 
HETATM   14  C13 UNL     1      21.748   3.040  50.329  1.00  0.00     0.064 C 
HETATM   15  C14 UNL     1      22.020   2.857  51.789  1.00  0.00     0.273 C 
HETATM   16  N3  UNL     1      23.348   2.337  52.053  1.00  0.00     0.096 N 
HETATM   17  H20 UNL     1      23.500   2.434  53.088  1.00  0.00     0.316 HD
BRANCH  13  18
HETATM   18  O1  UNL     1      22.552   4.245  48.401  1.00  0.00    -0.382 OA
BRANCH  18  19
HETATM   19  C10 UNL     1      21.989   5.513  48.240  1.00  0.00     0.194 C 
BRANCH  19  20
HETATM   20  C11 UNL     1      20.664   5.473  47.556  1.00  0.00     0.193 C 
BRANCH  20  21
HETATM   21  O2  UNL     1      19.657   5.256  48.459  1.00  0.00    -0.394 OA
HETATM   22  C12 UNL     1      19.585   6.116  49.522  1.00  0.00     0.201 C 
ENDBRANCH  20  21
ENDBRANCH  19  20
ENDBRANCH  18  19
ENDBRANCH  13  18
ENDBRANCH   4   5
TORSDOF 5
ENDMDL
