MODEL 1
REMARK VINA RESULT:      -9.0      0.000      0.000
REMARK  5 active torsions:
REMARK  status: ('A' for Active; 'I' for Inactive)
REMARK    1  A    between atoms: C1_2  and  C2_3 
REMARK       I    between atoms: C1_2  and  N1_9 
REMARK    2  A    between atoms: C3_4  and  C4_5 
REMARK    3  A    between atoms: N1_9  and  C5_10 
REMARK    4  A    between atoms: C10_17  and  N4_18 
REMARK    5  A    between atoms: N4_18  and  C11_19 
ROOT
HETATM    1  C5  UNL     1      24.456  -0.534  54.160  1.00  0.00     0.036 A 
HETATM    2  C6  UNL     1      23.659  -1.135  55.141  1.00  0.00     0.032 A 
HETATM    3  C7  UNL     1      22.293  -1.156  55.053  1.00  0.00     0.035 A 
HETATM    4  C8  UNL     1      21.670  -0.572  53.972  1.00  0.00     0.072 A 
HETATM    5  N2  UNL     1      20.324  -0.582  53.867  1.00  0.00    -0.241 NA
HETATM    6  C9  UNL     1      19.825   0.016  52.772  1.00  0.00     0.236 A 
HETATM    7  N3  UNL     1      20.543   0.604  51.809  1.00  0.00    -0.224 NA
HETATM    8  C10 UNL     1      21.904   0.621  51.905  1.00  0.00     0.142 A 
HETATM    9  C17 UNL     1      22.455   0.014  53.019  1.00  0.00     0.041 A 
HETATM   10  C18 UNL     1      23.848   0.050  53.082  1.00  0.00     0.047 A 
ENDROOT
BRANCH   1  11
HETATM   11  N1  UNL     1      25.850  -0.618  54.433  1.00  0.00    -0.324 N 
HETATM   12  C1  UNL     1      26.713   0.483  54.638  1.00  0.00     0.245 C 
HETATM   13  O1  UNL     1      25.943   1.470  54.517  1.00  0.00    -0.268 OA
HETATM   14  H3  UNL     1      25.981  -1.653  54.425  1.00  0.00     0.169 HD
BRANCH  12  15
HETATM   15  C2  UNL     1      28.101   0.163  54.903  1.00  0.00     0.079 C 
HETATM   16  C3  UNL     1      29.192  -0.468  54.558  1.00  0.00     0.094 C 
BRANCH  16  17
HETATM   17  C4  UNL     1      29.371  -1.344  53.373  1.00  0.00     0.408 C 
HETATM   18  F1  UNL     1      28.200  -1.458  52.650  1.00  0.00    -0.167 F 
HETATM   19  F2  UNL     1      30.372  -0.789  52.598  1.00  0.00    -0.167 F 
HETATM   20  F3  UNL     1      29.735  -2.632  53.764  1.00  0.00    -0.167 F 
ENDBRANCH  16  17
ENDBRANCH  12  15
ENDBRANCH   1  11
BRANCH   8  21
HETATM   21  N4  UNL     1      22.697   1.248  50.876  1.00  0.00    -0.340 N 
HETATM   22  H7  UNL     1      23.000   0.752  50.024  1.00  0.00     0.167 HD
BRANCH  21  23
HETATM   23  C11 UNL     1      23.075   2.611  51.051  1.00  0.00     0.035 A 
HETATM   24  C12 UNL     1      22.431   3.408  52.001  1.00  0.00     0.029 A 
HETATM   25  C13 UNL     1      22.869   4.726  52.100  1.00  0.00     0.004 A 
HETATM   26  C14 UNL     1      23.862   5.308  51.361  1.00  0.00     0.019 A 
HETATM   27  C15 UNL     1      24.471   4.486  50.436  1.00  0.00     0.013 A 
HETATM   28 BR1  UNL     1      25.875   5.143  49.323  1.00  0.00    -0.051 Br
HETATM   29  C16 UNL     1      24.088   3.172  50.284  1.00  0.00     0.048 A 
ENDBRANCH  21  23
ENDBRANCH   8  21
TORSDOF 5
ENDMDL
MODEL 2
REMARK VINA RESULT:      -8.8      2.194      3.295
REMARK  5 active torsions:
REMARK  status: ('A' for Active; 'I' for Inactive)
REMARK    1  A    between atoms: C1_2  and  C2_3 
REMARK       I    between atoms: C1_2  and  N1_9 
REMARK    2  A    between atoms: C3_4  and  C4_5 
REMARK    3  A    between atoms: N1_9  and  C5_10 
REMARK    4  A    between atoms: C10_17  and  N4_18 
REMARK    5  A    between atoms: N4_18  and  C11_19 
ROOT
HETATM    1  C5  UNL     1      24.513   1.876  53.137  1.00  0.00     0.036 A 
HETATM    2  C6  UNL     1      23.645   0.856  52.729  1.00  0.00     0.032 A 
HETATM    3  C7  UNL     1      22.525   1.110  51.985  1.00  0.00     0.035 A 
HETATM    4  C8  UNL     1      22.228   2.405  51.620  1.00  0.00     0.072 A 
HETATM    5  N2  UNL     1      21.128   2.677  50.886  1.00  0.00    -0.241 NA
HETATM    6  C9  UNL     1      20.938   3.974  50.588  1.00  0.00     0.236 A 
HETATM    7  N3  UNL     1      21.735   4.983  50.955  1.00  0.00    -0.224 NA
HETATM    8  C10 UNL     1      22.850   4.720  51.697  1.00  0.00     0.142 A 
HETATM    9  C17 UNL     1      23.079   3.396  52.023  1.00  0.00     0.041 A 
HETATM   10  C18 UNL     1      24.228   3.166  52.781  1.00  0.00     0.047 A 
ENDROOT
BRANCH   1  11
HETATM   11  N1  UNL     1      25.619   1.408  53.900  1.00  0.00    -0.324 N 
HETATM   12  C1  UNL     1      26.895   1.090  53.383  1.00  0.00     0.245 C 
HETATM   13  O1  UNL     1      26.767   1.324  52.154  1.00  0.00    -0.268 OA
HETATM   14  H3  UNL     1      25.195   1.390  54.853  1.00  0.00     0.169 HD
BRANCH  12  15
HETATM   15  C2  UNL     1      27.875   0.630  54.347  1.00  0.00     0.079 C 
HETATM   16  C3  UNL     1      28.951  -0.064  54.609  1.00  0.00     0.094 C 
BRANCH  16  17
HETATM   17  C4  UNL     1      29.751  -0.854  53.641  1.00  0.00     0.408 C 
HETATM   18  F1  UNL     1      28.955  -1.721  52.919  1.00  0.00    -0.167 F 
HETATM   19  F2  UNL     1      30.385   0.042  52.801  1.00  0.00    -0.167 F 
HETATM   20  F3  UNL     1      30.700  -1.630  54.305  1.00  0.00    -0.167 F 
ENDBRANCH  16  17
ENDBRANCH  12  15
ENDBRANCH   1  11
BRANCH   8  21
HETATM   21  N4  UNL     1      23.723   5.794  52.101  1.00  0.00    -0.340 N 
HETATM   22  H7  UNL     1      23.905   6.024  53.090  1.00  0.00     0.167 HD
BRANCH  21  23
HETATM   23  C11 UNL     1      24.359   6.566  51.086  1.00  0.00     0.035 A 
HETATM   24  C12 UNL     1      23.932   7.868  50.813  1.00  0.00     0.029 A 
HETATM   25  C13 UNL     1      24.614   8.544  49.805  1.00  0.00     0.004 A 
HETATM   26  C14 UNL     1      25.655   8.057  49.064  1.00  0.00     0.019 A 
HETATM   27  C15 UNL     1      26.046   6.769  49.365  1.00  0.00     0.013 A 
HETATM   28 BR1  UNL     1      27.483   5.940  48.423  1.00  0.00    -0.051 Br
HETATM   29  C16 UNL     1      25.414   6.042  50.350  1.00  0.00     0.048 A 
ENDBRANCH  21  23
ENDBRANCH   8  21
TORSDOF 5
ENDMDL
MODEL 3
REMARK VINA RESULT:      -8.8      1.964      2.764
REMARK  5 active torsions:
REMARK  status: ('A' for Active; 'I' for Inactive)
REMARK    1  A    between atoms: C1_2  and  C2_3 
REMARK       I    between atoms: C1_2  and  N1_9 
REMARK    2  A    between atoms: C3_4  and  C4_5 
REMARK    3  A    between atoms: N1_9  and  C5_10 
REMARK    4  A    between atoms: C10_17  and  N4_18 
REMARK    5  A    between atoms: N4_18  and  C11_19 
ROOT
HETATM    1  C5  UNL     1      24.215   0.133  53.006  1.00  0.00     0.036 A 
HETATM    2  C6  UNL     1      23.016  -0.589  53.024  1.00  0.00     0.032 A 
HETATM    3  C7  UNL     1      21.800   0.018  52.861  1.00  0.00     0.035 A 
HETATM    4  C8  UNL     1      21.739   1.382  52.674  1.00  0.00     0.072 A 
HETATM    5  N2  UNL     1      20.550   2.000  52.511  1.00  0.00    -0.241 NA
HETATM    6  C9  UNL     1      20.610   3.331  52.335  1.00  0.00     0.236 A 
HETATM    7  N3  UNL     1      21.727   4.065  52.312  1.00  0.00    -0.224 NA
HETATM    8  C10 UNL     1      22.935   3.451  52.475  1.00  0.00     0.142 A 
HETATM    9  C17 UNL     1      22.913   2.080  52.659  1.00  0.00     0.041 A 
HETATM   10  C18 UNL     1      24.166   1.488  52.821  1.00  0.00     0.047 A 
ENDROOT
BRANCH   1  11
HETATM   11  N1  UNL     1      25.369  -0.679  53.191  1.00  0.00    -0.324 N 
HETATM   12  C1  UNL     1      26.553  -0.608  52.423  1.00  0.00     0.245 C 
HETATM   13  O1  UNL     1      26.299   0.308  51.599  1.00  0.00    -0.268 OA
HETATM   14  H3  UNL     1      25.058  -1.266  53.996  1.00  0.00     0.169 HD
BRANCH  12  15
HETATM   15  C2  UNL     1      27.605  -1.535  52.789  1.00  0.00     0.079 C 
HETATM   16  C3  UNL     1      28.778  -1.745  53.324  1.00  0.00     0.094 C 
BRANCH  16  17
HETATM   17  C4  UNL     1      29.676  -0.723  53.917  1.00  0.00     0.408 C 
HETATM   18  F1  UNL     1      29.103  -0.132  55.026  1.00  0.00    -0.167 F 
HETATM   19  F2  UNL     1      30.857  -1.358  54.255  1.00  0.00    -0.167 F 
HETATM   20  F3  UNL     1      29.935   0.296  53.001  1.00  0.00    -0.167 F 
ENDBRANCH  16  17
ENDBRANCH  12  15
ENDBRANCH   1  11
BRANCH   8  21
HETATM   21  N4  UNL     1      24.152   4.224  52.451  1.00  0.00    -0.340 N 
HETATM   22  H7  UNL     1      24.729   4.384  53.291  1.00  0.00     0.167 HD
BRANCH  21  23
HETATM   23  C11 UNL     1      24.570   4.788  51.211  1.00  0.00     0.035 A 
HETATM   24  C12 UNL     1      25.341   4.041  50.317  1.00  0.00     0.029 A 
HETATM   25  C13 UNL     1      25.701   4.675  49.132  1.00  0.00     0.004 A 
HETATM   26  C14 UNL     1      25.373   5.951  48.763  1.00  0.00     0.019 A 
HETATM   27  C15 UNL     1      24.612   6.653  49.674  1.00  0.00     0.013 A 
HETATM   28 BR1  UNL     1      24.069   8.447  49.314  1.00  0.00    -0.051 Br
HETATM   29  C16 UNL     1      24.221   6.088  50.867  1.00  0.00     0.048 A 
ENDBRANCH  21  23
ENDBRANCH   8  21
TORSDOF 5
ENDMDL
MODEL 4
REMARK VINA RESULT:      -8.8      3.028      4.776
REMARK  5 active torsions:
REMARK  status: ('A' for Active; 'I' for Inactive)
REMARK    1  A    between atoms: C1_2  and  C2_3 
REMARK       I    between atoms: C1_2  and  N1_9 
REMARK    2  A    between atoms: C3_4  and  C4_5 
REMARK    3  A    between atoms: N1_9  and  C5_10 
REMARK    4  A    between atoms: C10_17  and  N4_18 
REMARK    5  A    between atoms: N4_18  and  C11_19 
ROOT
HETATM    1  C5  UNL     1      24.513   1.231  52.717  1.00  0.00     0.036 A 
HETATM    2  C6  UNL     1      24.934   2.479  53.189  1.00  0.00     0.032 A 
HETATM    3  C7  UNL     1      24.170   3.606  53.042  1.00  0.00     0.035 A 
HETATM    4  C8  UNL     1      22.948   3.524  52.411  1.00  0.00     0.072 A 
HETATM    5  N2  UNL     1      22.180   4.623  52.256  1.00  0.00    -0.241 NA
HETATM    6  C9  UNL     1      21.009   4.425  51.626  1.00  0.00     0.236 A 
HETATM    7  N3  UNL     1      20.564   3.256  51.156  1.00  0.00    -0.224 NA
HETATM    8  C10 UNL     1      21.332   2.138  51.307  1.00  0.00     0.142 A 
HETATM    9  C17 UNL     1      22.545   2.302  51.950  1.00  0.00     0.041 A 
HETATM   10  C18 UNL     1      23.302   1.137  52.087  1.00  0.00     0.047 A 
ENDROOT
BRANCH   1  11
HETATM   11  N1  UNL     1      25.446   0.186  52.967  1.00  0.00    -0.324 N 
HETATM   12  C1  UNL     1      26.671   0.000  52.286  1.00  0.00     0.245 C 
HETATM   13  O1  UNL     1      26.684   0.953  51.465  1.00  0.00    -0.268 OA
HETATM   14  H3  UNL     1      24.957  -0.323  53.736  1.00  0.00     0.169 HD
BRANCH  12  15
HETATM   15  C2  UNL     1      27.467  -1.135  52.708  1.00  0.00     0.079 C 
HETATM   16  C3  UNL     1      28.551  -1.597  53.272  1.00  0.00     0.094 C 
BRANCH  16  17
HETATM   17  C4  UNL     1      29.663  -0.796  53.841  1.00  0.00     0.408 C 
HETATM   18  F1  UNL     1      30.153   0.110  52.921  1.00  0.00    -0.167 F 
HETATM   19  F2  UNL     1      29.171  -0.143  54.956  1.00  0.00    -0.167 F 
HETATM   20  F3  UNL     1      30.726  -1.619  54.208  1.00  0.00    -0.167 F 
ENDBRANCH  16  17
ENDBRANCH  12  15
ENDBRANCH   1  11
BRANCH   8  21
HETATM   21  N4  UNL     1      20.870   0.866  50.808  1.00  0.00    -0.340 N 
HETATM   22  H7  UNL     1      21.306   0.389  50.004  1.00  0.00     0.167 HD
BRANCH  21  23
HETATM   23  C11 UNL     1      19.763   0.247  51.459  1.00  0.00     0.035 A 
HETATM   24  C12 UNL     1      19.911  -0.312  52.731  1.00  0.00     0.029 A 
HETATM   25  C13 UNL     1      18.775  -0.893  53.286  1.00  0.00     0.004 A 
HETATM   26  C14 UNL     1      17.538  -0.968  52.708  1.00  0.00     0.019 A 
HETATM   27  C15 UNL     1      17.435  -0.405  51.453  1.00  0.00     0.013 A 
HETATM   28 BR1  UNL     1      15.778  -0.425  50.508  1.00  0.00    -0.051 Br
HETATM   29  C16 UNL     1      18.519   0.187  50.844  1.00  0.00     0.048 A 
ENDBRANCH  21  23
ENDBRANCH   8  21
TORSDOF 5
ENDMDL
MODEL 5
REMARK VINA RESULT:      -8.6      2.974      5.100
REMARK  5 active torsions:
REMARK  status: ('A' for Active; 'I' for Inactive)
REMARK    1  A    between atoms: C1_2  and  C2_3 
REMARK       I    between atoms: C1_2  and  N1_9 
REMARK    2  A    between atoms: C3_4  and  C4_5 
REMARK    3  A    between atoms: N1_9  and  C5_10 
REMARK    4  A    between atoms: C10_17  and  N4_18 
REMARK    5  A    between atoms: N4_18  and  C11_19 
ROOT
HETATM    1  C5  UNL     1      24.636   2.976  51.157  1.00  0.00     0.036 A 
HETATM    2  C6  UNL     1      24.794   3.192  49.783  1.00  0.00     0.032 A 
HETATM    3  C7  UNL     1      23.729   3.203  48.923  1.00  0.00     0.035 A 
HETATM    4  C8  UNL     1      22.457   2.996  49.409  1.00  0.00     0.072 A 
HETATM    5  N2  UNL     1      21.394   3.003  48.578  1.00  0.00    -0.241 NA
HETATM    6  C9  UNL     1      20.202   2.791  49.162  1.00  0.00     0.236 A 
HETATM    7  N3  UNL     1      19.999   2.580  50.466  1.00  0.00    -0.224 NA
HETATM    8  C10 UNL     1      21.066   2.570  51.316  1.00  0.00     0.142 A 
HETATM    9  C17 UNL     1      22.310   2.785  50.752  1.00  0.00     0.041 A 
HETATM   10  C18 UNL     1      23.377   2.769  51.652  1.00  0.00     0.047 A 
ENDROOT
BRANCH   1  11
HETATM   11  N1  UNL     1      25.861   3.003  51.880  1.00  0.00    -0.324 N 
HETATM   12  C1  UNL     1      26.579   1.868  52.318  1.00  0.00     0.245 C 
HETATM   13  O1  UNL     1      25.870   0.912  51.912  1.00  0.00    -0.268 OA
HETATM   14  H3  UNL     1      26.011   4.033  51.956  1.00  0.00     0.169 HD
BRANCH  12  15
HETATM   15  C2  UNL     1      27.808   2.131  53.040  1.00  0.00     0.079 C 
HETATM   16  C3  UNL     1      28.872   1.677  53.647  1.00  0.00     0.094 C 
BRANCH  16  17
HETATM   17  C4  UNL     1      29.248   0.253  53.825  1.00  0.00     0.408 C 
HETATM   18  F1  UNL     1      30.579   0.042  53.526  1.00  0.00    -0.167 F 
HETATM   19  F2  UNL     1      28.982  -0.083  55.140  1.00  0.00    -0.167 F 
HETATM   20  F3  UNL     1      28.506  -0.563  52.972  1.00  0.00    -0.167 F 
ENDBRANCH  16  17
ENDBRANCH  12  15
ENDBRANCH   1  11
BRANCH   8  21
HETATM   21  N4  UNL     1      20.869   2.345  52.727  1.00  0.00    -0.340 N 
HETATM   22  H7  UNL     1      20.787   3.114  53.409  1.00  0.00     0.167 HD
BRANCH  21  23
HETATM   23  C11 UNL     1      20.785   1.000  53.192  1.00  0.00     0.035 A 
HETATM   24  C12 UNL     1      21.899   0.375  53.756  1.00  0.00     0.029 A 
HETATM   25  C13 UNL     1      21.720  -0.939  54.182  1.00  0.00     0.004 A 
HETATM   26  C14 UNL     1      20.566  -1.667  54.100  1.00  0.00     0.019 A 
HETATM   27  C15 UNL     1      19.491  -1.013  53.537  1.00  0.00     0.013 A 
HETATM   28 BR1  UNL     1      17.806  -1.887  53.348  1.00  0.00    -0.051 Br
HETATM   29  C16 UNL     1      19.597   0.287  53.093  1.00  0.00     0.048 A 
ENDBRANCH  21  23
ENDBRANCH   8  21
TORSDOF 5
ENDMDL
MODEL 6
REMARK VINA RESULT:      -8.5      2.708      4.723
REMARK  5 active torsions:
REMARK  status: ('A' for Active; 'I' for Inactive)
REMARK    1  A    between atoms: C1_2  and  C2_3 
REMARK       I    between atoms: C1_2  and  N1_9 
REMARK    2  A    between atoms: C3_4  and  C4_5 
REMARK    3  A    between atoms: N1_9  and  C5_10 
REMARK    4  A    between atoms: C10_17  and  N4_18 
REMARK    5  A    between atoms: N4_18  and  C11_19 
ROOT
HETATM    1  C5  UNL     1      25.789   2.630  51.859  1.00  0.00     0.036 A 
HETATM    2  C6  UNL     1      26.409   2.908  50.635  1.00  0.00     0.032 A 
HETATM    3  C7  UNL     1      25.716   3.419  49.570  1.00  0.00     0.035 A 
HETATM    4  C8  UNL     1      24.367   3.671  49.692  1.00  0.00     0.072 A 
HETATM    5  N2  UNL     1      23.665   4.175  48.655  1.00  0.00    -0.241 NA
HETATM    6  C9  UNL     1      22.358   4.381  48.887  1.00  0.00     0.236 A 
HETATM    7  N3  UNL     1      21.721   4.130  50.035  1.00  0.00    -0.224 NA
HETATM    8  C10 UNL     1      22.419   3.621  51.091  1.00  0.00     0.142 A 
HETATM    9  C17 UNL     1      23.769   3.395  50.890  1.00  0.00     0.041 A 
HETATM   10  C18 UNL     1      24.450   2.875  51.991  1.00  0.00     0.047 A 
ENDROOT
BRANCH   1  11
HETATM   11  N1  UNL     1      26.679   2.106  52.838  1.00  0.00    -0.324 N 
HETATM   12  C1  UNL     1      26.623   0.803  53.383  1.00  0.00     0.245 C 
HETATM   13  O1  UNL     1      25.636   0.294  52.793  1.00  0.00    -0.268 OA
HETATM   14  H3  UNL     1      27.303   2.929  52.984  1.00  0.00     0.169 HD
BRANCH  12  15
HETATM   15  C2  UNL     1      27.634   0.483  54.371  1.00  0.00     0.079 C 
HETATM   16  C3  UNL     1      28.785  -0.061  54.662  1.00  0.00     0.094 C 
BRANCH  16  17
HETATM   17  C4  UNL     1      29.705  -0.743  53.718  1.00  0.00     0.408 C 
HETATM   18  F1  UNL     1      29.016  -1.570  52.853  1.00  0.00    -0.167 F 
HETATM   19  F2  UNL     1      30.382   0.239  53.019  1.00  0.00    -0.167 F 
HETATM   20  F3  UNL     1      30.614  -1.543  54.408  1.00  0.00    -0.167 F 
ENDBRANCH  16  17
ENDBRANCH  12  15
ENDBRANCH   1  11
BRANCH   8  21
HETATM   21  N4  UNL     1      21.751   3.345  52.339  1.00  0.00    -0.340 N 
HETATM   22  H7  UNL     1      21.820   3.967  53.159  1.00  0.00     0.167 HD
BRANCH  21  23
HETATM   23  C11 UNL     1      20.963   2.161  52.436  1.00  0.00     0.035 A 
HETATM   24  C12 UNL     1      19.714   2.089  51.815  1.00  0.00     0.029 A 
HETATM   25  C13 UNL     1      19.018   0.893  51.965  1.00  0.00     0.004 A 
HETATM   26  C14 UNL     1      19.439  -0.208  52.657  1.00  0.00     0.019 A 
HETATM   27  C15 UNL     1      20.677  -0.095  53.255  1.00  0.00     0.013 A 
HETATM   28 BR1  UNL     1      21.412  -1.542  54.259  1.00  0.00    -0.051 Br
HETATM   29  C16 UNL     1      21.420   1.060  53.148  1.00  0.00     0.048 A 
ENDBRANCH  21  23
ENDBRANCH   8  21
TORSDOF 5
ENDMDL
MODEL 7
REMARK VINA RESULT:      -8.3      2.146      2.852
REMARK  5 active torsions:
REMARK  status: ('A' for Active; 'I' for Inactive)
REMARK    1  A    between atoms: C1_2  and  C2_3 
REMARK       I    between atoms: C1_2  and  N1_9 
REMARK    2  A    between atoms: C3_4  and  C4_5 
REMARK    3  A    between atoms: N1_9  and  C5_10 
REMARK    4  A    between atoms: C10_17  and  N4_18 
REMARK    5  A    between atoms: N4_18  and  C11_19 
ROOT
HETATM    1  C5  UNL     1      23.906   0.871  52.742  1.00  0.00     0.036 A 
HETATM    2  C6  UNL     1      22.776   0.192  53.212  1.00  0.00     0.032 A 
HETATM    3  C7  UNL     1      21.606   0.152  52.503  1.00  0.00     0.035 A 
HETATM    4  C8  UNL     1      21.523   0.795  51.287  1.00  0.00     0.072 A 
HETATM    5  N2  UNL     1      20.379   0.767  50.572  1.00  0.00    -0.241 NA
HETATM    6  C9  UNL     1      20.412   1.428  49.402  1.00  0.00     0.236 A 
HETATM    7  N3  UNL     1      21.464   2.091  48.911  1.00  0.00    -0.224 NA
HETATM    8  C10 UNL     1      22.626   2.127  49.625  1.00  0.00     0.142 A 
HETATM    9  C17 UNL     1      22.630   1.457  50.835  1.00  0.00     0.041 A 
HETATM   10  C18 UNL     1      23.835   1.515  51.536  1.00  0.00     0.047 A 
ENDROOT
BRANCH   1  11
HETATM   11  N1  UNL     1      25.021   0.795  53.623  1.00  0.00    -0.324 N 
HETATM   12  C1  UNL     1      26.054  -0.167  53.556  1.00  0.00     0.245 C 
HETATM   13  O1  UNL     1      25.720  -0.872  52.570  1.00  0.00    -0.268 OA
HETATM   14  H3  UNL     1      24.819   1.603  54.252  1.00  0.00     0.169 HD
BRANCH  12  15
HETATM   15  C2  UNL     1      27.094  -0.055  54.560  1.00  0.00     0.079 C 
HETATM   16  C3  UNL     1      28.287   0.356  54.897  1.00  0.00     0.094 C 
BRANCH  16  17
HETATM   17  C4  UNL     1      29.250   1.084  54.034  1.00  0.00     0.408 C 
HETATM   18  F1  UNL     1      28.629   1.603  52.915  1.00  0.00    -0.167 F 
HETATM   19  F2  UNL     1      29.808   2.093  54.797  1.00  0.00    -0.167 F 
HETATM   20  F3  UNL     1      30.251   0.226  53.582  1.00  0.00    -0.167 F 
ENDBRANCH  16  17
ENDBRANCH  12  15
ENDBRANCH   1  11
BRANCH   8  21
HETATM   21  N4  UNL     1      23.773   2.835  49.112  1.00  0.00    -0.340 N 
HETATM   22  H7  UNL     1      24.442   2.411  48.451  1.00  0.00     0.167 HD
BRANCH  21  23
HETATM   23  C11 UNL     1      23.985   4.178  49.541  1.00  0.00     0.035 A 
HETATM   24  C12 UNL     1      25.281   4.681  49.679  1.00  0.00     0.029 A 
HETATM   25  C13 UNL     1      25.388   6.003  50.102  1.00  0.00     0.004 A 
HETATM   26  C14 UNL     1      24.352   6.848  50.391  1.00  0.00     0.019 A 
HETATM   27  C15 UNL     1      23.090   6.312  50.241  1.00  0.00     0.013 A 
HETATM   28 BR1  UNL     1      21.537   7.358  50.604  1.00  0.00    -0.051 Br
HETATM   29  C16 UNL     1      22.911   5.010  49.827  1.00  0.00     0.048 A 
ENDBRANCH  21  23
ENDBRANCH   8  21
TORSDOF 5
ENDMDL
MODEL 8
REMARK VINA RESULT:      -8.2      3.503      5.535
REMARK  5 active torsions:
REMARK  status: ('A' for Active; 'I' for Inactive)
REMARK    1  A    between atoms: C1_2  and  C2_3 
REMARK       I    between atoms: C1_2  and  N1_9 
REMARK    2  A    between atoms: C3_4  and  C4_5 
REMARK    3  A    between atoms: N1_9  and  C5_10 
REMARK    4  A    between atoms: C10_17  and  N4_18 
REMARK    5  A    between atoms: N4_18  and  C11_19 
ROOT
HETATM    1  C5  UNL     1      25.896   3.117  50.631  1.00  0.00     0.036 A 
HETATM    2  C6  UNL     1      26.765   3.443  49.584  1.00  0.00     0.032 A 
HETATM    3  C7  UNL     1      26.720   4.659  48.956  1.00  0.00     0.035 A 
HETATM    4  C8  UNL     1      25.796   5.599  49.355  1.00  0.00     0.072 A 
HETATM    5  N2  UNL     1      25.736   6.804  48.749  1.00  0.00    -0.241 NA
HETATM    6  C9  UNL     1      24.797   7.642  49.220  1.00  0.00     0.236 A 
HETATM    7  N3  UNL     1      23.944   7.377  50.214  1.00  0.00    -0.224 NA
HETATM    8  C10 UNL     1      23.995   6.163  50.835  1.00  0.00     0.142 A 
HETATM    9  C17 UNL     1      24.950   5.273  50.377  1.00  0.00     0.041 A 
HETATM   10  C18 UNL     1      24.973   4.043  51.036  1.00  0.00     0.047 A 
ENDROOT
BRANCH   1  11
HETATM   11  N1  UNL     1      26.101   1.809  51.152  1.00  0.00    -0.324 N 
HETATM   12  C1  UNL     1      27.095   1.446  52.089  1.00  0.00     0.245 C 
HETATM   13  O1  UNL     1      27.689   2.534  52.304  1.00  0.00    -0.268 OA
HETATM   14  H3  UNL     1      25.348   1.287  50.652  1.00  0.00     0.169 HD
BRANCH  12  15
HETATM   15  C2  UNL     1      27.121   0.051  52.482  1.00  0.00     0.079 C 
HETATM   16  C3  UNL     1      27.742  -0.937  53.068  1.00  0.00     0.094 C 
BRANCH  16  17
HETATM   17  C4  UNL     1      29.067  -0.879  53.733  1.00  0.00     0.408 C 
HETATM   18  F1  UNL     1      29.653  -2.128  53.797  1.00  0.00    -0.167 F 
HETATM   19  F2  UNL     1      29.854  -0.005  53.007  1.00  0.00    -0.167 F 
HETATM   20  F3  UNL     1      28.940  -0.422  55.044  1.00  0.00    -0.167 F 
ENDBRANCH  16  17
ENDBRANCH  12  15
ENDBRANCH   1  11
BRANCH   8  21
HETATM   21  N4  UNL     1      23.085   5.858  51.911  1.00  0.00    -0.340 N 
HETATM   22  H7  UNL     1      23.278   6.108  52.893  1.00  0.00     0.167 HD
BRANCH  21  23
HETATM   23  C11 UNL     1      21.870   5.183  51.598  1.00  0.00     0.035 A 
HETATM   24  C12 UNL     1      21.487   4.045  52.312  1.00  0.00     0.029 A 
HETATM   25  C13 UNL     1      20.284   3.455  51.935  1.00  0.00     0.004 A 
HETATM   26  C14 UNL     1      19.449   3.881  50.939  1.00  0.00     0.019 A 
HETATM   27  C15 UNL     1      19.864   5.007  50.259  1.00  0.00     0.013 A 
HETATM   28 BR1  UNL     1      18.815   5.732  48.841  1.00  0.00    -0.051 Br
HETATM   29  C16 UNL     1      21.044   5.641  50.579  1.00  0.00     0.048 A 
ENDBRANCH  21  23
ENDBRANCH   8  21
TORSDOF 5
ENDMDL
MODEL 9
REMARK VINA RESULT:      -8.0      4.669      6.875
REMARK  5 active torsions:
REMARK  status: ('A' for Active; 'I' for Inactive)
REMARK    1  A    between atoms: C1_2  and  C2_3 
REMARK       I    between atoms: C1_2  and  N1_9 
REMARK    2  A    between atoms: C3_4  and  C4_5 
REMARK    3  A    between atoms: N1_9  and  C5_10 
REMARK    4  A    between atoms: C10_17  and  N4_18 
REMARK    5  A    between atoms: N4_18  and  C11_19 
ROOT
HETATM    1  C5  UNL     1      25.529   3.521  49.917  1.00  0.00     0.036 A 
HETATM    2  C6  UNL     1      24.261   3.256  49.386  1.00  0.00     0.032 A 
HETATM    3  C7  UNL     1      23.518   4.223  48.763  1.00  0.00     0.035 A 
HETATM    4  C8  UNL     1      24.022   5.500  48.647  1.00  0.00     0.072 A 
HETATM    5  N2  UNL     1      23.306   6.467  48.035  1.00  0.00    -0.241 NA
HETATM    6  C9  UNL     1      23.895   7.675  47.979  1.00  0.00     0.236 A 
HETATM    7  N3  UNL     1      25.101   7.977  48.471  1.00  0.00    -0.224 NA
HETATM    8  C10 UNL     1      25.833   7.007  49.092  1.00  0.00     0.142 A 
HETATM    9  C17 UNL     1      25.260   5.751  49.169  1.00  0.00     0.041 A 
HETATM   10  C18 UNL     1      26.038   4.786  49.809  1.00  0.00     0.047 A 
ENDROOT
BRANCH   1  11
HETATM   11  N1  UNL     1      26.137   2.387  50.523  1.00  0.00    -0.324 N 
HETATM   12  C1  UNL     1      25.951   1.973  51.861  1.00  0.00     0.245 C 
HETATM   13  O1  UNL     1      25.154   2.835  52.314  1.00  0.00    -0.268 OA
HETATM   14  H3  UNL     1      26.697   2.023  49.721  1.00  0.00     0.169 HD
BRANCH  12  15
HETATM   15  C2  UNL     1      26.673   0.784  52.267  1.00  0.00     0.079 C 
HETATM   16  C3  UNL     1      27.647   0.241  52.947  1.00  0.00     0.094 C 
BRANCH  16  17
HETATM   17  C4  UNL     1      28.635   0.950  53.797  1.00  0.00     0.408 C 
HETATM   18  F1  UNL     1      28.501   0.598  55.125  1.00  0.00    -0.167 F 
HETATM   19  F2  UNL     1      29.894   0.621  53.328  1.00  0.00    -0.167 F 
HETATM   20  F3  UNL     1      28.450   2.330  53.720  1.00  0.00    -0.167 F 
ENDBRANCH  16  17
ENDBRANCH  12  15
ENDBRANCH   1  11
BRANCH   8  21
HETATM   21  N4  UNL     1      27.137   7.313  49.628  1.00  0.00    -0.340 N 
HETATM   22  H7  UNL     1      27.369   7.207  50.627  1.00  0.00     0.167 HD
BRANCH  21  23
HETATM   23  C11 UNL     1      28.143   7.779  48.733  1.00  0.00     0.035 A 
HETATM   24  C12 UNL     1      28.446   7.063  47.572  1.00  0.00     0.029 A 
HETATM   25  C13 UNL     1      29.442   7.597  46.759  1.00  0.00     0.004 A 
HETATM   26  C14 UNL     1      30.146   8.746  46.989  1.00  0.00     0.019 A 
HETATM   27  C15 UNL     1      29.816   9.422  48.145  1.00  0.00     0.013 A 
HETATM   28 BR1  UNL     1      30.705  11.044  48.614  1.00  0.00    -0.051 Br
HETATM   29  C16 UNL     1      28.841   8.951  48.995  1.00  0.00     0.048 A 
ENDBRANCH  21  23
ENDBRANCH   8  21
TORSDOF 5
ENDMDL
