MODEL 1
REMARK VINA RESULT:      -7.6      0.000      0.000
REMARK  5 active torsions:
REMARK  status: ('A' for Active; 'I' for Inactive)
REMARK    1  A    between atoms: C2_2  and  C3_3 
REMARK       I    between atoms: C3_3  and  N1_5 
REMARK    2  A    between atoms: N1_5  and  C4_6 
REMARK    3  A    between atoms: C8_10  and  N2_11 
REMARK    4  A    between atoms: N2_11  and  C9_12 
REMARK    5  A    between atoms: C12_18  and  C13_19 
ROOT
HETATM    1  C4  UNL     1      25.426  -0.267  53.296  1.00  0.00     0.037 A 
HETATM    2  C5  UNL     1      24.378  -0.661  54.098  1.00  0.00     0.029 A 
HETATM    3  C6  UNL     1      23.121  -0.174  53.824  1.00  0.00     0.004 A 
HETATM    4  C7  UNL     1      22.977   0.687  52.760  1.00  0.00     0.029 A 
HETATM    5  C8  UNL     1      23.981   1.118  51.926  1.00  0.00     0.035 A 
HETATM    6  C15 UNL     1      25.205   0.597  52.250  1.00  0.00     0.059 A 
ENDROOT
BRANCH   5   7
HETATM    7  N2  UNL     1      23.823   1.999  50.831  1.00  0.00    -0.340 N 
HETATM    8  H8  UNL     1      23.706   1.528  49.901  1.00  0.00     0.167 HD
BRANCH   7   9
HETATM    9  C9  UNL     1      23.803   3.417  50.848  1.00  0.00     0.143 A 
HETATM   10  N3  UNL     1      22.798   4.184  51.261  1.00  0.00    -0.185 NA
HETATM   11  C10 UNL     1      22.774   5.517  51.275  1.00  0.00     0.311 A 
HETATM   12  F1  UNL     1      21.706   6.232  51.713  1.00  0.00    -0.161 F 
HETATM   13  N4  UNL     1      23.856   6.209  50.832  1.00  0.00    -0.215 NA
HETATM   14  C11 UNL     1      24.921   5.500  50.396  1.00  0.00     0.135 A 
HETATM   15  C12 UNL     1      24.895   4.123  50.403  1.00  0.00     0.039 A 
BRANCH  15  16
HETATM   16  C13 UNL     1      26.143   3.477  49.898  1.00  0.00     0.204 C 
HETATM   17  C14 UNL     1      26.975   4.449  49.083  1.00  0.00     0.050 C 
HETATM   18  F2  UNL     1      26.973   3.111  50.970  1.00  0.00    -0.245 F 
ENDBRANCH  15  16
ENDBRANCH   7   9
ENDBRANCH   5   7
BRANCH   1  19
HETATM   19  N1  UNL     1      26.748  -0.752  53.546  1.00  0.00    -0.324 N 
HETATM   20  C3  UNL     1      27.479   0.196  54.342  1.00  0.00     0.244 C 
HETATM   21  O1  UNL     1      27.047   1.282  54.761  1.00  0.00    -0.268 OA
HETATM   22  H4  UNL     1      27.294  -1.615  53.291  1.00  0.00     0.169 HD
BRANCH  20  23
HETATM   23  C2  UNL     1      28.863  -0.061  54.739  1.00  0.00     0.064 C 
HETATM   24  C1  UNL     1      29.556  -0.652  53.778  1.00  0.00     0.017 C 
ENDBRANCH  20  23
ENDBRANCH   1  19
TORSDOF 5
ENDMDL
MODEL 2
REMARK VINA RESULT:      -7.6      3.348      6.441
REMARK  5 active torsions:
REMARK  status: ('A' for Active; 'I' for Inactive)
REMARK    1  A    between atoms: C2_2  and  C3_3 
REMARK       I    between atoms: C3_3  and  N1_5 
REMARK    2  A    between atoms: N1_5  and  C4_6 
REMARK    3  A    between atoms: C8_10  and  N2_11 
REMARK    4  A    between atoms: N2_11  and  C9_12 
REMARK    5  A    between atoms: C12_18  and  C13_19 
ROOT
HETATM    1  C4  UNL     1      25.644   3.463  49.784  1.00  0.00     0.037 A 
HETATM    2  C5  UNL     1      24.353   3.268  49.343  1.00  0.00     0.029 A 
HETATM    3  C6  UNL     1      23.457   2.653  50.186  1.00  0.00     0.004 A 
HETATM    4  C7  UNL     1      23.897   2.262  51.429  1.00  0.00     0.029 A 
HETATM    5  C8  UNL     1      25.168   2.427  51.926  1.00  0.00     0.035 A 
HETATM    6  C15 UNL     1      26.012   3.045  51.041  1.00  0.00     0.059 A 
ENDROOT
BRANCH   5   7
HETATM    7  N2  UNL     1      25.612   2.025  53.207  1.00  0.00    -0.340 N 
HETATM    8  H8  UNL     1      24.896   2.119  53.969  1.00  0.00     0.167 HD
BRANCH   7   9
HETATM    9  C9  UNL     1      26.886   1.521  53.572  1.00  0.00     0.143 A 
HETATM   10  N3  UNL     1      27.902   2.229  54.058  1.00  0.00    -0.185 NA
HETATM   11  C10 UNL     1      29.102   1.759  54.398  1.00  0.00     0.311 A 
HETATM   12  F1  UNL     1      30.092   2.548  54.888  1.00  0.00    -0.161 F 
HETATM   13  N4  UNL     1      29.366   0.434  54.255  1.00  0.00    -0.215 NA
HETATM   14  C11 UNL     1      28.383  -0.354  53.767  1.00  0.00     0.135 A 
HETATM   15  C12 UNL     1      27.159   0.181  53.430  1.00  0.00     0.039 A 
BRANCH  15  16
HETATM   16  C13 UNL     1      26.170  -0.810  52.912  1.00  0.00     0.204 C 
HETATM   17  C14 UNL     1      26.860  -2.066  52.412  1.00  0.00     0.050 C 
HETATM   18  F2  UNL     1      25.331  -1.253  53.947  1.00  0.00    -0.245 F 
ENDBRANCH  15  16
ENDBRANCH   7   9
ENDBRANCH   5   7
BRANCH   1  19
HETATM   19  N1  UNL     1      26.607   4.100  48.940  1.00  0.00    -0.324 N 
HETATM   20  C3  UNL     1      26.533   5.527  49.099  1.00  0.00     0.244 C 
HETATM   21  O1  UNL     1      25.756   6.138  49.851  1.00  0.00    -0.268 OA
HETATM   22  H4  UNL     1      27.333   3.778  48.252  1.00  0.00     0.169 HD
BRANCH  20  23
HETATM   23  C2  UNL     1      27.415   6.416  48.344  1.00  0.00     0.064 C 
HETATM   24  C1  UNL     1      28.616   5.889  48.161  1.00  0.00     0.017 C 
ENDBRANCH  20  23
ENDBRANCH   1  19
TORSDOF 5
ENDMDL
MODEL 3
REMARK VINA RESULT:      -7.5      2.397      3.013
REMARK  5 active torsions:
REMARK  status: ('A' for Active; 'I' for Inactive)
REMARK    1  A    between atoms: C2_2  and  C3_3 
REMARK       I    between atoms: C3_3  and  N1_5 
REMARK    2  A    between atoms: N1_5  and  C4_6 
REMARK    3  A    between atoms: C8_10  and  N2_11 
REMARK    4  A    between atoms: N2_11  and  C9_12 
REMARK    5  A    between atoms: C12_18  and  C13_19 
ROOT
HETATM    1  C4  UNL     1      25.242  -0.803  54.230  1.00  0.00     0.037 A 
HETATM    2  C5  UNL     1      24.504  -1.296  55.284  1.00  0.00     0.029 A 
HETATM    3  C6  UNL     1      23.138  -1.138  55.260  1.00  0.00     0.004 A 
HETATM    4  C7  UNL     1      22.578  -0.492  54.183  1.00  0.00     0.029 A 
HETATM    5  C8  UNL     1      23.258   0.022  53.104  1.00  0.00     0.035 A 
HETATM    6  C15 UNL     1      24.612  -0.168  53.186  1.00  0.00     0.059 A 
ENDROOT
BRANCH   5   7
HETATM    7  N2  UNL     1      22.674   0.681  51.997  1.00  0.00    -0.340 N 
HETATM    8  H8  UNL     1      23.044   0.381  51.062  1.00  0.00     0.167 HD
BRANCH   7   9
HETATM    9  C9  UNL     1      21.666   1.678  52.007  1.00  0.00     0.143 A 
HETATM   10  N3  UNL     1      20.353   1.469  51.950  1.00  0.00    -0.185 NA
HETATM   11  C10 UNL     1      19.403   2.403  51.955  1.00  0.00     0.311 A 
HETATM   12  F1  UNL     1      18.078   2.111  51.893  1.00  0.00    -0.161 F 
HETATM   13  N4  UNL     1      19.755   3.714  52.023  1.00  0.00    -0.215 NA
HETATM   14  C11 UNL     1      21.072   4.009  52.085  1.00  0.00     0.135 A 
HETATM   15  C12 UNL     1      22.015   3.006  52.077  1.00  0.00     0.039 A 
BRANCH  15  16
HETATM   16  C13 UNL     1      23.428   3.481  52.157  1.00  0.00     0.204 C 
HETATM   17  C14 UNL     1      23.510   4.989  52.004  1.00  0.00     0.050 C 
HETATM   18  F2  UNL     1      23.961   3.224  53.430  1.00  0.00    -0.245 F 
ENDBRANCH  15  16
ENDBRANCH   7   9
ENDBRANCH   5   7
BRANCH   1  19
HETATM   19  N1  UNL     1      26.665  -0.948  54.215  1.00  0.00    -0.324 N 
HETATM   20  C3  UNL     1      27.289   0.264  54.671  1.00  0.00     0.244 C 
HETATM   21  O1  UNL     1      26.700   1.297  55.029  1.00  0.00    -0.268 OA
HETATM   22  H4  UNL     1      27.340  -1.712  53.956  1.00  0.00     0.169 HD
BRANCH  20  23
HETATM   23  C2  UNL     1      28.744   0.379  54.750  1.00  0.00     0.064 C 
HETATM   24  C1  UNL     1      29.355  -0.409  53.879  1.00  0.00     0.017 C 
ENDBRANCH  20  23
ENDBRANCH   1  19
TORSDOF 5
ENDMDL
MODEL 4
REMARK VINA RESULT:      -7.5      3.006      4.177
REMARK  5 active torsions:
REMARK  status: ('A' for Active; 'I' for Inactive)
REMARK    1  A    between atoms: C2_2  and  C3_3 
REMARK       I    between atoms: C3_3  and  N1_5 
REMARK    2  A    between atoms: N1_5  and  C4_6 
REMARK    3  A    between atoms: C8_10  and  N2_11 
REMARK    4  A    between atoms: N2_11  and  C9_12 
REMARK    5  A    between atoms: C12_18  and  C13_19 
ROOT
HETATM    1  C4  UNL     1      25.182  -0.860  54.283  1.00  0.00     0.037 A 
HETATM    2  C5  UNL     1      24.484  -1.314  55.381  1.00  0.00     0.029 A 
HETATM    3  C6  UNL     1      23.115  -1.177  55.392  1.00  0.00     0.004 A 
HETATM    4  C7  UNL     1      22.512  -0.591  54.304  1.00  0.00     0.029 A 
HETATM    5  C8  UNL     1      23.152  -0.118  53.182  1.00  0.00     0.035 A 
HETATM    6  C15 UNL     1      24.510  -0.284  53.231  1.00  0.00     0.059 A 
ENDROOT
BRANCH   5   7
HETATM    7  N2  UNL     1      22.524   0.480  52.064  1.00  0.00    -0.340 N 
HETATM    8  H8  UNL     1      22.766   0.046  51.140  1.00  0.00     0.167 HD
BRANCH   7   9
HETATM    9  C9  UNL     1      21.622   1.574  52.051  1.00  0.00     0.143 A 
HETATM   10  N3  UNL     1      21.946   2.860  52.165  1.00  0.00    -0.185 NA
HETATM   11  C10 UNL     1      21.102   3.892  52.157  1.00  0.00     0.311 A 
HETATM   12  F1  UNL     1      21.510   5.181  52.279  1.00  0.00    -0.161 F 
HETATM   13  N4  UNL     1      19.770   3.663  52.022  1.00  0.00    -0.215 NA
HETATM   14  C11 UNL     1      19.360   2.381  51.900  1.00  0.00     0.135 A 
HETATM   15  C12 UNL     1      20.273   1.350  51.914  1.00  0.00     0.039 A 
BRANCH  15  16
HETATM   16  C13 UNL     1      19.676  -0.010  51.763  1.00  0.00     0.204 C 
HETATM   17  C14 UNL     1      19.022  -0.470  53.052  1.00  0.00     0.050 C 
HETATM   18  F2  UNL     1      18.633   0.014  50.824  1.00  0.00    -0.245 F 
ENDBRANCH  15  16
ENDBRANCH   7   9
ENDBRANCH   5   7
BRANCH   1  19
HETATM   19  N1  UNL     1      26.606  -0.985  54.231  1.00  0.00    -0.324 N 
HETATM   20  C3  UNL     1      27.224   0.218  54.717  1.00  0.00     0.244 C 
HETATM   21  O1  UNL     1      26.630   1.228  55.126  1.00  0.00    -0.268 OA
HETATM   22  H4  UNL     1      27.284  -1.730  53.929  1.00  0.00     0.169 HD
BRANCH  20  23
HETATM   23  C2  UNL     1      28.679   0.349  54.768  1.00  0.00     0.064 C 
HETATM   24  C1  UNL     1      29.250   0.027  53.617  1.00  0.00     0.017 C 
ENDBRANCH  20  23
ENDBRANCH   1  19
TORSDOF 5
ENDMDL
MODEL 5
REMARK VINA RESULT:      -7.4      1.230      2.749
REMARK  5 active torsions:
REMARK  status: ('A' for Active; 'I' for Inactive)
REMARK    1  A    between atoms: C2_2  and  C3_3 
REMARK       I    between atoms: C3_3  and  N1_5 
REMARK    2  A    between atoms: N1_5  and  C4_6 
REMARK    3  A    between atoms: C8_10  and  N2_11 
REMARK    4  A    between atoms: N2_11  and  C9_12 
REMARK    5  A    between atoms: C12_18  and  C13_19 
ROOT
HETATM    1  C4  UNL     1      25.848  -0.106  52.974  1.00  0.00     0.037 A 
HETATM    2  C5  UNL     1      24.879  -0.512  53.865  1.00  0.00     0.029 A 
HETATM    3  C6  UNL     1      23.603  -0.020  53.718  1.00  0.00     0.004 A 
HETATM    4  C7  UNL     1      23.360   0.856  52.686  1.00  0.00     0.029 A 
HETATM    5  C8  UNL     1      24.281   1.300  51.767  1.00  0.00     0.035 A 
HETATM    6  C15 UNL     1      25.530   0.774  51.966  1.00  0.00     0.059 A 
ENDROOT
BRANCH   5   7
HETATM    7  N2  UNL     1      24.022   2.198  50.706  1.00  0.00    -0.340 N 
HETATM    8  H8  UNL     1      23.154   1.987  50.155  1.00  0.00     0.167 HD
BRANCH   7   9
HETATM    9  C9  UNL     1      24.784   3.327  50.311  1.00  0.00     0.143 A 
HETATM   10  N3  UNL     1      25.912   3.306  49.606  1.00  0.00    -0.185 NA
HETATM   11  C10 UNL     1      26.632   4.364  49.235  1.00  0.00     0.311 A 
HETATM   12  F1  UNL     1      27.778   4.262  48.514  1.00  0.00    -0.161 F 
HETATM   13  N4  UNL     1      26.220   5.609  49.588  1.00  0.00    -0.215 NA
HETATM   14  C11 UNL     1      25.080   5.715  50.306  1.00  0.00     0.135 A 
HETATM   15  C12 UNL     1      24.371   4.590  50.663  1.00  0.00     0.039 A 
BRANCH  15  16
HETATM   16  C13 UNL     1      23.130   4.861  51.449  1.00  0.00     0.204 C 
HETATM   17  C14 UNL     1      23.401   4.805  52.941  1.00  0.00     0.050 C 
HETATM   18  F2  UNL     1      22.680   6.170  51.218  1.00  0.00    -0.245 F 
ENDBRANCH  15  16
ENDBRANCH   7   9
ENDBRANCH   5   7
BRANCH   1  19
HETATM   19  N1  UNL     1      27.187  -0.595  53.090  1.00  0.00    -0.324 N 
HETATM   20  C3  UNL     1      27.942   0.245  53.980  1.00  0.00     0.244 C 
HETATM   21  O1  UNL     1      27.517   1.251  54.569  1.00  0.00    -0.268 OA
HETATM   22  H4  UNL     1      27.730  -1.401  52.689  1.00  0.00     0.169 HD
BRANCH  20  23
HETATM   23  C2  UNL     1      29.347  -0.038  54.271  1.00  0.00     0.064 C 
HETATM   24  C1  UNL     1      29.781  -1.116  53.637  1.00  0.00     0.017 C 
ENDBRANCH  20  23
ENDBRANCH   1  19
TORSDOF 5
ENDMDL
MODEL 6
REMARK VINA RESULT:      -7.2      2.675      7.117
REMARK  5 active torsions:
REMARK  status: ('A' for Active; 'I' for Inactive)
REMARK    1  A    between atoms: C2_2  and  C3_3 
REMARK       I    between atoms: C3_3  and  N1_5 
REMARK    2  A    between atoms: N1_5  and  C4_6 
REMARK    3  A    between atoms: C8_10  and  N2_11 
REMARK    4  A    between atoms: N2_11  and  C9_12 
REMARK    5  A    between atoms: C12_18  and  C13_19 
ROOT
HETATM    1  C4  UNL     1      24.993   5.723  49.028  1.00  0.00     0.037 A 
HETATM    2  C5  UNL     1      26.051   6.369  48.427  1.00  0.00     0.029 A 
HETATM    3  C6  UNL     1      27.283   5.757  48.433  1.00  0.00     0.004 A 
HETATM    4  C7  UNL     1      27.395   4.529  49.041  1.00  0.00     0.029 A 
HETATM    5  C8  UNL     1      26.380   3.835  49.657  1.00  0.00     0.035 A 
HETATM    6  C15 UNL     1      25.181   4.495  49.617  1.00  0.00     0.059 A 
ENDROOT
BRANCH   5   7
HETATM    7  N2  UNL     1      26.503   2.570  50.276  1.00  0.00    -0.340 N 
HETATM    8  H8  UNL     1      26.390   1.751  49.629  1.00  0.00     0.167 HD
BRANCH   7   9
HETATM    9  C9  UNL     1      26.757   2.287  51.642  1.00  0.00     0.143 A 
HETATM   10  N3  UNL     1      27.892   2.522  52.296  1.00  0.00    -0.185 NA
HETATM   11  C10 UNL     1      28.136   2.254  53.578  1.00  0.00     0.311 A 
HETATM   12  F1  UNL     1      29.325   2.523  54.176  1.00  0.00    -0.161 F 
HETATM   13  N4  UNL     1      27.164   1.685  54.338  1.00  0.00    -0.215 NA
HETATM   14  C11 UNL     1      25.979   1.415  53.747  1.00  0.00     0.135 A 
HETATM   15  C12 UNL     1      25.778   1.712  52.417  1.00  0.00     0.039 A 
BRANCH  15  16
HETATM   16  C13 UNL     1      24.419   1.365  51.903  1.00  0.00     0.204 C 
HETATM   17  C14 UNL     1      23.695   0.429  52.852  1.00  0.00     0.050 C 
HETATM   18  F2  UNL     1      23.609   2.510  51.846  1.00  0.00    -0.245 F 
ENDBRANCH  15  16
ENDBRANCH   7   9
ENDBRANCH   5   7
BRANCH   1  19
HETATM   19  N1  UNL     1      23.695   6.324  49.043  1.00  0.00    -0.324 N 
HETATM   20  C3  UNL     1      23.453   6.942  50.318  1.00  0.00     0.244 C 
HETATM   21  O1  UNL     1      24.239   6.963  51.279  1.00  0.00    -0.268 OA
HETATM   22  H4  UNL     1      22.901   6.417  48.359  1.00  0.00     0.169 HD
BRANCH  20  23
HETATM   23  C2  UNL     1      22.192   7.629  50.595  1.00  0.00     0.064 C 
HETATM   24  C1  UNL     1      21.488   7.843  49.494  1.00  0.00     0.017 C 
ENDBRANCH  20  23
ENDBRANCH   1  19
TORSDOF 5
ENDMDL
MODEL 7
REMARK VINA RESULT:      -7.0      2.828      6.715
REMARK  5 active torsions:
REMARK  status: ('A' for Active; 'I' for Inactive)
REMARK    1  A    between atoms: C2_2  and  C3_3 
REMARK       I    between atoms: C3_3  and  N1_5 
REMARK    2  A    between atoms: N1_5  and  C4_6 
REMARK    3  A    between atoms: C8_10  and  N2_11 
REMARK    4  A    between atoms: N2_11  and  C9_12 
REMARK    5  A    between atoms: C12_18  and  C13_19 
ROOT
HETATM    1  C4  UNL     1      24.505   4.851  51.060  1.00  0.00     0.037 A 
HETATM    2  C5  UNL     1      23.349   5.484  51.464  1.00  0.00     0.029 A 
HETATM    3  C6  UNL     1      22.332   4.722  51.989  1.00  0.00     0.004 A 
HETATM    4  C7  UNL     1      22.521   3.363  52.083  1.00  0.00     0.029 A 
HETATM    5  C8  UNL     1      23.647   2.674  51.698  1.00  0.00     0.035 A 
HETATM    6  C15 UNL     1      24.622   3.487  51.186  1.00  0.00     0.059 A 
ENDROOT
BRANCH   5   7
HETATM    7  N2  UNL     1      23.835   1.276  51.802  1.00  0.00    -0.340 N 
HETATM    8  H8  UNL     1      23.456   0.721  50.996  1.00  0.00     0.167 HD
BRANCH   7   9
HETATM    9  C9  UNL     1      24.465   0.555  52.848  1.00  0.00     0.143 A 
HETATM   10  N3  UNL     1      25.763   0.568  53.141  1.00  0.00    -0.185 NA
HETATM   11  C10 UNL     1      26.359  -0.111  54.121  1.00  0.00     0.311 A 
HETATM   12  F1  UNL     1      27.694  -0.046  54.358  1.00  0.00    -0.161 F 
HETATM   13  N4  UNL     1      25.615  -0.911  54.928  1.00  0.00    -0.215 NA
HETATM   14  C11 UNL     1      24.285  -0.978  54.695  1.00  0.00     0.135 A 
HETATM   15  C12 UNL     1      23.718  -0.256  53.670  1.00  0.00     0.039 A 
BRANCH  15  16
HETATM   16  C13 UNL     1      22.239  -0.423  53.537  1.00  0.00     0.204 C 
HETATM   17  C14 UNL     1      21.734  -1.558  54.407  1.00  0.00     0.050 C 
HETATM   18  F2  UNL     1      21.572   0.715  54.015  1.00  0.00    -0.245 F 
ENDBRANCH  15  16
ENDBRANCH   7   9
ENDBRANCH   5   7
BRANCH   1  19
HETATM   19  N1  UNL     1      25.588   5.607  50.511  1.00  0.00    -0.324 N 
HETATM   20  C3  UNL     1      25.367   5.836  49.109  1.00  0.00     0.244 C 
HETATM   21  O1  UNL     1      24.391   5.443  48.451  1.00  0.00    -0.268 OA
HETATM   22  H4  UNL     1      26.480   6.023  50.883  1.00  0.00     0.169 HD
BRANCH  20  23
HETATM   23  C2  UNL     1      26.332   6.587  48.307  1.00  0.00     0.064 C 
HETATM   24  C1  UNL     1      27.562   6.112  48.430  1.00  0.00     0.017 C 
ENDBRANCH  20  23
ENDBRANCH   1  19
TORSDOF 5
ENDMDL
MODEL 8
REMARK VINA RESULT:      -6.9      1.861      2.958
REMARK  5 active torsions:
REMARK  status: ('A' for Active; 'I' for Inactive)
REMARK    1  A    between atoms: C2_2  and  C3_3 
REMARK       I    between atoms: C3_3  and  N1_5 
REMARK    2  A    between atoms: N1_5  and  C4_6 
REMARK    3  A    between atoms: C8_10  and  N2_11 
REMARK    4  A    between atoms: N2_11  and  C9_12 
REMARK    5  A    between atoms: C12_18  and  C13_19 
ROOT
HETATM    1  C4  UNL     1      25.863  -0.230  53.121  1.00  0.00     0.037 A 
HETATM    2  C5  UNL     1      25.041  -0.753  54.096  1.00  0.00     0.029 A 
HETATM    3  C6  UNL     1      23.711  -0.402  54.091  1.00  0.00     0.004 A 
HETATM    4  C7  UNL     1      23.270   0.456  53.111  1.00  0.00     0.029 A 
HETATM    5  C8  UNL     1      24.038   1.011  52.114  1.00  0.00     0.035 A 
HETATM    6  C15 UNL     1      25.350   0.623  52.173  1.00  0.00     0.059 A 
ENDROOT
BRANCH   5   7
HETATM    7  N2  UNL     1      23.575   1.889  51.108  1.00  0.00    -0.340 N 
HETATM    8  H8  UNL     1      23.576   1.486  50.139  1.00  0.00     0.167 HD
BRANCH   7   9
HETATM    9  C9  UNL     1      23.118   3.224  51.255  1.00  0.00     0.143 A 
HETATM   10  N3  UNL     1      23.881   4.301  51.421  1.00  0.00    -0.185 NA
HETATM   11  C10 UNL     1      23.456   5.557  51.563  1.00  0.00     0.311 A 
HETATM   12  F1  UNL     1      24.299   6.608  51.730  1.00  0.00    -0.161 F 
HETATM   13  N4  UNL     1      22.122   5.816  51.546  1.00  0.00    -0.215 NA
HETATM   14  C11 UNL     1      21.280   4.772  51.381  1.00  0.00     0.135 A 
HETATM   15  C12 UNL     1      21.771   3.494  51.237  1.00  0.00     0.039 A 
BRANCH  15  16
HETATM   16  C13 UNL     1      20.724   2.444  51.056  1.00  0.00     0.204 C 
HETATM   17  C14 UNL     1      20.041   2.116  52.371  1.00  0.00     0.050 C 
HETATM   18  F2  UNL     1      19.693   2.916  50.229  1.00  0.00    -0.245 F 
ENDBRANCH  15  16
ENDBRANCH   7   9
ENDBRANCH   5   7
BRANCH   1  19
HETATM   19  N1  UNL     1      27.252  -0.571  53.090  1.00  0.00    -0.324 N 
HETATM   20  C3  UNL     1      28.009   0.375  53.864  1.00  0.00     0.244 C 
HETATM   21  O1  UNL     1      27.547   1.351  54.477  1.00  0.00    -0.268 OA
HETATM   22  H4  UNL     1      27.830  -1.329  52.646  1.00  0.00     0.169 HD
BRANCH  20  23
HETATM   23  C2  UNL     1      29.460   0.252  53.994  1.00  0.00     0.064 C 
HETATM   24  C1  UNL     1      29.891  -0.954  53.660  1.00  0.00     0.017 C 
ENDBRANCH  20  23
ENDBRANCH   1  19
TORSDOF 5
ENDMDL
MODEL 9
REMARK VINA RESULT:      -6.6      2.169      2.786
REMARK  5 active torsions:
REMARK  status: ('A' for Active; 'I' for Inactive)
REMARK    1  A    between atoms: C2_2  and  C3_3 
REMARK       I    between atoms: C3_3  and  N1_5 
REMARK    2  A    between atoms: N1_5  and  C4_6 
REMARK    3  A    between atoms: C8_10  and  N2_11 
REMARK    4  A    between atoms: N2_11  and  C9_12 
REMARK    5  A    between atoms: C12_18  and  C13_19 
ROOT
HETATM    1  C4  UNL     1      25.398   0.693  52.886  1.00  0.00     0.037 A 
HETATM    2  C5  UNL     1      24.683  -0.437  53.217  1.00  0.00     0.029 A 
HETATM    3  C6  UNL     1      23.316  -0.339  53.336  1.00  0.00     0.004 A 
HETATM    4  C7  UNL     1      22.732   0.888  53.119  1.00  0.00     0.029 A 
HETATM    5  C8  UNL     1      23.389   2.049  52.787  1.00  0.00     0.035 A 
HETATM    6  C15 UNL     1      24.745   1.886  52.683  1.00  0.00     0.059 A 
ENDROOT
BRANCH   5   7
HETATM    7  N2  UNL     1      22.780   3.306  52.561  1.00  0.00    -0.340 N 
HETATM    8  H8  UNL     1      23.264   4.117  53.019  1.00  0.00     0.167 HD
BRANCH   7   9
HETATM    9  C9  UNL     1      21.617   3.589  51.801  1.00  0.00     0.143 A 
HETATM   10  N3  UNL     1      20.359   3.479  52.221  1.00  0.00    -0.185 NA
HETATM   11  C10 UNL     1      19.262   3.741  51.509  1.00  0.00     0.311 A 
HETATM   12  F1  UNL     1      18.008   3.604  52.009  1.00  0.00    -0.161 F 
HETATM   13  N4  UNL     1      19.386   4.162  50.224  1.00  0.00    -0.215 NA
HETATM   14  C11 UNL     1      20.633   4.300  49.723  1.00  0.00     0.135 A 
HETATM   15  C12 UNL     1      21.734   4.017  50.500  1.00  0.00     0.039 A 
BRANCH  15  16
HETATM   16  C13 UNL     1      23.046   4.221  49.817  1.00  0.00     0.204 C 
HETATM   17  C14 UNL     1      23.436   3.003  49.000  1.00  0.00     0.050 C 
HETATM   18  F2  UNL     1      22.954   5.262  48.880  1.00  0.00    -0.245 F 
ENDBRANCH  15  16
ENDBRANCH   7   9
ENDBRANCH   5   7
BRANCH   1  19
HETATM   19  N1  UNL     1      26.820   0.633  52.751  1.00  0.00    -0.324 N 
HETATM   20  C3  UNL     1      27.443   0.757  54.041  1.00  0.00     0.244 C 
HETATM   21  O1  UNL     1      26.855   0.897  55.124  1.00  0.00    -0.268 OA
HETATM   22  H4  UNL     1      27.496   0.523  51.952  1.00  0.00     0.169 HD
BRANCH  20  23
HETATM   23  C2  UNL     1      28.899   0.727  54.180  1.00  0.00     0.064 C 
HETATM   24  C1  UNL     1      29.431  -0.356  53.635  1.00  0.00     0.017 C 
ENDBRANCH  20  23
ENDBRANCH   1  19
TORSDOF 5
ENDMDL
