MODEL 1
REMARK VINA RESULT:      -7.8      0.000      0.000
REMARK  3 active torsions:
REMARK  status: ('A' for Active; 'I' for Inactive)
REMARK    1  A    between atoms: C6_9  and  N3_10 
REMARK    2  A    between atoms: C9_13  and  C10_14 
REMARK    3  A    between atoms: C17_22  and  C18_23 
ROOT
HETATM    1  C1  UNL     1      20.531   2.709  52.787  1.00  0.00     0.022 C 
HETATM    2  C2  UNL     1      20.618   1.698  51.949  1.00  0.00    -0.031 C 
HETATM    3  C3  UNL     1      20.302   0.327  51.474  1.00  0.00     0.115 C 
HETATM    4  S1  UNL     1      19.215  -0.538  52.658  1.00  0.00    -0.143 SA
HETATM    5  C4  UNL     1      20.093  -0.725  54.242  1.00  0.00     0.224 C 
HETATM    6  N1  UNL     1      21.336  -1.462  54.031  1.00  0.00    -0.273 NA
HETATM    7  C5  UNL     1      22.374  -0.838  53.545  1.00  0.00     0.229 C 
HETATM    8  N2  UNL     1      23.319   0.015  53.031  1.00  0.00    -0.224 NA
HETATM    9  C6  UNL     1      23.306   0.894  52.169  1.00  0.00     0.144 C 
HETATM   10  C15 UNL     1      22.854   1.811  51.125  1.00  0.00     0.018 C 
HETATM   11  C16 UNL     1      21.596   2.227  50.972  1.00  0.00     0.045 C 
HETATM   12  N4  UNL     1      21.539   3.111  49.870  1.00  0.00    -0.381 N 
HETATM   13  C17 UNL     1      22.784   3.063  49.096  1.00  0.00     0.109 C 
HETATM   14  C21 UNL     1      23.701   2.419  50.061  1.00  0.00     0.074 C 
HETATM   15  H20 UNL     1      20.623   3.650  49.796  1.00  0.00     0.160 HD
ENDROOT
BRANCH   9  16
HETATM   16  N3  UNL     1      24.717   1.094  52.451  1.00  0.00    -0.311 N 
HETATM   17  C7  UNL     1      25.605   0.024  52.065  1.00  0.00     0.095 A 
HETATM   18  C8  UNL     1      26.930   0.053  52.288  1.00  0.00    -0.001 A 
HETATM   19  C9  UNL     1      27.611   1.162  52.942  1.00  0.00     0.033 A 
HETATM   20  C12 UNL     1      26.660   2.223  53.313  1.00  0.00     0.007 A 
HETATM   21  C13 UNL     1      25.335   2.221  53.103  1.00  0.00     0.011 A 
HETATM   22  C14 UNL     1      24.431   3.306  53.487  1.00  0.00     0.068 C 
BRANCH  19  23
HETATM   23  C10 UNL     1      28.432   0.718  54.134  1.00  0.00     0.008 C 
HETATM   24  C11 UNL     1      29.253  -0.473  53.744  1.00  0.00     0.006 C 
ENDBRANCH  19  23
ENDBRANCH   9  16
BRANCH  13  25
HETATM   25  C18 UNL     1      22.651   2.390  47.806  1.00  0.00    -0.006 C 
HETATM   26  C19 UNL     1      22.245   3.007  46.703  1.00  0.00    -0.033 C 
HETATM   27  C20 UNL     1      21.865   4.432  46.579  1.00  0.00     0.036 C 
ENDBRANCH  13  25
TORSDOF 3
ENDMDL
MODEL 2
REMARK VINA RESULT:      -7.7      2.455      4.877
REMARK  3 active torsions:
REMARK  status: ('A' for Active; 'I' for Inactive)
REMARK    1  A    between atoms: C6_9  and  N3_10 
REMARK    2  A    between atoms: C9_13  and  C10_14 
REMARK    3  A    between atoms: C17_22  and  C18_23 
ROOT
HETATM    1  C1  UNL     1      21.963   3.374  48.517  1.00  0.00     0.022 C 
HETATM    2  C2  UNL     1      21.431   3.678  49.682  1.00  0.00    -0.031 C 
HETATM    3  C3  UNL     1      20.805   4.599  50.664  1.00  0.00     0.115 C 
HETATM    4  S1  UNL     1      20.689   6.291  49.989  1.00  0.00    -0.143 SA
HETATM    5  C4  UNL     1      22.368   6.923  49.679  1.00  0.00     0.224 C 
HETATM    6  N1  UNL     1      23.138   6.901  50.919  1.00  0.00    -0.273 NA
HETATM    7  C5  UNL     1      23.653   5.776  51.332  1.00  0.00     0.229 C 
HETATM    8  N2  UNL     1      24.092   4.497  51.566  1.00  0.00    -0.224 NA
HETATM    9  C6  UNL     1      23.577   3.381  51.478  1.00  0.00     0.144 C 
HETATM   10  C15 UNL     1      22.612   2.310  51.239  1.00  0.00     0.018 C 
HETATM   11  C16 UNL     1      21.578   2.392  50.401  1.00  0.00     0.045 C 
HETATM   12  N4  UNL     1      20.876   1.166  50.421  1.00  0.00    -0.381 N 
HETATM   13  C17 UNL     1      21.325   0.325  51.536  1.00  0.00     0.109 C 
HETATM   14  C21 UNL     1      22.609   0.969  51.887  1.00  0.00     0.074 C 
HETATM   15  H20 UNL     1      20.161   1.064  49.638  1.00  0.00     0.160 HD
ENDROOT
BRANCH   9  16
HETATM   16  N3  UNL     1      24.846   2.837  51.928  1.00  0.00    -0.311 N 
HETATM   17  C7  UNL     1      24.967   2.576  53.343  1.00  0.00     0.095 A 
HETATM   18  C8  UNL     1      26.089   2.102  53.909  1.00  0.00    -0.001 A 
HETATM   19  C9  UNL     1      27.302   1.801  53.160  1.00  0.00     0.033 A 
HETATM   20  C12 UNL     1      27.124   2.084  51.726  1.00  0.00     0.007 A 
HETATM   21  C13 UNL     1      26.017   2.556  51.135  1.00  0.00     0.011 A 
HETATM   22  C14 UNL     1      25.888   2.817  49.700  1.00  0.00     0.068 C 
BRANCH  19  23
HETATM   23  C10 UNL     1      28.518   2.512  53.714  1.00  0.00     0.008 C 
HETATM   24  C11 UNL     1      29.382   1.517  54.429  1.00  0.00     0.006 C 
ENDBRANCH  19  23
ENDBRANCH   9  16
BRANCH  13  25
HETATM   25  C18 UNL     1      20.354   0.218  52.623  1.00  0.00    -0.006 C 
HETATM   26  C19 UNL     1      20.490  -0.629  53.638  1.00  0.00    -0.033 C 
HETATM   27  C20 UNL     1      21.601  -1.583  53.847  1.00  0.00     0.036 C 
ENDBRANCH  13  25
TORSDOF 3
ENDMDL
MODEL 3
REMARK VINA RESULT:      -7.4      2.874      6.900
REMARK  3 active torsions:
REMARK  status: ('A' for Active; 'I' for Inactive)
REMARK    1  A    between atoms: C6_9  and  N3_10 
REMARK    2  A    between atoms: C9_13  and  C10_14 
REMARK    3  A    between atoms: C17_22  and  C18_23 
ROOT
HETATM    1  C1  UNL     1      23.807   5.945  51.785  1.00  0.00     0.022 C 
HETATM    2  C2  UNL     1      24.326   5.271  50.780  1.00  0.00    -0.031 C 
HETATM    3  C3  UNL     1      24.825   5.121  49.391  1.00  0.00     0.115 C 
HETATM    4  S1  UNL     1      24.624   6.674  48.454  1.00  0.00    -0.143 SA
HETATM    5  C4  UNL     1      22.851   7.067  48.331  1.00  0.00     0.224 C 
HETATM    6  N1  UNL     1      22.146   5.965  47.682  1.00  0.00    -0.273 NA
HETATM    7  C5  UNL     1      21.848   4.901  48.376  1.00  0.00     0.229 C 
HETATM    8  N2  UNL     1      21.643   3.898  49.290  1.00  0.00    -0.224 NA
HETATM    9  C6  UNL     1      22.337   3.378  50.166  1.00  0.00     0.144 C 
HETATM   10  C15 UNL     1      23.460   3.064  51.046  1.00  0.00     0.018 C 
HETATM   11  C16 UNL     1      24.430   3.919  51.375  1.00  0.00     0.045 C 
HETATM   12  N4  UNL     1      25.331   3.272  52.250  1.00  0.00    -0.381 N 
HETATM   13  C17 UNL     1      25.078   1.828  52.287  1.00  0.00     0.109 C 
HETATM   14  C21 UNL     1      23.718   1.756  51.710  1.00  0.00     0.074 C 
HETATM   15  H20 UNL     1      26.020   3.930  52.725  1.00  0.00     0.160 HD
ENDROOT
BRANCH   9  16
HETATM   16  N3  UNL     1      21.198   2.526  50.463  1.00  0.00    -0.311 N 
HETATM   17  C7  UNL     1      20.381   2.918  51.586  1.00  0.00     0.095 A 
HETATM   18  C8  UNL     1      19.314   2.213  51.998  1.00  0.00    -0.001 A 
HETATM   19  C9  UNL     1      18.866   0.983  51.359  1.00  0.00     0.033 A 
HETATM   20  C12 UNL     1      19.733   0.632  50.221  1.00  0.00     0.007 A 
HETATM   21  C13 UNL     1      20.802   1.315  49.789  1.00  0.00     0.011 A 
HETATM   22  C14 UNL     1      21.631   0.926  48.646  1.00  0.00     0.068 C 
BRANCH  19  23
HETATM   23  C10 UNL     1      18.746  -0.168  52.334  1.00  0.00     0.008 C 
HETATM   24  C11 UNL     1      20.004  -0.253  53.146  1.00  0.00     0.006 C 
ENDBRANCH  19  23
ENDBRANCH   9  16
BRANCH  13  25
HETATM   25  C18 UNL     1      26.096   1.032  51.604  1.00  0.00    -0.006 C 
HETATM   26  C19 UNL     1      26.544  -0.128  52.070  1.00  0.00    -0.033 C 
HETATM   27  C20 UNL     1      26.117  -0.803  53.315  1.00  0.00     0.036 C 
ENDBRANCH  13  25
TORSDOF 3
ENDMDL
MODEL 4
REMARK VINA RESULT:      -7.2      3.966      5.244
REMARK  3 active torsions:
REMARK  status: ('A' for Active; 'I' for Inactive)
REMARK    1  A    between atoms: C6_9  and  N3_10 
REMARK    2  A    between atoms: C9_13  and  C10_14 
REMARK    3  A    between atoms: C17_22  and  C18_23 
ROOT
HETATM    1  C1  UNL     1      23.025   3.860  52.462  1.00  0.00     0.022 C 
HETATM    2  C2  UNL     1      23.336   2.914  51.602  1.00  0.00    -0.031 C 
HETATM    3  C3  UNL     1      23.857   1.577  51.220  1.00  0.00     0.115 C 
HETATM    4  S1  UNL     1      24.454   0.667  52.685  1.00  0.00    -0.143 SA
HETATM    5  C4  UNL     1      25.847   1.576  53.422  1.00  0.00     0.224 C 
HETATM    6  N1  UNL     1      26.908   1.738  52.433  1.00  0.00    -0.273 NA
HETATM    7  C5  UNL     1      26.799   2.668  51.524  1.00  0.00     0.229 C 
HETATM    8  N2  UNL     1      26.472   3.697  50.678  1.00  0.00    -0.224 NA
HETATM    9  C6  UNL     1      25.435   4.048  50.111  1.00  0.00     0.144 C 
HETATM   10  C15 UNL     1      24.047   4.099  49.658  1.00  0.00     0.018 C 
HETATM   11  C16 UNL     1      23.012   3.581  50.321  1.00  0.00     0.045 C 
HETATM   12  N4  UNL     1      21.830   3.831  49.589  1.00  0.00    -0.381 N 
HETATM   13  C17 UNL     1      22.143   4.310  48.239  1.00  0.00     0.109 C 
HETATM   14  C21 UNL     1      23.556   4.716  48.395  1.00  0.00     0.074 C 
HETATM   15  H20 UNL     1      20.935   3.637  50.133  1.00  0.00     0.160 HD
ENDROOT
BRANCH   9  16
HETATM   16  N3  UNL     1      26.200   5.146  49.546  1.00  0.00    -0.311 N 
HETATM   17  C7  UNL     1      27.291   4.785  48.673  1.00  0.00     0.095 A 
HETATM   18  C8  UNL     1      28.103   5.690  48.101  1.00  0.00    -0.001 A 
HETATM   19  C9  UNL     1      27.973   7.127  48.299  1.00  0.00     0.033 A 
HETATM   20  C12 UNL     1      26.847   7.438  49.196  1.00  0.00     0.007 A 
HETATM   21  C13 UNL     1      26.021   6.558  49.779  1.00  0.00     0.011 A 
HETATM   22  C14 UNL     1      24.910   6.919  50.660  1.00  0.00     0.068 C 
BRANCH  19  23
HETATM   23  C10 UNL     1      29.257   7.765  48.787  1.00  0.00     0.008 C 
HETATM   24  C11 UNL     1      28.952   9.137  49.307  1.00  0.00     0.006 C 
ENDBRANCH  19  23
ENDBRANCH   9  16
BRANCH  13  25
HETATM   25  C18 UNL     1      21.881   3.329  47.188  1.00  0.00    -0.006 C 
HETATM   26  C19 UNL     1      21.803   3.646  45.901  1.00  0.00    -0.033 C 
HETATM   27  C20 UNL     1      21.960   4.995  45.314  1.00  0.00     0.036 C 
ENDBRANCH  13  25
TORSDOF 3
ENDMDL
MODEL 5
REMARK VINA RESULT:      -7.2      2.576      6.023
REMARK  3 active torsions:
REMARK  status: ('A' for Active; 'I' for Inactive)
REMARK    1  A    between atoms: C6_9  and  N3_10 
REMARK    2  A    between atoms: C9_13  and  C10_14 
REMARK    3  A    between atoms: C17_22  and  C18_23 
ROOT
HETATM    1  C1  UNL     1      21.917   0.551  50.324  1.00  0.00     0.022 C 
HETATM    2  C2  UNL     1      21.920   0.954  51.577  1.00  0.00    -0.031 C 
HETATM    3  C3  UNL     1      21.280   1.267  52.879  1.00  0.00     0.115 C 
HETATM    4  S1  UNL     1      19.474   1.018  52.795  1.00  0.00    -0.143 SA
HETATM    5  C4  UNL     1      18.772   2.176  51.578  1.00  0.00     0.224 C 
HETATM    6  N1  UNL     1      19.099   3.547  51.958  1.00  0.00    -0.273 NA
HETATM    7  C5  UNL     1      20.288   4.016  51.698  1.00  0.00     0.229 C 
HETATM    8  N2  UNL     1      21.582   4.289  51.329  1.00  0.00    -0.224 NA
HETATM    9  C6  UNL     1      22.643   3.666  51.392  1.00  0.00     0.144 C 
HETATM   10  C15 UNL     1      23.627   2.618  51.654  1.00  0.00     0.018 C 
HETATM   11  C16 UNL     1      23.345   1.318  51.751  1.00  0.00     0.045 C 
HETATM   12  N4  UNL     1      24.542   0.608  51.995  1.00  0.00    -0.381 N 
HETATM   13  C17 UNL     1      25.633   1.526  52.341  1.00  0.00     0.109 C 
HETATM   14  C21 UNL     1      25.088   2.816  51.866  1.00  0.00     0.074 C 
HETATM   15  H20 UNL     1      24.448  -0.447  51.885  1.00  0.00     0.160 HD
ENDROOT
BRANCH   9  16
HETATM   16  N3  UNL     1      23.273   4.818  50.769  1.00  0.00    -0.311 N 
HETATM   17  C7  UNL     1      23.609   5.916  51.644  1.00  0.00     0.095 A 
HETATM   18  C8  UNL     1      24.168   7.057  51.207  1.00  0.00    -0.001 A 
HETATM   19  C9  UNL     1      24.495   7.310  49.811  1.00  0.00     0.033 A 
HETATM   20  C12 UNL     1      24.133   6.160  48.965  1.00  0.00     0.007 A 
HETATM   21  C13 UNL     1      23.575   5.011  49.373  1.00  0.00     0.011 A 
HETATM   22  C14 UNL     1      23.238   3.891  48.492  1.00  0.00     0.068 C 
BRANCH  19  23
HETATM   23  C10 UNL     1      23.875   8.590  49.291  1.00  0.00     0.008 C 
HETATM   24  C11 UNL     1      22.383   8.481  49.383  1.00  0.00     0.006 C 
ENDBRANCH  19  23
ENDBRANCH   9  16
BRANCH  13  25
HETATM   25  C18 UNL     1      26.016   1.484  53.750  1.00  0.00    -0.006 C 
HETATM   26  C19 UNL     1      26.957   0.675  54.223  1.00  0.00    -0.033 C 
HETATM   27  C20 UNL     1      27.760  -0.294  53.445  1.00  0.00     0.036 C 
ENDBRANCH  13  25
TORSDOF 3
ENDMDL
MODEL 6
REMARK VINA RESULT:      -7.2      3.449      4.646
REMARK  3 active torsions:
REMARK  status: ('A' for Active; 'I' for Inactive)
REMARK    1  A    between atoms: C6_9  and  N3_10 
REMARK    2  A    between atoms: C9_13  and  C10_14 
REMARK    3  A    between atoms: C17_22  and  C18_23 
ROOT
HETATM    1  C1  UNL     1      21.525   5.784  49.633  1.00  0.00     0.022 C 
HETATM    2  C2  UNL     1      22.241   5.240  48.672  1.00  0.00    -0.031 C 
HETATM    3  C3  UNL     1      22.428   4.424  47.447  1.00  0.00     0.115 C 
HETATM    4  S1  UNL     1      20.847   3.695  46.901  1.00  0.00    -0.143 SA
HETATM    5  C4  UNL     1      20.237   2.565  48.191  1.00  0.00     0.224 C 
HETATM    6  N1  UNL     1      21.233   1.530  48.449  1.00  0.00    -0.273 NA
HETATM    7  C5  UNL     1      22.264   1.807  49.199  1.00  0.00     0.229 C 
HETATM    8  N2  UNL     1      23.249   2.323  50.005  1.00  0.00    -0.224 NA
HETATM    9  C6  UNL     1      23.865   3.389  50.034  1.00  0.00     0.144 C 
HETATM   10  C15 UNL     1      24.328   4.737  49.711  1.00  0.00     0.018 C 
HETATM   11  C16 UNL     1      23.605   5.656  49.070  1.00  0.00     0.045 C 
HETATM   12  N4  UNL     1      24.372   6.836  48.947  1.00  0.00    -0.381 N 
HETATM   13  C17 UNL     1      25.775   6.587  49.296  1.00  0.00     0.109 C 
HETATM   14  C21 UNL     1      25.669   5.304  50.025  1.00  0.00     0.074 C 
HETATM   15  H20 UNL     1      23.811   7.685  48.634  1.00  0.00     0.160 HD
ENDROOT
BRANCH   9  16
HETATM   16  N3  UNL     1      24.575   2.865  51.188  1.00  0.00    -0.311 N 
HETATM   17  C7  UNL     1      25.587   1.872  50.922  1.00  0.00     0.095 A 
HETATM   18  C8  UNL     1      26.304   1.276  51.889  1.00  0.00    -0.001 A 
HETATM   19  C9  UNL     1      26.138   1.566  53.307  1.00  0.00     0.033 A 
HETATM   20  C12 UNL     1      25.096   2.585  53.522  1.00  0.00     0.007 A 
HETATM   21  C13 UNL     1      24.367   3.195  52.576  1.00  0.00     0.011 A 
HETATM   22  C14 UNL     1      23.344   4.208  52.841  1.00  0.00     0.068 C 
BRANCH  19  23
HETATM   23  C10 UNL     1      25.868   0.323  54.128  1.00  0.00     0.008 C 
HETATM   24  C11 UNL     1      24.577  -0.290  53.674  1.00  0.00     0.006 C 
ENDBRANCH  19  23
ENDBRANCH   9  16
BRANCH  13  25
HETATM   25  C18 UNL     1      26.678   6.587  48.147  1.00  0.00    -0.006 C 
HETATM   26  C19 UNL     1      27.709   7.417  48.034  1.00  0.00    -0.033 C 
HETATM   27  C20 UNL     1      28.118   8.453  49.007  1.00  0.00     0.036 C 
ENDBRANCH  13  25
TORSDOF 3
ENDMDL
MODEL 7
REMARK VINA RESULT:      -7.1      3.232      5.797
REMARK  3 active torsions:
REMARK  status: ('A' for Active; 'I' for Inactive)
REMARK    1  A    between atoms: C6_9  and  N3_10 
REMARK    2  A    between atoms: C9_13  and  C10_14 
REMARK    3  A    between atoms: C17_22  and  C18_23 
ROOT
HETATM    1  C1  UNL     1      18.521   1.136  49.491  1.00  0.00     0.022 C 
HETATM    2  C2  UNL     1      18.470   1.809  50.621  1.00  0.00    -0.031 C 
HETATM    3  C3  UNL     1      17.937   2.856  51.527  1.00  0.00     0.115 C 
HETATM    4  S1  UNL     1      16.642   3.839  50.697  1.00  0.00    -0.143 SA
HETATM    5  C4  UNL     1      17.376   4.706  49.275  1.00  0.00     0.224 C 
HETATM    6  N1  UNL     1      18.473   5.556  49.729  1.00  0.00    -0.273 NA
HETATM    7  C5  UNL     1      19.635   5.018  49.983  1.00  0.00     0.229 C 
HETATM    8  N2  UNL     1      20.749   4.242  50.186  1.00  0.00    -0.224 NA
HETATM    9  C6  UNL     1      20.948   3.141  50.702  1.00  0.00     0.144 C 
HETATM   10  C15 UNL     1      20.733   1.861  51.373  1.00  0.00     0.018 C 
HETATM   11  C16 UNL     1      19.585   1.184  51.369  1.00  0.00     0.045 C 
HETATM   12  N4  UNL     1      19.755  -0.008  52.108  1.00  0.00    -0.381 N 
HETATM   13  C17 UNL     1      21.014   0.018  52.861  1.00  0.00     0.109 C 
HETATM   14  C21 UNL     1      21.739   1.110  52.174  1.00  0.00     0.074 C 
HETATM   15  H20 UNL     1      18.960  -0.707  51.990  1.00  0.00     0.160 HD
ENDROOT
BRANCH   9  16
HETATM   16  N3  UNL     1      22.352   3.322  50.378  1.00  0.00    -0.311 N 
HETATM   17  C7  UNL     1      23.115   4.153  51.278  1.00  0.00     0.095 A 
HETATM   18  C8  UNL     1      24.416   4.435  51.091  1.00  0.00    -0.001 A 
HETATM   19  C9  UNL     1      25.194   3.935  49.965  1.00  0.00     0.033 A 
HETATM   20  C12 UNL     1      24.368   3.095  49.082  1.00  0.00     0.007 A 
HETATM   21  C13 UNL     1      23.071   2.797  49.244  1.00  0.00     0.011 A 
HETATM   22  C14 UNL     1      22.293   1.950  48.337  1.00  0.00     0.068 C 
BRANCH  19  23
HETATM   23  C10 UNL     1      25.874   5.044  49.191  1.00  0.00     0.008 C 
HETATM   24  C11 UNL     1      27.272   4.619  48.856  1.00  0.00     0.006 C 
ENDBRANCH  19  23
ENDBRANCH   9  16
BRANCH  13  25
HETATM   25  C18 UNL     1      20.837   0.187  54.301  1.00  0.00    -0.006 C 
HETATM   26  C19 UNL     1      21.618  -0.398  55.203  1.00  0.00    -0.033 C 
HETATM   27  C20 UNL     1      22.765  -1.291  54.928  1.00  0.00     0.036 C 
ENDBRANCH  13  25
TORSDOF 3
ENDMDL
MODEL 8
REMARK VINA RESULT:      -6.8      2.928      5.936
REMARK  3 active torsions:
REMARK  status: ('A' for Active; 'I' for Inactive)
REMARK    1  A    between atoms: C6_9  and  N3_10 
REMARK    2  A    between atoms: C9_13  and  C10_14 
REMARK    3  A    between atoms: C17_22  and  C18_23 
ROOT
HETATM    1  C1  UNL     1      26.440   1.691  50.679  1.00  0.00     0.022 C 
HETATM    2  C2  UNL     1      25.998   2.332  51.739  1.00  0.00    -0.031 C 
HETATM    3  C3  UNL     1      25.771   2.505  53.195  1.00  0.00     0.115 C 
HETATM    4  S1  UNL     1      26.386   1.061  54.127  1.00  0.00    -0.143 SA
HETATM    5  C4  UNL     1      25.444  -0.413  53.626  1.00  0.00     0.224 C 
HETATM    6  N1  UNL     1      24.022  -0.195  53.870  1.00  0.00    -0.273 NA
HETATM    7  C5  UNL     1      23.330   0.518  53.024  1.00  0.00     0.229 C 
HETATM    8  N2  UNL     1      22.814   1.289  52.012  1.00  0.00    -0.224 NA
HETATM    9  C6  UNL     1      23.204   2.291  51.410  1.00  0.00     0.144 C 
HETATM   10  C15 UNL     1      24.018   3.425  50.978  1.00  0.00     0.018 C 
HETATM   11  C16 UNL     1      25.344   3.500  51.106  1.00  0.00     0.045 C 
HETATM   12  N4  UNL     1      25.785   4.730  50.569  1.00  0.00    -0.381 N 
HETATM   13  C17 UNL     1      24.651   5.626  50.313  1.00  0.00     0.109 C 
HETATM   14  C21 UNL     1      23.519   4.675  50.342  1.00  0.00     0.074 C 
HETATM   15  H20 UNL     1      26.840   4.793  50.441  1.00  0.00     0.160 HD
ENDROOT
BRANCH   9  16
HETATM   16  N3  UNL     1      21.973   2.221  50.641  1.00  0.00    -0.311 N 
HETATM   17  C7  UNL     1      22.065   1.608  49.338  1.00  0.00     0.095 A 
HETATM   18  C8  UNL     1      21.019   1.499  48.502  1.00  0.00    -0.001 A 
HETATM   19  C9  UNL     1      19.683   1.985  48.819  1.00  0.00     0.033 A 
HETATM   20  C12 UNL     1      19.646   2.599  50.157  1.00  0.00     0.007 A 
HETATM   21  C13 UNL     1      20.672   2.721  51.011  1.00  0.00     0.011 A 
HETATM   22  C14 UNL     1      20.583   3.336  52.336  1.00  0.00     0.068 C 
BRANCH  19  23
HETATM   23  C10 UNL     1      19.143   2.930  47.766  1.00  0.00     0.008 C 
HETATM   24  C11 UNL     1      20.200   3.938  47.427  1.00  0.00     0.006 C 
ENDBRANCH  19  23
ENDBRANCH   9  16
BRANCH  13  25
HETATM   25  C18 UNL     1      24.560   6.745  51.248  1.00  0.00    -0.006 C 
HETATM   26  C19 UNL     1      24.106   7.944  50.903  1.00  0.00    -0.033 C 
HETATM   27  C20 UNL     1      23.628   8.355  49.564  1.00  0.00     0.036 C 
ENDBRANCH  13  25
TORSDOF 3
ENDMDL
MODEL 9
REMARK VINA RESULT:      -6.6     10.499     12.726
REMARK  3 active torsions:
REMARK  status: ('A' for Active; 'I' for Inactive)
REMARK    1  A    between atoms: C6_9  and  N3_10 
REMARK    2  A    between atoms: C9_13  and  C10_14 
REMARK    3  A    between atoms: C17_22  and  C18_23 
ROOT
HETATM    1  C1  UNL     1      33.163   5.667  48.922  1.00  0.00     0.022 C 
HETATM    2  C2  UNL     1      32.345   5.101  48.061  1.00  0.00    -0.031 C 
HETATM    3  C3  UNL     1      31.971   4.087  47.043  1.00  0.00     0.115 C 
HETATM    4  S1  UNL     1      33.370   2.967  46.695  1.00  0.00    -0.143 SA
HETATM    5  C4  UNL     1      34.742   3.933  45.988  1.00  0.00     0.224 C 
HETATM    6  N1  UNL     1      34.293   4.610  44.775  1.00  0.00    -0.273 NA
HETATM    7  C5  UNL     1      33.592   5.706  44.877  1.00  0.00     0.229 C 
HETATM    8  N2  UNL     1      32.878   6.825  45.225  1.00  0.00    -0.224 NA
HETATM    9  C6  UNL     1      32.020   7.068  46.075  1.00  0.00     0.144 C 
HETATM   10  C15 UNL     1      31.075   6.918  47.179  1.00  0.00     0.018 C 
HETATM   11  C16 UNL     1      31.177   6.007  48.148  1.00  0.00     0.045 C 
HETATM   12  N4  UNL     1      30.095   6.169  49.042  1.00  0.00    -0.381 N 
HETATM   13  C17 UNL     1      29.081   7.068  48.479  1.00  0.00     0.109 C 
HETATM   14  C21 UNL     1      29.848   7.732  47.404  1.00  0.00     0.074 C 
HETATM   15  H20 UNL     1      30.201   5.625  49.952  1.00  0.00     0.160 HD
ENDROOT
BRANCH   9  16
HETATM   16  N3  UNL     1      32.001   8.428  45.565  1.00  0.00    -0.311 N 
HETATM   17  C7  UNL     1      31.295   8.638  44.324  1.00  0.00     0.095 A 
HETATM   18  C8  UNL     1      31.218   9.834  43.717  1.00  0.00    -0.001 A 
HETATM   19  C9  UNL     1      31.835  11.044  44.242  1.00  0.00     0.033 A 
HETATM   20  C12 UNL     1      32.540  10.774  45.506  1.00  0.00     0.007 A 
HETATM   21  C13 UNL     1      32.633   9.593  46.134  1.00  0.00     0.011 A 
HETATM   22  C14 UNL     1      33.343   9.376  47.396  1.00  0.00     0.068 C 
BRANCH  19  23
HETATM   23  C10 UNL     1      32.748  11.714  43.237  1.00  0.00     0.008 C 
HETATM   24  C11 UNL     1      34.061  10.992  43.213  1.00  0.00     0.006 C 
ENDBRANCH  19  23
ENDBRANCH   9  16
BRANCH  13  25
HETATM   25  C18 UNL     1      27.859   6.388  48.055  1.00  0.00    -0.006 C 
HETATM   26  C19 UNL     1      26.667   6.641  48.583  1.00  0.00    -0.033 C 
HETATM   27  C20 UNL     1      26.366   7.616  49.655  1.00  0.00     0.036 C 
ENDBRANCH  13  25
TORSDOF 3
ENDMDL
