MODEL 1
REMARK VINA RESULT:      -9.3      0.000      0.000
REMARK  5 active torsions:
REMARK  status: ('A' for Active; 'I' for Inactive)
REMARK    1  A    between atoms: C2_2  and  C3_3 
REMARK       I    between atoms: C3_3  and  N1_5 
REMARK    2  A    between atoms: C7_9  and  C8_10 
REMARK       I    between atoms: C8_10  and  N2_12 
REMARK    3  A    between atoms: N2_12  and  C9_13 
REMARK    4  A    between atoms: C11_16  and  N3_17 
REMARK    5  A    between atoms: N3_17  and  C12_18 
ROOT
HETATM    1  C9  UNL     1      23.097   3.426  51.897  1.00  0.00     0.078 C 
HETATM    2  C10 UNL     1      24.391   3.367  51.888  1.00  0.00     0.170 C 
HETATM    3  O3  UNL     1      24.956   2.339  52.594  1.00  0.00    -0.316 OA
HETATM    4  C11 UNL     1      24.998   0.993  52.195  1.00  0.00     0.358 C 
HETATM    5  N4  UNL     1      23.570   0.618  52.064  1.00  0.00    -0.234 NA
HETATM    6  C18 UNL     1      22.887   0.817  53.162  1.00  0.00     0.191 C 
HETATM    7  N5  UNL     1      21.524   0.565  53.355  1.00  0.00    -0.400 NA
HETATM    8  C19 UNL     1      20.595   1.399  52.989  1.00  0.00     0.328 C 
HETATM    9  C20 UNL     1      21.058   2.568  52.387  1.00  0.00     0.029 C 
HETATM   10  C21 UNL     1      21.616   3.612  51.846  1.00  0.00     0.061 C 
HETATM   11 CL1  UNL     1      20.540   4.868  51.256  1.00  0.00    -0.082 Cl
ENDROOT
BRANCH   1  12
HETATM   12  N2  UNL     1      23.326   4.627  51.057  1.00  0.00    -0.322 N 
HETATM   13  C8  UNL     1      23.521   4.658  49.632  1.00  0.00     0.245 C 
HETATM   14  O2  UNL     1      23.475   3.531  49.036  1.00  0.00    -0.271 OA
HETATM   15  H11 UNL     1      23.354   5.675  51.350  1.00  0.00     0.169 HD
BRANCH  13  16
HETATM   16  C7  UNL     1      23.768   5.893  48.835  1.00  0.00     0.180 C 
HETATM   17  N1  UNL     1      25.170   6.137  48.574  1.00  0.00    -0.335 N 
HETATM   18  C3  UNL     1      26.457   5.568  48.818  1.00  0.00     0.243 C 
HETATM   19  C4  UNL     1      24.949   7.381  47.800  1.00  0.00     0.127 C 
HETATM   20  O1  UNL     1      27.107   4.649  49.355  1.00  0.00    -0.268 OA
HETATM   21  C5  UNL     1      24.297   8.199  48.937  1.00  0.00     0.022 C 
HETATM   22  C6  UNL     1      23.435   7.140  49.651  1.00  0.00     0.037 C 
BRANCH  18  23
HETATM   23  C2  UNL     1      27.616   6.237  48.256  1.00  0.00     0.064 C 
HETATM   24  C1  UNL     1      28.697   5.495  48.280  1.00  0.00     0.017 C 
ENDBRANCH  18  23
ENDBRANCH  13  16
ENDBRANCH   1  12
BRANCH   4  25
HETATM   25  N3  UNL     1      25.539   0.247  53.308  1.00  0.00    -0.343 N 
HETATM   26  H14 UNL     1      24.980   0.038  54.186  1.00  0.00     0.164 HD
BRANCH  25  27
HETATM   27  C12 UNL     1      26.840  -0.302  53.406  1.00  0.00     0.070 A 
HETATM   28  C13 UNL     1      27.683   0.443  54.217  1.00  0.00     0.035 A 
HETATM   29  C14 UNL     1      28.975   0.103  54.466  1.00  0.00     0.044 A 
HETATM   30  C15 UNL     1      29.539  -1.020  53.921  1.00  0.00     0.119 A 
HETATM   31  F1  UNL     1      30.812  -1.365  54.165  1.00  0.00    -0.206 F 
HETATM   32  C16 UNL     1      28.713  -1.788  53.100  1.00  0.00     0.086 A 
HETATM   33  C17 UNL     1      27.413  -1.407  52.874  1.00  0.00     0.145 A 
HETATM   34  F2  UNL     1      26.546  -2.115  52.075  1.00  0.00    -0.204 F 
ENDBRANCH  25  27
ENDBRANCH   4  25
TORSDOF 5
ENDMDL
MODEL 2
REMARK VINA RESULT:      -9.2      1.422      1.746
REMARK  5 active torsions:
REMARK  status: ('A' for Active; 'I' for Inactive)
REMARK    1  A    between atoms: C2_2  and  C3_3 
REMARK       I    between atoms: C3_3  and  N1_5 
REMARK    2  A    between atoms: C7_9  and  C8_10 
REMARK       I    between atoms: C8_10  and  N2_12 
REMARK    3  A    between atoms: N2_12  and  C9_13 
REMARK    4  A    between atoms: C11_16  and  N3_17 
REMARK    5  A    between atoms: N3_17  and  C12_18 
ROOT
HETATM    1  C9  UNL     1      22.440   2.378  52.167  1.00  0.00     0.078 C 
HETATM    2  C10 UNL     1      23.715   2.295  51.955  1.00  0.00     0.170 C 
HETATM    3  O3  UNL     1      24.393   1.366  52.700  1.00  0.00    -0.316 OA
HETATM    4  C11 UNL     1      24.376  -0.023  52.496  1.00  0.00     0.358 C 
HETATM    5  N4  UNL     1      22.947  -0.387  52.655  1.00  0.00    -0.234 NA
HETATM    6  C18 UNL     1      22.454  -0.021  53.810  1.00  0.00     0.191 C 
HETATM    7  N5  UNL     1      21.141  -0.217  54.256  1.00  0.00    -0.400 NA
HETATM    8  C19 UNL     1      20.161   0.574  53.931  1.00  0.00     0.328 C 
HETATM    9  C20 UNL     1      20.513   1.636  53.101  1.00  0.00     0.029 C 
HETATM   10  C21 UNL     1      20.970   2.582  52.332  1.00  0.00     0.061 C 
HETATM   11 CL1  UNL     1      19.805   3.761  51.751  1.00  0.00    -0.082 Cl
ENDROOT
BRANCH   1  12
HETATM   12  N2  UNL     1      22.522   3.443  51.137  1.00  0.00    -0.322 N 
HETATM   13  C8  UNL     1      22.957   4.799  51.333  1.00  0.00     0.245 C 
HETATM   14  O2  UNL     1      23.323   5.104  52.517  1.00  0.00    -0.271 OA
HETATM   15  H11 UNL     1      22.307   3.386  50.071  1.00  0.00     0.169 HD
BRANCH  13  16
HETATM   16  C7  UNL     1      23.003   5.839  50.266  1.00  0.00     0.180 C 
HETATM   17  N1  UNL     1      24.282   5.914  49.593  1.00  0.00    -0.335 N 
HETATM   18  C3  UNL     1      25.571   5.297  49.591  1.00  0.00     0.243 C 
HETATM   19  C4  UNL     1      23.886   7.005  48.672  1.00  0.00     0.127 C 
HETATM   20  O1  UNL     1      26.320   4.444  50.108  1.00  0.00    -0.268 OA
HETATM   21  C5  UNL     1      23.602   8.072  49.752  1.00  0.00     0.022 C 
HETATM   22  C6  UNL     1      22.946   7.240  50.871  1.00  0.00     0.037 C 
BRANCH  18  23
HETATM   23  C2  UNL     1      26.543   5.751  48.615  1.00  0.00     0.064 C 
HETATM   24  C1  UNL     1      27.635   5.025  48.604  1.00  0.00     0.017 C 
ENDBRANCH  18  23
ENDBRANCH  13  16
ENDBRANCH   1  12
BRANCH   4  25
HETATM   25  N3  UNL     1      25.097  -0.614  53.601  1.00  0.00    -0.343 N 
HETATM   26  H14 UNL     1      24.614  -1.150  54.380  1.00  0.00     0.164 HD
BRANCH  25  27
HETATM   27  C12 UNL     1      26.494  -0.575  53.816  1.00  0.00     0.070 A 
HETATM   28  C13 UNL     1      27.196  -1.425  52.974  1.00  0.00     0.035 A 
HETATM   29  C14 UNL     1      28.549  -1.549  52.993  1.00  0.00     0.044 A 
HETATM   30  C15 UNL     1      29.323  -0.826  53.862  1.00  0.00     0.119 A 
HETATM   31  F1  UNL     1      30.660  -0.938  53.884  1.00  0.00    -0.206 F 
HETATM   32  C16 UNL     1      28.643   0.038  54.721  1.00  0.00     0.086 A 
HETATM   33  C17 UNL     1      27.274   0.131  54.668  1.00  0.00     0.145 A 
HETATM   34  F2  UNL     1      26.541   0.958  55.486  1.00  0.00    -0.204 F 
ENDBRANCH  25  27
ENDBRANCH   4  25
TORSDOF 5
ENDMDL
MODEL 3
REMARK VINA RESULT:      -9.1      4.075      7.123
REMARK  5 active torsions:
REMARK  status: ('A' for Active; 'I' for Inactive)
REMARK    1  A    between atoms: C2_2  and  C3_3 
REMARK       I    between atoms: C3_3  and  N1_5 
REMARK    2  A    between atoms: C7_9  and  C8_10 
REMARK       I    between atoms: C8_10  and  N2_12 
REMARK    3  A    between atoms: N2_12  and  C9_13 
REMARK    4  A    between atoms: C11_16  and  N3_17 
REMARK    5  A    between atoms: N3_17  and  C12_18 
ROOT
HETATM    1  C9  UNL     1      23.662   0.293  52.867  1.00  0.00     0.078 C 
HETATM    2  C10 UNL     1      22.596   0.533  52.170  1.00  0.00     0.170 C 
HETATM    3  O3  UNL     1      21.468  -0.153  52.533  1.00  0.00    -0.316 OA
HETATM    4  C11 UNL     1      20.667   0.117  53.655  1.00  0.00     0.358 C 
HETATM    5  N4  UNL     1      21.594  -0.053  54.800  1.00  0.00    -0.234 NA
HETATM    6  C18 UNL     1      22.156  -1.234  54.830  1.00  0.00     0.191 C 
HETATM    7  N5  UNL     1      23.075  -1.697  55.779  1.00  0.00    -0.400 NA
HETATM    8  C19 UNL     1      24.347  -1.430  55.717  1.00  0.00     0.328 C 
HETATM    9  C20 UNL     1      24.731  -0.644  54.632  1.00  0.00     0.029 C 
HETATM   10  C21 UNL     1      24.958   0.088  53.580  1.00  0.00     0.061 C 
HETATM   11 CL1  UNL     1      26.619   0.589  53.309  1.00  0.00    -0.082 Cl
ENDROOT
BRANCH   1  12
HETATM   12  N2  UNL     1      24.273   1.272  51.935  1.00  0.00    -0.322 N 
HETATM   13  C8  UNL     1      24.383   2.693  52.128  1.00  0.00     0.245 C 
HETATM   14  O2  UNL     1      23.918   3.146  53.225  1.00  0.00    -0.271 OA
HETATM   15  H11 UNL     1      24.765   1.096  50.979  1.00  0.00     0.169 HD
BRANCH  13  16
HETATM   16  C7  UNL     1      24.991   3.639  51.149  1.00  0.00     0.180 C 
HETATM   17  N1  UNL     1      24.225   3.771  49.928  1.00  0.00    -0.335 N 
HETATM   18  C3  UNL     1      23.025   3.294  49.316  1.00  0.00     0.243 C 
HETATM   19  C4  UNL     1      25.143   4.750  49.299  1.00  0.00     0.127 C 
HETATM   20  O1  UNL     1      22.030   2.550  49.412  1.00  0.00    -0.268 OA
HETATM   21  C5  UNL     1      26.388   3.837  49.247  1.00  0.00     0.022 C 
HETATM   22  C6  UNL     1      26.290   3.071  50.581  1.00  0.00     0.037 C 
BRANCH  18  23
HETATM   23  C2  UNL     1      22.674   3.815  48.008  1.00  0.00     0.064 C 
HETATM   24  C1  UNL     1      22.225   2.892  47.193  1.00  0.00     0.017 C 
ENDBRANCH  18  23
ENDBRANCH  13  16
ENDBRANCH   1  12
BRANCH   4  25
HETATM   25  N3  UNL     1      19.689  -0.944  53.731  1.00  0.00    -0.343 N 
HETATM   26  H14 UNL     1      19.823  -1.807  54.335  1.00  0.00     0.164 HD
BRANCH  25  27
HETATM   27  C12 UNL     1      18.452  -1.005  53.046  1.00  0.00     0.070 A 
HETATM   28  C13 UNL     1      18.315  -0.014  52.085  1.00  0.00     0.035 A 
HETATM   29  C14 UNL     1      17.216   0.118  51.298  1.00  0.00     0.044 A 
HETATM   30  C15 UNL     1      16.150  -0.737  51.404  1.00  0.00     0.119 A 
HETATM   31  F1  UNL     1      15.063  -0.616  50.627  1.00  0.00    -0.206 F 
HETATM   32  C16 UNL     1      16.261  -1.743  52.364  1.00  0.00     0.086 A 
HETATM   33  C17 UNL     1      17.390  -1.840  53.139  1.00  0.00     0.145 A 
HETATM   34  F2  UNL     1      17.564  -2.804  54.104  1.00  0.00    -0.204 F 
ENDBRANCH  25  27
ENDBRANCH   4  25
TORSDOF 5
ENDMDL
MODEL 4
REMARK VINA RESULT:      -9.0      3.240      7.331
REMARK  5 active torsions:
REMARK  status: ('A' for Active; 'I' for Inactive)
REMARK    1  A    between atoms: C2_2  and  C3_3 
REMARK       I    between atoms: C3_3  and  N1_5 
REMARK    2  A    between atoms: C7_9  and  C8_10 
REMARK       I    between atoms: C8_10  and  N2_12 
REMARK    3  A    between atoms: N2_12  and  C9_13 
REMARK    4  A    between atoms: C11_16  and  N3_17 
REMARK    5  A    between atoms: N3_17  and  C12_18 
ROOT
HETATM    1  C9  UNL     1      24.528   3.176  50.169  1.00  0.00     0.078 C 
HETATM    2  C10 UNL     1      25.732   3.585  50.419  1.00  0.00     0.170 C 
HETATM    3  O3  UNL     1      26.178   4.644  49.674  1.00  0.00    -0.316 OA
HETATM    4  C11 UNL     1      25.800   5.986  49.842  1.00  0.00     0.358 C 
HETATM    5  N4  UNL     1      24.333   5.970  49.628  1.00  0.00    -0.234 NA
HETATM    6  C18 UNL     1      23.992   5.471  48.468  1.00  0.00     0.191 C 
HETATM    7  N5  UNL     1      22.691   5.319  47.974  1.00  0.00    -0.400 NA
HETATM    8  C19 UNL     1      21.933   4.308  48.288  1.00  0.00     0.328 C 
HETATM    9  C20 UNL     1      22.513   3.385  49.155  1.00  0.00     0.029 C 
HETATM   10  C21 UNL     1      23.166   2.600  49.962  1.00  0.00     0.061 C 
HETATM   11 CL1  UNL     1      22.320   1.172  50.534  1.00  0.00    -0.082 Cl
ENDROOT
BRANCH   1  12
HETATM   12  N2  UNL     1      24.841   2.184  51.227  1.00  0.00    -0.322 N 
HETATM   13  C8  UNL     1      24.709   2.368  52.648  1.00  0.00     0.245 C 
HETATM   14  O2  UNL     1      24.261   3.501  53.026  1.00  0.00    -0.271 OA
HETATM   15  H11 UNL     1      25.184   1.155  51.125  1.00  0.00     0.169 HD
BRANCH  13  16
HETATM   16  C7  UNL     1      25.055   1.343  53.673  1.00  0.00     0.180 C 
HETATM   17  N1  UNL     1      26.479   1.219  53.902  1.00  0.00    -0.335 N 
HETATM   18  C3  UNL     1      27.722   1.775  53.471  1.00  0.00     0.243 C 
HETATM   19  C4  UNL     1      26.358   0.161  54.933  1.00  0.00     0.127 C 
HETATM   20  O1  UNL     1      28.298   2.584  52.716  1.00  0.00    -0.268 OA
HETATM   21  C5  UNL     1      25.699  -0.907  54.033  1.00  0.00     0.022 C 
HETATM   22  C6  UNL     1      24.750  -0.062  53.160  1.00  0.00     0.037 C 
BRANCH  18  23
HETATM   23  C2  UNL     1      28.939   1.290  54.096  1.00  0.00     0.064 C 
HETATM   24  C1  UNL     1      29.480   0.286  53.450  1.00  0.00     0.017 C 
ENDBRANCH  18  23
ENDBRANCH  13  16
ENDBRANCH   1  12
BRANCH   4  25
HETATM   25  N3  UNL     1      26.387   6.723  48.746  1.00  0.00    -0.343 N 
HETATM   26  H14 UNL     1      25.832   7.021  47.892  1.00  0.00     0.164 HD
BRANCH  25  27
HETATM   27  C12 UNL     1      27.732   7.148  48.637  1.00  0.00     0.070 A 
HETATM   28  C13 UNL     1      27.917   8.468  49.020  1.00  0.00     0.035 A 
HETATM   29  C14 UNL     1      29.125   9.089  49.008  1.00  0.00     0.044 A 
HETATM   30  C15 UNL     1      30.263   8.437  48.609  1.00  0.00     0.119 A 
HETATM   31  F1  UNL     1      31.460   9.042  48.599  1.00  0.00    -0.206 F 
HETATM   32  C16 UNL     1      30.106   7.107  48.219  1.00  0.00     0.086 A 
HETATM   33  C17 UNL     1      28.866   6.519  48.246  1.00  0.00     0.145 A 
HETATM   34  F2  UNL     1      28.639   5.215  47.872  1.00  0.00    -0.204 F 
ENDBRANCH  25  27
ENDBRANCH   4  25
TORSDOF 5
ENDMDL
MODEL 5
REMARK VINA RESULT:      -8.5      2.992      6.553
REMARK  5 active torsions:
REMARK  status: ('A' for Active; 'I' for Inactive)
REMARK    1  A    between atoms: C2_2  and  C3_3 
REMARK       I    between atoms: C3_3  and  N1_5 
REMARK    2  A    between atoms: C7_9  and  C8_10 
REMARK       I    between atoms: C8_10  and  N2_12 
REMARK    3  A    between atoms: N2_12  and  C9_13 
REMARK    4  A    between atoms: C11_16  and  N3_17 
REMARK    5  A    between atoms: N3_17  and  C12_18 
ROOT
HETATM    1  C9  UNL     1      22.194   2.522  50.825  1.00  0.00     0.078 C 
HETATM    2  C10 UNL     1      22.852   1.470  51.198  1.00  0.00     0.170 C 
HETATM    3  O3  UNL     1      24.183   1.653  51.466  1.00  0.00    -0.316 OA
HETATM    4  C11 UNL     1      24.715   2.264  52.614  1.00  0.00     0.358 C 
HETATM    5  N4  UNL     1      24.148   3.633  52.580  1.00  0.00    -0.234 NA
HETATM    6  C18 UNL     1      24.423   4.272  51.472  1.00  0.00     0.191 C 
HETATM    7  N5  UNL     1      24.031   5.574  51.139  1.00  0.00    -0.400 NA
HETATM    8  C19 UNL     1      22.858   5.852  50.649  1.00  0.00     0.328 C 
HETATM    9  C20 UNL     1      22.016   4.754  50.479  1.00  0.00     0.029 C 
HETATM   10  C21 UNL     1      21.332   3.652  50.367  1.00  0.00     0.061 C 
HETATM   11 CL1  UNL     1      19.698   3.796  49.741  1.00  0.00    -0.082 Cl
ENDROOT
BRANCH   1  12
HETATM   12  N2  UNL     1      21.063   1.565  50.751  1.00  0.00    -0.322 N 
HETATM   13  C8  UNL     1      20.181   1.188  51.823  1.00  0.00     0.245 C 
HETATM   14  O2  UNL     1      20.393   1.752  52.947  1.00  0.00    -0.271 OA
HETATM   15  H11 UNL     1      20.683   1.015  49.890  1.00  0.00     0.169 HD
BRANCH  13  16
HETATM   16  C7  UNL     1      19.068   0.204  51.701  1.00  0.00     0.180 C 
HETATM   17  N1  UNL     1      17.757   0.817  51.708  1.00  0.00    -0.335 N 
HETATM   18  C3  UNL     1      17.135   2.101  51.783  1.00  0.00     0.243 C 
HETATM   19  C4  UNL     1      17.012  -0.456  51.567  1.00  0.00     0.127 C 
HETATM   20  O1  UNL     1      17.295   3.332  51.901  1.00  0.00    -0.268 OA
HETATM   21  C5  UNL     1      17.489  -1.102  52.887  1.00  0.00     0.022 C 
HETATM   22  C6  UNL     1      18.961  -0.653  52.960  1.00  0.00     0.037 C 
BRANCH  18  23
HETATM   23  C2  UNL     1      15.688   2.164  51.696  1.00  0.00     0.064 C 
HETATM   24  C1  UNL     1      15.266   2.678  50.566  1.00  0.00     0.017 C 
ENDBRANCH  18  23
ENDBRANCH  13  16
ENDBRANCH   1  12
BRANCH   4  25
HETATM   25  N3  UNL     1      26.139   2.381  52.399  1.00  0.00    -0.343 N 
HETATM   26  H14 UNL     1      26.578   3.207  51.898  1.00  0.00     0.164 HD
BRANCH  25  27
HETATM   27  C12 UNL     1      27.133   1.458  52.802  1.00  0.00     0.070 A 
HETATM   28  C13 UNL     1      26.785   0.140  52.550  1.00  0.00     0.035 A 
HETATM   29  C14 UNL     1      27.588  -0.916  52.843  1.00  0.00     0.044 A 
HETATM   30  C15 UNL     1      28.819  -0.743  53.419  1.00  0.00     0.119 A 
HETATM   31  F1  UNL     1      29.620  -1.780  53.708  1.00  0.00    -0.206 F 
HETATM   32  C16 UNL     1      29.196   0.574  53.683  1.00  0.00     0.086 A 
HETATM   33  C17 UNL     1      28.353   1.612  53.371  1.00  0.00     0.145 A 
HETATM   34  F2  UNL     1      28.659   2.932  53.607  1.00  0.00    -0.204 F 
ENDBRANCH  25  27
ENDBRANCH   4  25
TORSDOF 5
ENDMDL
MODEL 6
REMARK VINA RESULT:      -8.5      3.818      7.696
REMARK  5 active torsions:
REMARK  status: ('A' for Active; 'I' for Inactive)
REMARK    1  A    between atoms: C2_2  and  C3_3 
REMARK       I    between atoms: C3_3  and  N1_5 
REMARK    2  A    between atoms: C7_9  and  C8_10 
REMARK       I    between atoms: C8_10  and  N2_12 
REMARK    3  A    between atoms: N2_12  and  C9_13 
REMARK    4  A    between atoms: C11_16  and  N3_17 
REMARK    5  A    between atoms: N3_17  and  C12_18 
ROOT
HETATM    1  C9  UNL     1      26.542   5.783  49.049  1.00  0.00     0.078 C 
HETATM    2  C10 UNL     1      27.397   4.828  49.239  1.00  0.00     0.170 C 
HETATM    3  O3  UNL     1      28.497   4.829  48.422  1.00  0.00    -0.316 OA
HETATM    4  C11 UNL     1      29.598   5.693  48.527  1.00  0.00     0.358 C 
HETATM    5  N4  UNL     1      29.007   7.042  48.360  1.00  0.00    -0.234 NA
HETATM    6  C18 UNL     1      28.344   7.173  47.240  1.00  0.00     0.191 C 
HETATM    7  N5  UNL     1      27.673   8.319  46.795  1.00  0.00    -0.400 NA
HETATM    8  C19 UNL     1      26.471   8.627  47.188  1.00  0.00     0.328 C 
HETATM    9  C20 UNL     1      25.897   7.731  48.088  1.00  0.00     0.029 C 
HETATM   10  C21 UNL     1      25.476   6.820  48.916  1.00  0.00     0.061 C 
HETATM   11 CL1  UNL     1      23.872   7.048  49.593  1.00  0.00    -0.082 Cl
ENDROOT
BRANCH   1  12
HETATM   12  N2  UNL     1      25.815   5.106  50.151  1.00  0.00    -0.322 N 
HETATM   13  C8  UNL     1      24.953   3.961  50.038  1.00  0.00     0.245 C 
HETATM   14  O2  UNL     1      24.817   3.475  48.867  1.00  0.00    -0.271 OA
HETATM   15  H11 UNL     1      25.827   5.324  51.218  1.00  0.00     0.169 HD
BRANCH  13  16
HETATM   16  C7  UNL     1      24.228   3.328  51.177  1.00  0.00     0.180 C 
HETATM   17  N1  UNL     1      25.102   2.629  52.096  1.00  0.00    -0.335 N 
HETATM   18  C3  UNL     1      26.484   2.334  52.301  1.00  0.00     0.243 C 
HETATM   19  C4  UNL     1      24.018   2.194  53.008  1.00  0.00     0.127 C 
HETATM   20  O1  UNL     1      27.650   2.448  51.874  1.00  0.00    -0.268 OA
HETATM   21  C5  UNL     1      23.244   1.332  51.987  1.00  0.00     0.022 C 
HETATM   22  C6  UNL     1      23.372   2.160  50.693  1.00  0.00     0.037 C 
BRANCH  18  23
HETATM   23  C2  UNL     1      26.852   1.581  53.486  1.00  0.00     0.064 C 
HETATM   24  C1  UNL     1      27.657   0.580  53.227  1.00  0.00     0.017 C 
ENDBRANCH  18  23
ENDBRANCH  13  16
ENDBRANCH   1  12
BRANCH   4  25
HETATM   25  N3  UNL     1      30.433   5.442  47.374  1.00  0.00    -0.343 N 
HETATM   26  H14 UNL     1      30.094   5.582  46.378  1.00  0.00     0.164 HD
BRANCH  25  27
HETATM   27  C12 UNL     1      31.774   4.991  47.384  1.00  0.00     0.070 A 
HETATM   28  C13 UNL     1      31.920   3.712  46.869  1.00  0.00     0.035 A 
HETATM   29  C14 UNL     1      33.117   3.077  46.769  1.00  0.00     0.044 A 
HETATM   30  C15 UNL     1      34.281   3.672  47.178  1.00  0.00     0.119 A 
HETATM   31  F1  UNL     1      35.468   3.053  47.079  1.00  0.00    -0.206 F 
HETATM   32  C16 UNL     1      34.164   4.960  47.700  1.00  0.00     0.086 A 
HETATM   33  C17 UNL     1      32.934   5.565  47.783  1.00  0.00     0.145 A 
HETATM   34  F2  UNL     1      32.746   6.830  48.289  1.00  0.00    -0.204 F 
ENDBRANCH  25  27
ENDBRANCH   4  25
TORSDOF 5
ENDMDL
MODEL 7
REMARK VINA RESULT:      -8.4      3.151      7.208
REMARK  5 active torsions:
REMARK  status: ('A' for Active; 'I' for Inactive)
REMARK    1  A    between atoms: C2_2  and  C3_3 
REMARK       I    between atoms: C3_3  and  N1_5 
REMARK    2  A    between atoms: C7_9  and  C8_10 
REMARK       I    between atoms: C8_10  and  N2_12 
REMARK    3  A    between atoms: N2_12  and  C9_13 
REMARK    4  A    between atoms: C11_16  and  N3_17 
REMARK    5  A    between atoms: N3_17  and  C12_18 
ROOT
HETATM    1  C9  UNL     1      23.412   3.754  49.907  1.00  0.00     0.078 C 
HETATM    2  C10 UNL     1      24.683   3.510  49.960  1.00  0.00     0.170 C 
HETATM    3  O3  UNL     1      25.490   4.338  49.226  1.00  0.00    -0.316 OA
HETATM    4  C11 UNL     1      25.836   5.657  49.560  1.00  0.00     0.358 C 
HETATM    5  N4  UNL     1      24.533   6.361  49.620  1.00  0.00    -0.234 NA
HETATM    6  C18 UNL     1      23.850   6.265  48.509  1.00  0.00     0.191 C 
HETATM    7  N5  UNL     1      22.588   6.816  48.254  1.00  0.00    -0.400 NA
HETATM    8  C19 UNL     1      21.481   6.242  48.626  1.00  0.00     0.328 C 
HETATM    9  C20 UNL     1      21.643   5.034  49.301  1.00  0.00     0.029 C 
HETATM   10  C21 UNL     1      21.928   3.921  49.913  1.00  0.00     0.061 C 
HETATM   11 CL1  UNL     1      20.574   2.985  50.524  1.00  0.00    -0.082 Cl
ENDROOT
BRANCH   1  12
HETATM   12  N2  UNL     1      23.333   2.581  50.813  1.00  0.00    -0.322 N 
HETATM   13  C8  UNL     1      23.533   2.578  52.237  1.00  0.00     0.245 C 
HETATM   14  O2  UNL     1      23.791   3.708  52.769  1.00  0.00    -0.271 OA
HETATM   15  H11 UNL     1      23.083   1.548  50.578  1.00  0.00     0.169 HD
BRANCH  13  16
HETATM   16  C7  UNL     1      23.461   1.365  53.102  1.00  0.00     0.180 C 
HETATM   17  N1  UNL     1      24.610   0.495  52.967  1.00  0.00    -0.335 N 
HETATM   18  C3  UNL     1      25.852   0.401  52.267  1.00  0.00     0.243 C 
HETATM   19  C4  UNL     1      24.137  -0.507  53.951  1.00  0.00     0.127 C 
HETATM   20  O1  UNL     1      26.618   0.915  51.428  1.00  0.00    -0.268 OA
HETATM   21  C5  UNL     1      22.854  -0.922  53.197  1.00  0.00     0.022 C 
HETATM   22  C6  UNL     1      22.362   0.421  52.621  1.00  0.00     0.037 C 
BRANCH  18  23
HETATM   23  C2  UNL     1      26.711  -0.733  52.551  1.00  0.00     0.064 C 
HETATM   24  C1  UNL     1      27.798  -0.401  53.205  1.00  0.00     0.017 C 
ENDBRANCH  18  23
ENDBRANCH  13  16
ENDBRANCH   1  12
BRANCH   4  25
HETATM   25  N3  UNL     1      26.564   6.193  48.433  1.00  0.00    -0.343 N 
HETATM   26  H14 UNL     1      26.112   6.370  47.489  1.00  0.00     0.164 HD
BRANCH  25  27
HETATM   27  C12 UNL     1      27.933   6.552  48.403  1.00  0.00     0.070 A 
HETATM   28  C13 UNL     1      28.774   5.468  48.201  1.00  0.00     0.035 A 
HETATM   29  C14 UNL     1      30.126   5.573  48.127  1.00  0.00     0.044 A 
HETATM   30  C15 UNL     1      30.759   6.782  48.248  1.00  0.00     0.119 A 
HETATM   31  F1  UNL     1      32.094   6.896  48.171  1.00  0.00    -0.206 F 
HETATM   32  C16 UNL     1      29.937   7.891  48.452  1.00  0.00     0.086 A 
HETATM   33  C17 UNL     1      28.574   7.739  48.521  1.00  0.00     0.145 A 
HETATM   34  F2  UNL     1      27.706   8.786  48.723  1.00  0.00    -0.204 F 
ENDBRANCH  25  27
ENDBRANCH   4  25
TORSDOF 5
ENDMDL
MODEL 8
REMARK VINA RESULT:      -8.3      2.721      4.783
REMARK  5 active torsions:
REMARK  status: ('A' for Active; 'I' for Inactive)
REMARK    1  A    between atoms: C2_2  and  C3_3 
REMARK       I    between atoms: C3_3  and  N1_5 
REMARK    2  A    between atoms: C7_9  and  C8_10 
REMARK       I    between atoms: C8_10  and  N2_12 
REMARK    3  A    between atoms: N2_12  and  C9_13 
REMARK    4  A    between atoms: C11_16  and  N3_17 
REMARK    5  A    between atoms: N3_17  and  C12_18 
ROOT
HETATM    1  C9  UNL     1      25.219   6.205  48.751  1.00  0.00     0.078 C 
HETATM    2  C10 UNL     1      26.045   5.547  49.501  1.00  0.00     0.170 C 
HETATM    3  O3  UNL     1      25.491   4.618  50.341  1.00  0.00    -0.316 OA
HETATM    4  C11 UNL     1      24.996   3.359  49.964  1.00  0.00     0.358 C 
HETATM    5  N4  UNL     1      23.918   3.678  48.997  1.00  0.00    -0.234 NA
HETATM    6  C18 UNL     1      23.006   4.473  49.494  1.00  0.00     0.191 C 
HETATM    7  N5  UNL     1      21.869   4.956  48.834  1.00  0.00    -0.400 NA
HETATM    8  C19 UNL     1      21.901   5.988  48.042  1.00  0.00     0.328 C 
HETATM    9  C20 UNL     1      23.154   6.581  47.898  1.00  0.00     0.029 C 
HETATM   10  C21 UNL     1      24.370   7.042  47.851  1.00  0.00     0.061 C 
HETATM   11 CL1  UNL     1      24.650   8.433  46.817  1.00  0.00    -0.082 Cl
ENDROOT
BRANCH   1  12
HETATM   12  N2  UNL     1      26.459   6.868  48.278  1.00  0.00    -0.322 N 
HETATM   13  C8  UNL     1      27.180   7.921  48.942  1.00  0.00     0.245 C 
HETATM   14  O2  UNL     1      26.703   8.308  50.060  1.00  0.00    -0.271 OA
HETATM   15  H11 UNL     1      27.052   6.663  47.388  1.00  0.00     0.169 HD
BRANCH  13  16
HETATM   16  C7  UNL     1      28.414   8.569  48.414  1.00  0.00     0.180 C 
HETATM   17  N1  UNL     1      29.464   7.626  48.093  1.00  0.00    -0.335 N 
HETATM   18  C3  UNL     1      29.731   6.222  48.096  1.00  0.00     0.243 C 
HETATM   19  C4  UNL     1      30.429   8.651  47.629  1.00  0.00     0.127 C 
HETATM   20  O1  UNL     1      29.307   5.080  48.362  1.00  0.00    -0.268 OA
HETATM   21  C5  UNL     1      30.558   9.410  48.968  1.00  0.00     0.022 C 
HETATM   22  C6  UNL     1      29.114   9.374  49.507  1.00  0.00     0.037 C 
BRANCH  18  23
HETATM   23  C2  UNL     1      31.017   5.772  47.596  1.00  0.00     0.064 C 
HETATM   24  C1  UNL     1      31.837   5.406  48.551  1.00  0.00     0.017 C 
ENDBRANCH  18  23
ENDBRANCH  13  16
ENDBRANCH   1  12
BRANCH   4  25
HETATM   25  N3  UNL     1      24.369   2.792  51.136  1.00  0.00    -0.343 N 
HETATM   26  H14 UNL     1      23.525   3.233  51.607  1.00  0.00     0.164 HD
BRANCH  25  27
HETATM   27  C12 UNL     1      24.757   1.614  51.816  1.00  0.00     0.070 A 
HETATM   28  C13 UNL     1      26.060   1.230  51.536  1.00  0.00     0.035 A 
HETATM   29  C14 UNL     1      26.652   0.135  52.082  1.00  0.00     0.044 A 
HETATM   30  C15 UNL     1      25.986  -0.676  52.962  1.00  0.00     0.119 A 
HETATM   31  F1  UNL     1      26.564  -1.756  53.509  1.00  0.00    -0.206 F 
HETATM   32  C16 UNL     1      24.673  -0.313  53.262  1.00  0.00     0.086 A 
HETATM   33  C17 UNL     1      24.113   0.801  52.687  1.00  0.00     0.145 A 
HETATM   34  F2  UNL     1      22.825   1.214  52.936  1.00  0.00    -0.204 F 
ENDBRANCH  25  27
ENDBRANCH   4  25
TORSDOF 5
ENDMDL
MODEL 9
REMARK VINA RESULT:      -8.2      3.641      7.986
REMARK  5 active torsions:
REMARK  status: ('A' for Active; 'I' for Inactive)
REMARK    1  A    between atoms: C2_2  and  C3_3 
REMARK       I    between atoms: C3_3  and  N1_5 
REMARK    2  A    between atoms: C7_9  and  C8_10 
REMARK       I    between atoms: C8_10  and  N2_12 
REMARK    3  A    between atoms: N2_12  and  C9_13 
REMARK    4  A    between atoms: C11_16  and  N3_17 
REMARK    5  A    between atoms: N3_17  and  C12_18 
ROOT
HETATM    1  C9  UNL     1      24.077   4.066  50.055  1.00  0.00     0.078 C 
HETATM    2  C10 UNL     1      25.220   4.579  50.383  1.00  0.00     0.170 C 
HETATM    3  O3  UNL     1      25.407   5.897  50.061  1.00  0.00    -0.316 OA
HETATM    4  C11 UNL     1      24.842   6.995  50.730  1.00  0.00     0.358 C 
HETATM    5  N4  UNL     1      23.381   6.779  50.594  1.00  0.00    -0.234 NA
HETATM    6  C18 UNL     1      22.996   6.670  49.349  1.00  0.00     0.191 C 
HETATM    7  N5  UNL     1      21.688   6.461  48.894  1.00  0.00    -0.400 NA
HETATM    8  C19 UNL     1      21.140   5.281  48.847  1.00  0.00     0.328 C 
HETATM    9  C20 UNL     1      21.953   4.237  49.284  1.00  0.00     0.029 C 
HETATM   10  C21 UNL     1      22.809   3.355  49.713  1.00  0.00     0.061 C 
HETATM   11 CL1  UNL     1      22.269   1.685  49.756  1.00  0.00    -0.082 Cl
ENDROOT
BRANCH   1  12
HETATM   12  N2  UNL     1      24.659   2.841  50.656  1.00  0.00    -0.322 N 
HETATM   13  C8  UNL     1      24.749   2.527  52.057  1.00  0.00     0.245 C 
HETATM   14  O2  UNL     1      24.260   3.392  52.857  1.00  0.00    -0.271 OA
HETATM   15  H11 UNL     1      25.081   1.967  50.162  1.00  0.00     0.169 HD
BRANCH  13  16
HETATM   16  C7  UNL     1      25.363   1.287  52.612  1.00  0.00     0.180 C 
HETATM   17  N1  UNL     1      24.388   0.324  53.079  1.00  0.00    -0.335 N 
HETATM   18  C3  UNL     1      22.975   0.140  53.183  1.00  0.00     0.243 C 
HETATM   19  C4  UNL     1      25.388  -0.681  53.509  1.00  0.00     0.127 C 
HETATM   20  O1  UNL     1      21.843   0.627  52.995  1.00  0.00    -0.268 OA
HETATM   21  C5  UNL     1      26.081   0.187  54.582  1.00  0.00     0.022 C 
HETATM   22  C6  UNL     1      26.087   1.581  53.924  1.00  0.00     0.037 C 
BRANCH  18  23
HETATM   23  C2  UNL     1      22.490  -1.115  53.725  1.00  0.00     0.064 C 
HETATM   24  C1  UNL     1      21.918  -0.979  54.897  1.00  0.00     0.017 C 
ENDBRANCH  18  23
ENDBRANCH  13  16
ENDBRANCH   1  12
BRANCH   4  25
HETATM   25  N3  UNL     1      25.178   8.170  49.959  1.00  0.00    -0.343 N 
HETATM   26  H14 UNL     1      24.510   8.986  49.835  1.00  0.00     0.164 HD
BRANCH  25  27
HETATM   27  C12 UNL     1      26.392   8.413  49.275  1.00  0.00     0.070 A 
HETATM   28  C13 UNL     1      27.334   9.065  50.057  1.00  0.00     0.035 A 
HETATM   29  C14 UNL     1      28.576   9.394  49.615  1.00  0.00     0.044 A 
HETATM   30  C15 UNL     1      28.987   9.097  48.343  1.00  0.00     0.119 A 
HETATM   31  F1  UNL     1      30.213   9.414  47.900  1.00  0.00    -0.206 F 
HETATM   32  C16 UNL     1      28.059   8.441  47.533  1.00  0.00     0.086 A 
HETATM   33  C17 UNL     1      26.814   8.128  48.020  1.00  0.00     0.145 A 
HETATM   34  F2  UNL     1      25.851   7.485  47.277  1.00  0.00    -0.204 F 
ENDBRANCH  25  27
ENDBRANCH   4  25
TORSDOF 5
ENDMDL
