MODEL 1
REMARK VINA RESULT:      -6.7      0.000      0.000
REMARK  9 active torsions:
REMARK  status: ('A' for Active; 'I' for Inactive)
REMARK    1  A    between atoms: O1_1  and  C1_2 
REMARK    2  A    between atoms: C1_2  and  C2_3 
REMARK    3  A    between atoms: C2_3  and  O2_4 
REMARK    4  A    between atoms: C3_5  and  C4_6 
REMARK    5  A    between atoms: C4_6  and  C5_7 
REMARK    6  A    between atoms: C7_11  and  C8_12 
REMARK    7  A    between atoms: C8_12  and  N2_13 
REMARK    8  A    between atoms: N2_13  and  C9_14 
REMARK    9  A    between atoms: C9_14  and  C10_15 
ROOT
HETATM    1  C5  UNL     1      26.463   2.412  51.842  1.00  0.00     0.084 A 
HETATM    2  O3  UNL     1      27.056   2.665  50.701  1.00  0.00    -0.306 OA
HETATM    3  C6  UNL     1      26.267   3.289  49.882  1.00  0.00     0.258 A 
HETATM    4  N1  UNL     1      25.096   3.447  50.533  1.00  0.00    -0.237 NA
HETATM    5  C7  UNL     1      25.178   2.908  51.774  1.00  0.00     0.094 A 
ENDROOT
BRANCH   5   6
HETATM    6  C8  UNL     1      24.136   2.881  52.811  1.00  0.00     0.331 C 
BRANCH   6   7
HETATM    7  N2  UNL     1      22.965   2.109  52.413  1.00  0.00     0.093 N 
HETATM    8  H11 UNL     1      22.245   2.243  53.141  1.00  0.00     0.316 HD
BRANCH   7   9
HETATM    9  C9  UNL     1      23.304   0.733  52.151  1.00  0.00     0.308 C 
BRANCH   9  10
HETATM   10  C10 UNL     1      22.784  -0.155  53.215  1.00  0.00    -0.028 A 
HETATM   11  C11 UNL     1      21.470  -0.619  53.370  1.00  0.00     0.028 A 
HETATM   12  C12 UNL     1      21.278  -1.426  54.448  1.00  0.00     0.116 A 
HETATM   13  N3  UNL     1      22.185  -1.818  55.355  1.00  0.00    -0.273 NA
HETATM   14  C13 UNL     1      23.458  -1.373  55.211  1.00  0.00     0.116 A 
HETATM   15  C14 UNL     1      23.712  -0.551  54.136  1.00  0.00     0.028 A 
ENDBRANCH   9  10
ENDBRANCH   7   9
ENDBRANCH   6   7
ENDBRANCH   5   6
BRANCH   1  16
HETATM   16  C4  UNL     1      27.159   1.704  52.943  1.00  0.00     0.097 C 
BRANCH  16  17
HETATM   17  C3  UNL     1      27.113   0.258  52.724  1.00  0.00     0.014 C 
HETATM   18  C2  UNL     1      27.453  -0.993  53.032  1.00  0.00     0.063 C 
BRANCH  18  19
HETATM   19  C1  UNL     1      27.137  -2.358  52.467  1.00  0.00     0.228 C 
BRANCH  19  20
HETATM   20  O1  UNL     1      28.190  -3.200  52.786  1.00  0.00    -0.394 OA
HETATM   21  H1  UNL     1      27.963  -4.171  52.686  1.00  0.00     0.209 HD
ENDBRANCH  19  20
ENDBRANCH  18  19
BRANCH  18  22
HETATM   22  O2  UNL     1      28.303  -0.951  54.150  1.00  0.00    -0.363 OA
HETATM   23  H4  UNL     1      29.270  -0.743  54.060  1.00  0.00     0.217 HD
ENDBRANCH  18  22
ENDBRANCH  16  17
ENDBRANCH   1  16
TORSDOF 9
ENDMDL
MODEL 2
REMARK VINA RESULT:      -6.6      2.888      6.761
REMARK  9 active torsions:
REMARK  status: ('A' for Active; 'I' for Inactive)
REMARK    1  A    between atoms: O1_1  and  C1_2 
REMARK    2  A    between atoms: C1_2  and  C2_3 
REMARK    3  A    between atoms: C2_3  and  O2_4 
REMARK    4  A    between atoms: C3_5  and  C4_6 
REMARK    5  A    between atoms: C4_6  and  C5_7 
REMARK    6  A    between atoms: C7_11  and  C8_12 
REMARK    7  A    between atoms: C8_12  and  N2_13 
REMARK    8  A    between atoms: N2_13  and  C9_14 
REMARK    9  A    between atoms: C9_14  and  C10_15 
ROOT
HETATM    1  C5  UNL     1      27.268   0.526  52.752  1.00  0.00     0.084 A 
HETATM    2  O3  UNL     1      28.156   0.501  53.715  1.00  0.00    -0.306 OA
HETATM    3  C6  UNL     1      28.742   1.649  53.852  1.00  0.00     0.258 A 
HETATM    4  N1  UNL     1      28.200   2.463  52.923  1.00  0.00    -0.237 NA
HETATM    5  C7  UNL     1      27.264   1.793  52.208  1.00  0.00     0.094 A 
ENDROOT
BRANCH   5   6
HETATM    6  C8  UNL     1      26.427   2.312  51.116  1.00  0.00     0.331 C 
BRANCH   6   7
HETATM    7  N2  UNL     1      26.883   3.606  50.623  1.00  0.00     0.093 N 
HETATM    8  H11 UNL     1      26.908   4.252  51.428  1.00  0.00     0.316 HD
BRANCH   7   9
HETATM    9  C9  UNL     1      26.082   4.061  49.515  1.00  0.00     0.308 C 
BRANCH   9  10
HETATM   10  C10 UNL     1      26.700   5.235  48.858  1.00  0.00    -0.028 A 
HETATM   11  C11 UNL     1      26.070   6.432  48.486  1.00  0.00     0.028 A 
HETATM   12  C12 UNL     1      26.889   7.342  47.896  1.00  0.00     0.116 A 
HETATM   13  N3  UNL     1      28.200   7.225  47.635  1.00  0.00    -0.273 NA
HETATM   14  C13 UNL     1      28.815   6.071  47.992  1.00  0.00     0.116 A 
HETATM   15  C14 UNL     1      28.034   5.110  48.596  1.00  0.00     0.028 A 
ENDBRANCH   9  10
ENDBRANCH   7   9
ENDBRANCH   6   7
ENDBRANCH   5   6
BRANCH   1  16
HETATM   16  C4  UNL     1      26.464  -0.670  52.400  1.00  0.00     0.097 C 
BRANCH  16  17
HETATM   17  C3  UNL     1      25.295  -0.769  53.275  1.00  0.00     0.014 C 
HETATM   18  C2  UNL     1      24.723  -0.828  54.476  1.00  0.00     0.063 C 
BRANCH  18  19
HETATM   19  C1  UNL     1      23.304  -0.941  54.982  1.00  0.00     0.228 C 
BRANCH  19  20
HETATM   20  O1  UNL     1      23.295  -1.871  56.009  1.00  0.00    -0.394 OA
HETATM   21  H1  UNL     1      22.372  -2.147  56.283  1.00  0.00     0.209 HD
ENDBRANCH  19  20
ENDBRANCH  18  19
BRANCH  18  22
HETATM   22  O2  UNL     1      25.738  -0.766  55.446  1.00  0.00    -0.363 OA
HETATM   23  H4  UNL     1      26.570  -0.244  55.294  1.00  0.00     0.217 HD
ENDBRANCH  18  22
ENDBRANCH  16  17
ENDBRANCH   1  16
TORSDOF 9
ENDMDL
MODEL 3
REMARK VINA RESULT:      -6.5      2.512      4.470
REMARK  9 active torsions:
REMARK  status: ('A' for Active; 'I' for Inactive)
REMARK    1  A    between atoms: O1_1  and  C1_2 
REMARK    2  A    between atoms: C1_2  and  C2_3 
REMARK    3  A    between atoms: C2_3  and  O2_4 
REMARK    4  A    between atoms: C3_5  and  C4_6 
REMARK    5  A    between atoms: C4_6  and  C5_7 
REMARK    6  A    between atoms: C7_11  and  C8_12 
REMARK    7  A    between atoms: C8_12  and  N2_13 
REMARK    8  A    between atoms: N2_13  and  C9_14 
REMARK    9  A    between atoms: C9_14  and  C10_15 
ROOT
HETATM    1  C5  UNL     1      27.440   1.489  52.627  1.00  0.00     0.084 A 
HETATM    2  O3  UNL     1      28.279   2.494  52.688  1.00  0.00    -0.306 OA
HETATM    3  C6  UNL     1      28.930   2.504  53.809  1.00  0.00     0.258 A 
HETATM    4  N1  UNL     1      28.486   1.442  54.513  1.00  0.00    -0.237 NA
HETATM    5  C7  UNL     1      27.545   0.775  53.802  1.00  0.00     0.094 A 
ENDROOT
BRANCH   5   6
HETATM    6  C8  UNL     1      26.820  -0.444  54.193  1.00  0.00     0.331 C 
BRANCH   6   7
HETATM    7  N2  UNL     1      25.418  -0.191  54.501  1.00  0.00     0.093 N 
HETATM    8  H11 UNL     1      25.242  -0.547  55.454  1.00  0.00     0.316 HD
BRANCH   7   9
HETATM    9  C9  UNL     1      24.549  -0.735  53.489  1.00  0.00     0.308 C 
BRANCH   9  10
HETATM   10  C10 UNL     1      23.160  -0.253  53.664  1.00  0.00    -0.028 A 
HETATM   11  C11 UNL     1      22.221  -0.688  54.611  1.00  0.00     0.028 A 
HETATM   12  C12 UNL     1      21.015  -0.065  54.539  1.00  0.00     0.116 A 
HETATM   13  N3  UNL     1      20.633   0.895  53.683  1.00  0.00    -0.273 NA
HETATM   14  C13 UNL     1      21.535   1.320  52.765  1.00  0.00     0.116 A 
HETATM   15  C14 UNL     1      22.777   0.724  52.790  1.00  0.00     0.028 A 
ENDBRANCH   9  10
ENDBRANCH   7   9
ENDBRANCH   6   7
ENDBRANCH   5   6
BRANCH   1  16
HETATM   16  C4  UNL     1      26.578   1.263  51.442  1.00  0.00     0.097 C 
BRANCH  16  17
HETATM   17  C3  UNL     1      25.971   2.523  51.011  1.00  0.00     0.014 C 
HETATM   18  C2  UNL     1      26.035   3.737  50.466  1.00  0.00     0.063 C 
BRANCH  18  19
HETATM   19  C1  UNL     1      25.038   4.837  50.182  1.00  0.00     0.228 C 
BRANCH  19  20
HETATM   20  O1  UNL     1      25.657   6.046  50.451  1.00  0.00    -0.394 OA
HETATM   21  H1  UNL     1      25.269   6.812  49.933  1.00  0.00     0.209 HD
ENDBRANCH  19  20
ENDBRANCH  18  19
BRANCH  18  22
HETATM   22  O2  UNL     1      27.368   3.980  50.097  1.00  0.00    -0.363 OA
HETATM   23  H4  UNL     1      27.598   4.616  49.369  1.00  0.00     0.217 HD
ENDBRANCH  18  22
ENDBRANCH  16  17
ENDBRANCH   1  16
TORSDOF 9
ENDMDL
MODEL 4
REMARK VINA RESULT:      -6.5      2.160      4.220
REMARK  9 active torsions:
REMARK  status: ('A' for Active; 'I' for Inactive)
REMARK    1  A    between atoms: O1_1  and  C1_2 
REMARK    2  A    between atoms: C1_2  and  C2_3 
REMARK    3  A    between atoms: C2_3  and  O2_4 
REMARK    4  A    between atoms: C3_5  and  C4_6 
REMARK    5  A    between atoms: C4_6  and  C5_7 
REMARK    6  A    between atoms: C7_11  and  C8_12 
REMARK    7  A    between atoms: C8_12  and  N2_13 
REMARK    8  A    between atoms: N2_13  and  C9_14 
REMARK    9  A    between atoms: C9_14  and  C10_15 
ROOT
HETATM    1  C5  UNL     1      28.123   0.607  53.490  1.00  0.00     0.084 A 
HETATM    2  O3  UNL     1      29.365   0.400  53.851  1.00  0.00    -0.306 OA
HETATM    3  C6  UNL     1      29.674  -0.858  53.797  1.00  0.00     0.258 A 
HETATM    4  N1  UNL     1      28.565  -1.501  53.377  1.00  0.00    -0.237 NA
HETATM    5  C7  UNL     1      27.563  -0.612  53.170  1.00  0.00     0.094 A 
ENDROOT
BRANCH   5   6
HETATM    6  C8  UNL     1      26.199  -0.890  52.696  1.00  0.00     0.331 C 
BRANCH   6   7
HETATM    7  N2  UNL     1      25.187  -0.653  53.718  1.00  0.00     0.093 N 
HETATM    8  H11 UNL     1      24.719  -1.555  53.903  1.00  0.00     0.316 HD
BRANCH   7   9
HETATM    9  C9  UNL     1      24.299   0.417  53.343  1.00  0.00     0.308 C 
BRANCH   9  10
HETATM   10  C10 UNL     1      22.884  -0.014  53.418  1.00  0.00    -0.028 A 
HETATM   11  C11 UNL     1      21.799   0.495  52.691  1.00  0.00     0.028 A 
HETATM   12  C12 UNL     1      20.606  -0.095  52.968  1.00  0.00     0.116 A 
HETATM   13  N3  UNL     1      20.358  -1.084  53.838  1.00  0.00    -0.273 NA
HETATM   14  C13 UNL     1      21.403  -1.582  54.545  1.00  0.00     0.116 A 
HETATM   15  C14 UNL     1      22.639  -1.022  54.306  1.00  0.00     0.028 A 
ENDBRANCH   9  10
ENDBRANCH   7   9
ENDBRANCH   6   7
ENDBRANCH   5   6
BRANCH   1  16
HETATM   16  C4  UNL     1      27.532   1.967  53.469  1.00  0.00     0.097 C 
BRANCH  16  17
HETATM   17  C3  UNL     1      27.239   2.370  52.093  1.00  0.00     0.014 C 
HETATM   18  C2  UNL     1      26.469   2.948  51.172  1.00  0.00     0.063 C 
BRANCH  18  19
HETATM   19  C1  UNL     1      26.564   3.164  49.679  1.00  0.00     0.228 C 
BRANCH  19  20
HETATM   20  O1  UNL     1      27.424   4.228  49.462  1.00  0.00    -0.394 OA
HETATM   21  H1  UNL     1      27.610   4.393  48.491  1.00  0.00     0.209 HD
ENDBRANCH  19  20
ENDBRANCH  18  19
BRANCH  18  22
HETATM   22  O2  UNL     1      25.323   3.448  51.812  1.00  0.00    -0.363 OA
HETATM   23  H4  UNL     1      24.799   4.199  51.428  1.00  0.00     0.217 HD
ENDBRANCH  18  22
ENDBRANCH  16  17
ENDBRANCH   1  16
TORSDOF 9
ENDMDL
MODEL 5
REMARK VINA RESULT:      -6.4      2.480      4.266
REMARK  9 active torsions:
REMARK  status: ('A' for Active; 'I' for Inactive)
REMARK    1  A    between atoms: O1_1  and  C1_2 
REMARK    2  A    between atoms: C1_2  and  C2_3 
REMARK    3  A    between atoms: C2_3  and  O2_4 
REMARK    4  A    between atoms: C3_5  and  C4_6 
REMARK    5  A    between atoms: C4_6  and  C5_7 
REMARK    6  A    between atoms: C7_11  and  C8_12 
REMARK    7  A    between atoms: C8_12  and  N2_13 
REMARK    8  A    between atoms: N2_13  and  C9_14 
REMARK    9  A    between atoms: C9_14  and  C10_15 
ROOT
HETATM    1  C5  UNL     1      27.395   1.653  52.599  1.00  0.00     0.084 A 
HETATM    2  O3  UNL     1      28.359   2.534  52.711  1.00  0.00    -0.306 OA
HETATM    3  C6  UNL     1      28.999   2.400  53.830  1.00  0.00     0.258 A 
HETATM    4  N1  UNL     1      28.415   1.371  54.479  1.00  0.00    -0.237 NA
HETATM    5  C7  UNL     1      27.398   0.871  53.735  1.00  0.00     0.094 A 
ENDROOT
BRANCH   5   6
HETATM    6  C8  UNL     1      26.517  -0.259  54.063  1.00  0.00     0.331 C 
BRANCH   6   7
HETATM    7  N2  UNL     1      25.113   0.125  54.145  1.00  0.00     0.093 N 
HETATM    8  H11 UNL     1      24.819   0.012  55.128  1.00  0.00     0.316 HD
BRANCH   7   9
HETATM    9  C9  UNL     1      24.311  -0.599  53.192  1.00  0.00     0.308 C 
BRANCH   9  10
HETATM   10  C10 UNL     1      22.871  -0.316  53.384  1.00  0.00    -0.028 A 
HETATM   11  C11 UNL     1      22.184   0.863  53.065  1.00  0.00     0.028 A 
HETATM   12  C12 UNL     1      20.856   0.842  53.355  1.00  0.00     0.116 A 
HETATM   13  N3  UNL     1      20.148  -0.158  53.900  1.00  0.00    -0.273 NA
HETATM   14  C13 UNL     1      20.805  -1.303  54.212  1.00  0.00     0.116 A 
HETATM   15  C14 UNL     1      22.155  -1.339  53.940  1.00  0.00     0.028 A 
ENDBRANCH   9  10
ENDBRANCH   7   9
ENDBRANCH   6   7
ENDBRANCH   5   6
BRANCH   1  16
HETATM   16  C4  UNL     1      26.517   1.604  51.405  1.00  0.00     0.097 C 
BRANCH  16  17
HETATM   17  C3  UNL     1      25.509   2.664  51.475  1.00  0.00     0.014 C 
HETATM   18  C2  UNL     1      24.677   3.457  52.147  1.00  0.00     0.063 C 
BRANCH  18  19
HETATM   19  C1  UNL     1      23.698   4.546  51.772  1.00  0.00     0.228 C 
BRANCH  19  20
HETATM   20  O1  UNL     1      23.843   5.576  52.687  1.00  0.00    -0.394 OA
HETATM   21  H1  UNL     1      24.652   6.142  52.517  1.00  0.00     0.209 HD
ENDBRANCH  19  20
ENDBRANCH  18  19
BRANCH  18  22
HETATM   22  O2  UNL     1      24.792   3.152  53.514  1.00  0.00    -0.363 OA
HETATM   23  H4  UNL     1      25.630   3.329  54.017  1.00  0.00     0.217 HD
ENDBRANCH  18  22
ENDBRANCH  16  17
ENDBRANCH   1  16
TORSDOF 9
ENDMDL
MODEL 6
REMARK VINA RESULT:      -6.4      2.284      3.997
REMARK  9 active torsions:
REMARK  status: ('A' for Active; 'I' for Inactive)
REMARK    1  A    between atoms: O1_1  and  C1_2 
REMARK    2  A    between atoms: C1_2  and  C2_3 
REMARK    3  A    between atoms: C2_3  and  O2_4 
REMARK    4  A    between atoms: C3_5  and  C4_6 
REMARK    5  A    between atoms: C4_6  and  C5_7 
REMARK    6  A    between atoms: C7_11  and  C8_12 
REMARK    7  A    between atoms: C8_12  and  N2_13 
REMARK    8  A    between atoms: N2_13  and  C9_14 
REMARK    9  A    between atoms: C9_14  and  C10_15 
ROOT
HETATM    1  C5  UNL     1      27.552   0.459  52.953  1.00  0.00     0.084 A 
HETATM    2  O3  UNL     1      28.447   0.409  53.907  1.00  0.00    -0.306 OA
HETATM    3  C6  UNL     1      28.994   1.567  54.110  1.00  0.00     0.258 A 
HETATM    4  N1  UNL     1      28.416   2.415  53.233  1.00  0.00    -0.237 NA
HETATM    5  C7  UNL     1      27.499   1.755  52.485  1.00  0.00     0.094 A 
ENDROOT
BRANCH   5   6
HETATM    6  C8  UNL     1      26.637   2.307  51.429  1.00  0.00     0.331 C 
BRANCH   6   7
HETATM    7  N2  UNL     1      25.680   3.282  51.937  1.00  0.00     0.093 N 
HETATM    8  H11 UNL     1      26.220   4.084  52.302  1.00  0.00     0.316 HD
BRANCH   7   9
HETATM    9  C9  UNL     1      24.774   2.688  52.887  1.00  0.00     0.308 C 
BRANCH   9  10
HETATM   10  C10 UNL     1      23.447   2.445  52.277  1.00  0.00    -0.028 A 
HETATM   11  C11 UNL     1      22.969   1.246  51.728  1.00  0.00     0.028 A 
HETATM   12  C12 UNL     1      21.704   1.315  51.234  1.00  0.00     0.116 A 
HETATM   13  N3  UNL     1      20.883   2.375  51.214  1.00  0.00    -0.273 NA
HETATM   14  C13 UNL     1      21.339   3.538  51.744  1.00  0.00     0.116 A 
HETATM   15  C14 UNL     1      22.616   3.529  52.260  1.00  0.00     0.028 A 
ENDBRANCH   9  10
ENDBRANCH   7   9
ENDBRANCH   6   7
ENDBRANCH   5   6
BRANCH   1  16
HETATM   16  C4  UNL     1      26.789  -0.742  52.534  1.00  0.00     0.097 C 
BRANCH  16  17
HETATM   17  C3  UNL     1      25.549  -0.847  53.306  1.00  0.00     0.014 C 
HETATM   18  C2  UNL     1      24.872  -0.862  54.452  1.00  0.00     0.063 C 
BRANCH  18  19
HETATM   19  C1  UNL     1      23.418  -1.016  54.836  1.00  0.00     0.228 C 
BRANCH  19  20
HETATM   20  O1  UNL     1      23.367  -1.762  56.002  1.00  0.00    -0.394 OA
HETATM   21  H1  UNL     1      24.131  -2.403  56.094  1.00  0.00     0.209 HD
ENDBRANCH  19  20
ENDBRANCH  18  19
BRANCH  18  22
HETATM   22  O2  UNL     1      25.788  -0.688  55.503  1.00  0.00    -0.363 OA
HETATM   23  H4  UNL     1      26.215  -1.464  55.954  1.00  0.00     0.217 HD
ENDBRANCH  18  22
ENDBRANCH  16  17
ENDBRANCH   1  16
TORSDOF 9
ENDMDL
MODEL 7
REMARK VINA RESULT:      -6.3      3.241      6.414
REMARK  9 active torsions:
REMARK  status: ('A' for Active; 'I' for Inactive)
REMARK    1  A    between atoms: O1_1  and  C1_2 
REMARK    2  A    between atoms: C1_2  and  C2_3 
REMARK    3  A    between atoms: C2_3  and  O2_4 
REMARK    4  A    between atoms: C3_5  and  C4_6 
REMARK    5  A    between atoms: C4_6  and  C5_7 
REMARK    6  A    between atoms: C7_11  and  C8_12 
REMARK    7  A    between atoms: C8_12  and  N2_13 
REMARK    8  A    between atoms: N2_13  and  C9_14 
REMARK    9  A    between atoms: C9_14  and  C10_15 
ROOT
HETATM    1  C5  UNL     1      23.391   1.158  52.940  1.00  0.00     0.084 A 
HETATM    2  O3  UNL     1      22.153   1.122  52.514  1.00  0.00    -0.306 OA
HETATM    3  C6  UNL     1      21.662  -0.077  52.575  1.00  0.00     0.258 A 
HETATM    4  N1  UNL     1      22.642  -0.861  53.070  1.00  0.00    -0.237 NA
HETATM    5  C7  UNL     1      23.750  -0.119  53.316  1.00  0.00     0.094 A 
ENDROOT
BRANCH   5   6
HETATM    6  C8  UNL     1      25.031  -0.578  53.872  1.00  0.00     0.331 C 
BRANCH   6   7
HETATM    7  N2  UNL     1      25.863  -1.257  52.887  1.00  0.00     0.093 N 
HETATM    8  H11 UNL     1      26.388  -1.996  53.382  1.00  0.00     0.316 HD
BRANCH   7   9
HETATM    9  C9  UNL     1      26.685  -0.325  52.157  1.00  0.00     0.308 C 
BRANCH   9  10
HETATM   10  C10 UNL     1      27.640   0.360  53.057  1.00  0.00    -0.028 A 
HETATM   11  C11 UNL     1      28.428  -0.218  54.063  1.00  0.00     0.028 A 
HETATM   12  C12 UNL     1      29.218   0.659  54.738  1.00  0.00     0.116 A 
HETATM   13  N3  UNL     1      29.323   1.983  54.554  1.00  0.00    -0.273 NA
HETATM   14  C13 UNL     1      28.564   2.550  53.583  1.00  0.00     0.116 A 
HETATM   15  C14 UNL     1      27.743   1.709  52.865  1.00  0.00     0.028 A 
ENDBRANCH   9  10
ENDBRANCH   7   9
ENDBRANCH   6   7
ENDBRANCH   5   6
BRANCH   1  16
HETATM   16  C4  UNL     1      24.171   2.418  52.967  1.00  0.00     0.097 C 
BRANCH  16  17
HETATM   17  C3  UNL     1      23.373   3.519  52.424  1.00  0.00     0.014 C 
HETATM   18  C2  UNL     1      23.018   4.801  52.367  1.00  0.00     0.063 C 
BRANCH  18  19
HETATM   19  C1  UNL     1      22.024   5.602  51.558  1.00  0.00     0.228 C 
BRANCH  19  20
HETATM   20  O1  UNL     1      22.526   6.886  51.425  1.00  0.00    -0.394 OA
HETATM   21  H1  UNL     1      23.126   6.996  50.631  1.00  0.00     0.209 HD
ENDBRANCH  19  20
ENDBRANCH  18  19
BRANCH  18  22
HETATM   22  O2  UNL     1      23.789   5.510  53.303  1.00  0.00    -0.363 OA
HETATM   23  H4  UNL     1      24.649   5.938  53.051  1.00  0.00     0.217 HD
ENDBRANCH  18  22
ENDBRANCH  16  17
ENDBRANCH   1  16
TORSDOF 9
ENDMDL
MODEL 8
REMARK VINA RESULT:      -6.3      1.530      2.088
REMARK  9 active torsions:
REMARK  status: ('A' for Active; 'I' for Inactive)
REMARK    1  A    between atoms: O1_1  and  C1_2 
REMARK    2  A    between atoms: C1_2  and  C2_3 
REMARK    3  A    between atoms: C2_3  and  O2_4 
REMARK    4  A    between atoms: C3_5  and  C4_6 
REMARK    5  A    between atoms: C4_6  and  C5_7 
REMARK    6  A    between atoms: C7_11  and  C8_12 
REMARK    7  A    between atoms: C8_12  and  N2_13 
REMARK    8  A    between atoms: N2_13  and  C9_14 
REMARK    9  A    between atoms: C9_14  and  C10_15 
ROOT
HETATM    1  C5  UNL     1      25.838   2.710  51.586  1.00  0.00     0.084 A 
HETATM    2  O3  UNL     1      26.927   2.980  50.909  1.00  0.00    -0.306 OA
HETATM    3  C6  UNL     1      26.658   3.319  49.687  1.00  0.00     0.258 A 
HETATM    4  N1  UNL     1      25.315   3.266  49.569  1.00  0.00    -0.237 NA
HETATM    5  C7  UNL     1      24.760   2.886  50.745  1.00  0.00     0.094 A 
ENDROOT
BRANCH   5   6
HETATM    6  C8  UNL     1      23.331   2.720  51.052  1.00  0.00     0.331 C 
BRANCH   6   7
HETATM    7  N2  UNL     1      22.935   1.321  51.155  1.00  0.00     0.093 N 
HETATM    8  H11 UNL     1      22.850   0.953  50.194  1.00  0.00     0.316 HD
BRANCH   7   9
HETATM    9  C9  UNL     1      21.753   1.165  51.963  1.00  0.00     0.308 C 
BRANCH   9  10
HETATM   10  C10 UNL     1      21.969   0.169  53.037  1.00  0.00    -0.028 A 
HETATM   11  C11 UNL     1      23.164  -0.103  53.718  1.00  0.00     0.028 A 
HETATM   12  C12 UNL     1      23.069  -1.078  54.661  1.00  0.00     0.116 A 
HETATM   13  N3  UNL     1      21.985  -1.790  55.003  1.00  0.00    -0.273 NA
HETATM   14  C13 UNL     1      20.826  -1.533  54.349  1.00  0.00     0.116 A 
HETATM   15  C14 UNL     1      20.862  -0.554  53.381  1.00  0.00     0.028 A 
ENDBRANCH   9  10
ENDBRANCH   7   9
ENDBRANCH   6   7
ENDBRANCH   5   6
BRANCH   1  16
HETATM   16  C4  UNL     1      25.886   2.295  53.009  1.00  0.00     0.097 C 
BRANCH  16  17
HETATM   17  C3  UNL     1      27.129   1.573  53.284  1.00  0.00     0.014 C 
HETATM   18  C2  UNL     1      28.456   1.503  53.379  1.00  0.00     0.063 C 
BRANCH  18  19
HETATM   19  C1  UNL     1      29.448   0.423  53.742  1.00  0.00     0.228 C 
BRANCH  19  20
HETATM   20  O1  UNL     1      28.761  -0.567  54.426  1.00  0.00    -0.394 OA
HETATM   21  H1  UNL     1      29.106  -1.488  54.238  1.00  0.00     0.209 HD
ENDBRANCH  19  20
ENDBRANCH  18  19
BRANCH  18  22
HETATM   22  O2  UNL     1      28.983   2.763  53.050  1.00  0.00    -0.363 OA
HETATM   23  H4  UNL     1      29.028   3.498  53.716  1.00  0.00     0.217 HD
ENDBRANCH  18  22
ENDBRANCH  16  17
ENDBRANCH   1  16
TORSDOF 9
ENDMDL
MODEL 9
REMARK VINA RESULT:      -6.3      2.238      5.705
REMARK  9 active torsions:
REMARK  status: ('A' for Active; 'I' for Inactive)
REMARK    1  A    between atoms: O1_1  and  C1_2 
REMARK    2  A    between atoms: C1_2  and  C2_3 
REMARK    3  A    between atoms: C2_3  and  O2_4 
REMARK    4  A    between atoms: C3_5  and  C4_6 
REMARK    5  A    between atoms: C4_6  and  C5_7 
REMARK    6  A    between atoms: C7_11  and  C8_12 
REMARK    7  A    between atoms: C8_12  and  N2_13 
REMARK    8  A    between atoms: N2_13  and  C9_14 
REMARK    9  A    between atoms: C9_14  and  C10_15 
ROOT
HETATM    1  C5  UNL     1      24.899   0.584  52.551  1.00  0.00     0.084 A 
HETATM    2  O3  UNL     1      24.382  -0.507  53.061  1.00  0.00    -0.306 OA
HETATM    3  C6  UNL     1      23.225  -0.279  53.601  1.00  0.00     0.258 A 
HETATM    4  N1  UNL     1      22.982   1.037  53.429  1.00  0.00    -0.237 NA
HETATM    5  C7  UNL     1      24.013   1.618  52.769  1.00  0.00     0.094 A 
ENDROOT
BRANCH   5   6
HETATM    6  C8  UNL     1      24.141   3.026  52.366  1.00  0.00     0.331 C 
BRANCH   6   7
HETATM    7  N2  UNL     1      23.311   3.360  51.215  1.00  0.00     0.093 N 
HETATM    8  H11 UNL     1      22.362   3.000  51.403  1.00  0.00     0.316 HD
BRANCH   7   9
HETATM    9  C9  UNL     1      23.898   2.888  49.986  1.00  0.00     0.308 C 
BRANCH   9  10
HETATM   10  C10 UNL     1      25.012   3.763  49.557  1.00  0.00    -0.028 A 
HETATM   11  C11 UNL     1      26.369   3.424  49.452  1.00  0.00     0.028 A 
HETATM   12  C12 UNL     1      27.174   4.436  49.031  1.00  0.00     0.116 A 
HETATM   13  N3  UNL     1      26.823   5.691  48.714  1.00  0.00    -0.273 NA
HETATM   14  C13 UNL     1      25.512   6.026  48.814  1.00  0.00     0.116 A 
HETATM   15  C14 UNL     1      24.648   5.040  49.236  1.00  0.00     0.028 A 
ENDBRANCH   9  10
ENDBRANCH   7   9
ENDBRANCH   6   7
ENDBRANCH   5   6
BRANCH   1  16
HETATM   16  C4  UNL     1      26.220   0.581  51.878  1.00  0.00     0.097 C 
BRANCH  16  17
HETATM   17  C3  UNL     1      27.290   0.756  52.861  1.00  0.00     0.014 C 
HETATM   18  C2  UNL     1      27.917   1.449  53.809  1.00  0.00     0.063 C 
BRANCH  18  19
HETATM   19  C1  UNL     1      29.141   1.224  54.668  1.00  0.00     0.228 C 
BRANCH  19  20
HETATM   20  O1  UNL     1      29.826   2.425  54.747  1.00  0.00    -0.394 OA
HETATM   21  H1  UNL     1      30.268   2.685  53.886  1.00  0.00     0.209 HD
ENDBRANCH  19  20
ENDBRANCH  18  19
BRANCH  18  22
HETATM   22  O2  UNL     1      27.223   2.655  54.000  1.00  0.00    -0.363 OA
HETATM   23  H4  UNL     1      27.659   3.445  54.416  1.00  0.00     0.217 HD
ENDBRANCH  18  22
ENDBRANCH  16  17
ENDBRANCH   1  16
TORSDOF 9
ENDMDL
