MODEL 1
REMARK VINA RESULT:      -8.2      0.000      0.000
REMARK  5 active torsions:
REMARK  status: ('A' for Active; 'I' for Inactive)
REMARK    1  A    between atoms: C2_2  and  C3_3 
REMARK       I    between atoms: C3_3  and  N1_5 
REMARK    2  A    between atoms: C7_9  and  C8_10 
REMARK    3  A    between atoms: C8_10  and  C9_11 
REMARK    4  A    between atoms: C14_19  and  O3_20 
REMARK    5  A    between atoms: C19_25  and  O4_26 
ROOT
HETATM    1  C9  UNL     1      25.357   3.301  50.059  1.00  0.00     0.058 A 
HETATM    2  N2  UNL     1      24.504   2.725  50.829  1.00  0.00    -0.299 N 
HETATM    3  C10 UNL     1      23.130   2.854  50.552  1.00  0.00     0.212 C 
HETATM    4  N3  UNL     1      22.795   2.406  51.700  1.00  0.00    -0.258 NA
HETATM    5  C11 UNL     1      23.694   1.981  52.747  1.00  0.00     0.325 C 
HETATM    6  O2  UNL     1      24.551   0.932  52.388  1.00  0.00    -0.332 OA
HETATM    7  C12 UNL     1      25.445   0.389  53.285  1.00  0.00     0.074 C 
HETATM    8  C13 UNL     1      24.715  -0.581  54.137  1.00  0.00     0.079 C 
HETATM    9  C14 UNL     1      26.757   0.500  53.582  1.00  0.00     0.085 C 
HETATM   10  C16 UNL     1      27.592   1.469  52.763  1.00  0.00     0.154 C 
HETATM   11  C17 UNL     1      26.815   2.137  51.791  1.00  0.00    -0.117 C 
HETATM   12  C18 UNL     1      26.166   2.669  51.009  1.00  0.00     0.106 A 
ENDROOT
BRANCH   1  13
HETATM   13  C8  UNL     1      26.069   4.068  49.007  1.00  0.00     0.099 C 
BRANCH  13  14
HETATM   14  C7  UNL     1      26.226   5.496  49.299  1.00  0.00    -0.026 A 
HETATM   15  C6  UNL     1      25.514   6.330  50.026  1.00  0.00     0.009 A 
HETATM   16  C5  UNL     1      25.871   7.734  50.172  1.00  0.00     0.018 A 
HETATM   17  C4  UNL     1      26.936   8.245  49.577  1.00  0.00     0.097 A 
HETATM   18  N1  UNL     1      27.659   7.320  48.818  1.00  0.00    -0.297 N 
HETATM   19  C3  UNL     1      28.829   7.699  48.108  1.00  0.00     0.225 C 
HETATM   20  C19 UNL     1      27.448   5.928  48.575  1.00  0.00     0.258 A 
HETATM   21  O1  UNL     1      29.659   7.116  47.368  1.00  0.00    -0.273 OA
BRANCH  19  22
HETATM   22  C2  UNL     1      29.296   9.098  48.173  1.00  0.00     0.099 C 
HETATM   23  C1  UNL     1      30.484   9.263  49.080  1.00  0.00     0.014 C 
ENDBRANCH  19  22
BRANCH  20  24
HETATM   24  O4  UNL     1      28.506   5.214  49.150  1.00  0.00    -0.372 OA
HETATM   25  H23 UNL     1      28.182   4.426  49.657  1.00  0.00     0.212 HD
ENDBRANCH  20  24
ENDBRANCH  13  14
ENDBRANCH   1  13
BRANCH   9  26
HETATM   26  O3  UNL     1      27.387  -0.215  54.587  1.00  0.00    -0.357 OA
HETATM   27  C15 UNL     1      28.769  -0.087  54.899  1.00  0.00     0.209 C 
ENDBRANCH   9  26
TORSDOF 5
ENDMDL
MODEL 2
REMARK VINA RESULT:      -8.0      1.674      2.307
REMARK  5 active torsions:
REMARK  status: ('A' for Active; 'I' for Inactive)
REMARK    1  A    between atoms: C2_2  and  C3_3 
REMARK       I    between atoms: C3_3  and  N1_5 
REMARK    2  A    between atoms: C7_9  and  C8_10 
REMARK    3  A    between atoms: C8_10  and  C9_11 
REMARK    4  A    between atoms: C14_19  and  O3_20 
REMARK    5  A    between atoms: C19_25  and  O4_26 
ROOT
HETATM    1  C9  UNL     1      26.364   4.385  49.448  1.00  0.00     0.058 A 
HETATM    2  N2  UNL     1      25.234   4.366  50.059  1.00  0.00    -0.299 N 
HETATM    3  C10 UNL     1      24.287   5.372  49.786  1.00  0.00     0.212 C 
HETATM    4  N3  UNL     1      23.580   5.067  50.805  1.00  0.00    -0.258 NA
HETATM    5  C11 UNL     1      23.862   4.018  51.758  1.00  0.00     0.325 C 
HETATM    6  O2  UNL     1      23.940   2.733  51.202  1.00  0.00    -0.332 OA
HETATM    7  C12 UNL     1      24.167   1.621  51.982  1.00  0.00     0.074 C 
HETATM    8  C13 UNL     1      22.879   1.212  52.594  1.00  0.00     0.079 C 
HETATM    9  C14 UNL     1      25.209   0.835  52.325  1.00  0.00     0.085 C 
HETATM   10  C16 UNL     1      26.574   1.172  51.749  1.00  0.00     0.154 C 
HETATM   11  C17 UNL     1      26.525   2.318  50.924  1.00  0.00    -0.117 C 
HETATM   12  C18 UNL     1      26.463   3.250  50.259  1.00  0.00     0.106 A 
ENDROOT
BRANCH   1  13
HETATM   13  C8  UNL     1      27.545   4.681  48.598  1.00  0.00     0.099 C 
BRANCH  13  14
HETATM   14  C7  UNL     1      27.929   6.095  48.567  1.00  0.00    -0.026 A 
HETATM   15  C6  UNL     1      27.241   7.200  48.763  1.00  0.00     0.009 A 
HETATM   16  C5  UNL     1      27.850   8.520  48.677  1.00  0.00     0.018 A 
HETATM   17  C4  UNL     1      29.133   8.676  48.396  1.00  0.00     0.097 A 
HETATM   18  N1  UNL     1      29.819   7.474  48.196  1.00  0.00    -0.297 N 
HETATM   19  C3  UNL     1      31.204   7.457  47.882  1.00  0.00     0.225 C 
HETATM   20  C19 UNL     1      29.378   6.116  48.244  1.00  0.00     0.258 A 
HETATM   21  O1  UNL     1      32.062   6.569  47.654  1.00  0.00    -0.273 OA
BRANCH  19  22
HETATM   22  C2  UNL     1      31.937   8.732  47.763  1.00  0.00     0.099 C 
HETATM   23  C1  UNL     1      33.428   8.534  47.733  1.00  0.00     0.014 C 
ENDBRANCH  19  22
BRANCH  20  24
HETATM   24  O4  UNL     1      30.018   5.481  49.316  1.00  0.00    -0.372 OA
HETATM   25  H23 UNL     1      30.107   4.506  49.162  1.00  0.00     0.212 HD
ENDBRANCH  20  24
ENDBRANCH  13  14
ENDBRANCH   1  13
BRANCH   9  26
HETATM   26  O3  UNL     1      25.111  -0.259  53.169  1.00  0.00    -0.357 OA
HETATM   27  C15 UNL     1      25.749  -0.337  54.438  1.00  0.00     0.209 C 
ENDBRANCH   9  26
TORSDOF 5
ENDMDL
MODEL 3
REMARK VINA RESULT:      -7.9      1.968      7.141
REMARK  5 active torsions:
REMARK  status: ('A' for Active; 'I' for Inactive)
REMARK    1  A    between atoms: C2_2  and  C3_3 
REMARK       I    between atoms: C3_3  and  N1_5 
REMARK    2  A    between atoms: C7_9  and  C8_10 
REMARK    3  A    between atoms: C8_10  and  C9_11 
REMARK    4  A    between atoms: C14_19  and  O3_20 
REMARK    5  A    between atoms: C19_25  and  O4_26 
ROOT
HETATM    1  C9  UNL     1      24.758   4.662  50.013  1.00  0.00     0.058 A 
HETATM    2  N2  UNL     1      24.698   5.897  50.364  1.00  0.00    -0.299 N 
HETATM    3  C10 UNL     1      23.694   6.309  51.262  1.00  0.00     0.212 C 
HETATM    4  N3  UNL     1      23.896   7.545  51.014  1.00  0.00    -0.258 NA
HETATM    5  C11 UNL     1      24.870   8.085  50.093  1.00  0.00     0.325 C 
HETATM    6  O2  UNL     1      26.197   7.741  50.382  1.00  0.00    -0.332 OA
HETATM    7  C12 UNL     1      27.247   8.204  49.620  1.00  0.00     0.074 C 
HETATM    8  C13 UNL     1      27.570   9.581  50.065  1.00  0.00     0.079 C 
HETATM    9  C14 UNL     1      28.028   7.755  48.615  1.00  0.00     0.085 C 
HETATM   10  C16 UNL     1      27.774   6.353  48.088  1.00  0.00     0.154 C 
HETATM   11  C17 UNL     1      26.700   5.729  48.760  1.00  0.00    -0.117 C 
HETATM   12  C18 UNL     1      25.824   5.240  49.317  1.00  0.00     0.106 A 
ENDROOT
BRANCH   1  13
HETATM   13  C8  UNL     1      24.563   3.204  49.809  1.00  0.00     0.099 C 
BRANCH  13  14
HETATM   14  C7  UNL     1      24.669   2.403  51.032  1.00  0.00    -0.026 A 
HETATM   15  C6  UNL     1      23.790   1.673  51.685  1.00  0.00     0.009 A 
HETATM   16  C5  UNL     1      24.131   0.951  52.903  1.00  0.00     0.018 A 
HETATM   17  C4  UNL     1      25.350   0.993  53.417  1.00  0.00     0.097 A 
HETATM   18  N1  UNL     1      26.245   1.781  52.687  1.00  0.00    -0.297 N 
HETATM   19  C3  UNL     1      27.595   1.941  53.099  1.00  0.00     0.225 C 
HETATM   20  C19 UNL     1      26.074   2.542  51.490  1.00  0.00     0.258 A 
HETATM   21  O1  UNL     1      28.597   2.561  52.667  1.00  0.00    -0.273 OA
BRANCH  19  22
HETATM   22  C2  UNL     1      28.066   1.262  54.321  1.00  0.00     0.099 C 
HETATM   23  C1  UNL     1      29.198   0.310  54.047  1.00  0.00     0.014 C 
ENDBRANCH  19  22
BRANCH  20  24
HETATM   24  O4  UNL     1      26.863   1.969  50.485  1.00  0.00    -0.372 OA
HETATM   25  H23 UNL     1      27.167   2.646  49.828  1.00  0.00     0.212 HD
ENDBRANCH  20  24
ENDBRANCH  13  14
ENDBRANCH   1  13
BRANCH   9  26
HETATM   26  O3  UNL     1      29.046   8.494  48.035  1.00  0.00    -0.357 OA
HETATM   27  C15 UNL     1      30.426   8.170  48.158  1.00  0.00     0.209 C 
ENDBRANCH   9  26
TORSDOF 5
ENDMDL
MODEL 4
REMARK VINA RESULT:      -7.9      3.112      3.798
REMARK  5 active torsions:
REMARK  status: ('A' for Active; 'I' for Inactive)
REMARK    1  A    between atoms: C2_2  and  C3_3 
REMARK       I    between atoms: C3_3  and  N1_5 
REMARK    2  A    between atoms: C7_9  and  C8_10 
REMARK    3  A    between atoms: C8_10  and  C9_11 
REMARK    4  A    between atoms: C14_19  and  O3_20 
REMARK    5  A    between atoms: C19_25  and  O4_26 
ROOT
HETATM    1  C9  UNL     1      23.967   2.950  53.047  1.00  0.00     0.058 A 
HETATM    2  N2  UNL     1      23.805   1.688  52.863  1.00  0.00    -0.299 N 
HETATM    3  C10 UNL     1      22.576   1.218  52.361  1.00  0.00     0.212 C 
HETATM    4  N3  UNL     1      22.847   0.007  52.666  1.00  0.00    -0.258 NA
HETATM    5  C11 UNL     1      24.055  -0.465  53.301  1.00  0.00     0.325 C 
HETATM    6  O2  UNL     1      25.231  -0.193  52.588  1.00  0.00    -0.332 OA
HETATM    7  C12 UNL     1      26.464  -0.608  53.042  1.00  0.00     0.074 C 
HETATM    8  C13 UNL     1      26.639  -2.032  52.669  1.00  0.00     0.079 C 
HETATM    9  C14 UNL     1      27.513  -0.083  53.710  1.00  0.00     0.085 C 
HETATM   10  C16 UNL     1      27.429   1.373  54.136  1.00  0.00     0.154 C 
HETATM   11  C17 UNL     1      26.200   1.957  53.759  1.00  0.00    -0.117 C 
HETATM   12  C18 UNL     1      25.195   2.414  53.444  1.00  0.00     0.106 A 
ENDROOT
BRANCH   1  13
HETATM   13  C8  UNL     1      23.841   4.426  53.144  1.00  0.00     0.099 C 
BRANCH  13  14
HETATM   14  C7  UNL     1      23.043   5.037  52.076  1.00  0.00    -0.026 A 
HETATM   15  C6  UNL     1      21.771   4.934  51.758  1.00  0.00     0.009 A 
HETATM   16  C5  UNL     1      21.191   5.651  50.631  1.00  0.00     0.018 A 
HETATM   17  C4  UNL     1      21.919   6.447  49.865  1.00  0.00     0.097 A 
HETATM   18  N1  UNL     1      23.263   6.522  50.244  1.00  0.00    -0.297 N 
HETATM   19  C3  UNL     1      24.189   7.328  49.529  1.00  0.00     0.225 C 
HETATM   20  C19 UNL     1      23.981   5.894  51.308  1.00  0.00     0.258 A 
HETATM   21  O1  UNL     1      25.413   7.588  49.625  1.00  0.00    -0.273 OA
BRANCH  19  22
HETATM   22  C2  UNL     1      23.725   8.103  48.362  1.00  0.00     0.099 C 
HETATM   23  C1  UNL     1      24.384   7.663  47.084  1.00  0.00     0.014 C 
ENDBRANCH  19  22
BRANCH  20  24
HETATM   24  O4  UNL     1      24.409   6.886  52.198  1.00  0.00    -0.372 OA
HETATM   25  H23 UNL     1      25.398   6.911  52.268  1.00  0.00     0.212 HD
ENDBRANCH  20  24
ENDBRANCH  13  14
ENDBRANCH   1  13
BRANCH   9  26
HETATM   26  O3  UNL     1      28.660  -0.790  54.029  1.00  0.00    -0.357 OA
HETATM   27  C15 UNL     1      29.952  -0.469  53.526  1.00  0.00     0.209 C 
ENDBRANCH   9  26
TORSDOF 5
ENDMDL
MODEL 5
REMARK VINA RESULT:      -7.8      2.100      8.104
REMARK  5 active torsions:
REMARK  status: ('A' for Active; 'I' for Inactive)
REMARK    1  A    between atoms: C2_2  and  C3_3 
REMARK       I    between atoms: C3_3  and  N1_5 
REMARK    2  A    between atoms: C7_9  and  C8_10 
REMARK    3  A    between atoms: C8_10  and  C9_11 
REMARK    4  A    between atoms: C14_19  and  O3_20 
REMARK    5  A    between atoms: C19_25  and  O4_26 
ROOT
HETATM    1  C9  UNL     1      24.971   4.745  50.008  1.00  0.00     0.058 A 
HETATM    2  N2  UNL     1      24.901   5.993  50.304  1.00  0.00    -0.299 N 
HETATM    3  C10 UNL     1      23.891   6.438  51.179  1.00  0.00     0.212 C 
HETATM    4  N3  UNL     1      24.086   7.664  50.877  1.00  0.00    -0.258 NA
HETATM    5  C11 UNL     1      25.059   8.168  49.936  1.00  0.00     0.325 C 
HETATM    6  O2  UNL     1      26.388   7.846  50.245  1.00  0.00    -0.332 OA
HETATM    7  C12 UNL     1      27.437   8.283  49.466  1.00  0.00     0.074 C 
HETATM    8  C13 UNL     1      27.750   9.680  49.850  1.00  0.00     0.079 C 
HETATM    9  C14 UNL     1      28.224   7.795  48.484  1.00  0.00     0.085 C 
HETATM   10  C16 UNL     1      27.982   6.369  48.020  1.00  0.00     0.154 C 
HETATM   11  C17 UNL     1      26.909   5.768  48.715  1.00  0.00    -0.117 C 
HETATM   12  C18 UNL     1      26.035   5.298  49.291  1.00  0.00     0.106 A 
ENDROOT
BRANCH   1  13
HETATM   13  C8  UNL     1      24.787   3.278  49.869  1.00  0.00     0.099 C 
BRANCH  13  14
HETATM   14  C7  UNL     1      25.179   2.503  51.050  1.00  0.00    -0.026 A 
HETATM   15  C6  UNL     1      26.311   2.426  51.715  1.00  0.00     0.009 A 
HETATM   16  C5  UNL     1      26.470   1.569  52.883  1.00  0.00     0.018 A 
HETATM   17  C4  UNL     1      25.476   0.820  53.334  1.00  0.00     0.097 A 
HETATM   18  N1  UNL     1      24.297   0.938  52.593  1.00  0.00    -0.297 N 
HETATM   19  C3  UNL     1      23.132   0.201  52.935  1.00  0.00     0.225 C 
HETATM   20  C19 UNL     1      23.979   1.722  51.441  1.00  0.00     0.258 A 
HETATM   21  O1  UNL     1      21.967   0.100  52.478  1.00  0.00    -0.273 OA
BRANCH  19  22
HETATM   22  C2  UNL     1      23.163  -0.707  54.098  1.00  0.00     0.099 C 
HETATM   23  C1  UNL     1      21.829  -0.803  54.785  1.00  0.00     0.014 C 
ENDBRANCH  19  22
BRANCH  20  24
HETATM   24  O4  UNL     1      23.009   2.665  51.802  1.00  0.00    -0.372 OA
HETATM   25  H23 UNL     1      22.104   2.263  51.834  1.00  0.00     0.212 HD
ENDBRANCH  20  24
ENDBRANCH  13  14
ENDBRANCH   1  13
BRANCH   9  26
HETATM   26  O3  UNL     1      29.239   8.515  47.875  1.00  0.00    -0.357 OA
HETATM   27  C15 UNL     1      30.432   7.925  47.370  1.00  0.00     0.209 C 
ENDBRANCH   9  26
TORSDOF 5
ENDMDL
MODEL 6
REMARK VINA RESULT:      -7.7      3.264      7.569
REMARK  5 active torsions:
REMARK  status: ('A' for Active; 'I' for Inactive)
REMARK    1  A    between atoms: C2_2  and  C3_3 
REMARK       I    between atoms: C3_3  and  N1_5 
REMARK    2  A    between atoms: C7_9  and  C8_10 
REMARK    3  A    between atoms: C8_10  and  C9_11 
REMARK    4  A    between atoms: C14_19  and  O3_20 
REMARK    5  A    between atoms: C19_25  and  O4_26 
ROOT
HETATM    1  C9  UNL     1      24.021   3.698  51.544  1.00  0.00     0.058 A 
HETATM    2  N2  UNL     1      24.155   4.157  50.351  1.00  0.00    -0.299 N 
HETATM    3  C10 UNL     1      25.368   4.770  49.982  1.00  0.00     0.212 C 
HETATM    4  N3  UNL     1      24.862   5.268  48.920  1.00  0.00    -0.258 NA
HETATM    5  C11 UNL     1      23.497   5.116  48.471  1.00  0.00     0.325 C 
HETATM    6  O2  UNL     1      23.101   3.790  48.253  1.00  0.00    -0.332 OA
HETATM    7  C12 UNL     1      21.841   3.479  47.790  1.00  0.00     0.074 C 
HETATM    8  C13 UNL     1      21.831   3.659  46.318  1.00  0.00     0.079 C 
HETATM    9  C14 UNL     1      20.661   3.069  48.300  1.00  0.00     0.085 C 
HETATM   10  C16 UNL     1      20.570   2.855  49.802  1.00  0.00     0.154 C 
HETATM   11  C17 UNL     1      21.791   3.152  50.446  1.00  0.00    -0.117 C 
HETATM   12  C18 UNL     1      22.792   3.397  50.951  1.00  0.00     0.106 A 
ENDROOT
BRANCH   1  13
HETATM   13  C8  UNL     1      24.179   3.280  52.960  1.00  0.00     0.099 C 
BRANCH  13  14
HETATM   14  C7  UNL     1      24.688   1.916  53.136  1.00  0.00    -0.026 A 
HETATM   15  C6  UNL     1      24.126   0.739  52.970  1.00  0.00     0.009 A 
HETATM   16  C5  UNL     1      24.843  -0.506  53.212  1.00  0.00     0.018 A 
HETATM   17  C4  UNL     1      26.104  -0.514  53.613  1.00  0.00     0.097 A 
HETATM   18  N1  UNL     1      26.655   0.761  53.774  1.00  0.00    -0.297 N 
HETATM   19  C3  UNL     1      27.997   0.937  54.204  1.00  0.00     0.225 C 
HETATM   20  C19 UNL     1      26.097   2.062  53.581  1.00  0.00     0.258 A 
HETATM   21  O1  UNL     1      28.744   1.920  54.433  1.00  0.00    -0.273 OA
BRANCH  19  22
HETATM   22  C2  UNL     1      28.830  -0.247  54.486  1.00  0.00     0.099 C 
HETATM   23  C1  UNL     1      29.976  -0.383  53.521  1.00  0.00     0.014 C 
ENDBRANCH  19  22
BRANCH  20  24
HETATM   24  O4  UNL     1      26.772   2.679  52.522  1.00  0.00    -0.372 OA
HETATM   25  H23 UNL     1      26.147   3.169  51.927  1.00  0.00     0.212 HD
ENDBRANCH  20  24
ENDBRANCH  13  14
ENDBRANCH   1  13
BRANCH   9  26
HETATM   26  O3  UNL     1      19.528   2.832  47.539  1.00  0.00    -0.357 OA
HETATM   27  C15 UNL     1      18.204   3.095  47.990  1.00  0.00     0.209 C 
ENDBRANCH   9  26
TORSDOF 5
ENDMDL
MODEL 7
REMARK VINA RESULT:      -7.7      2.339      3.879
REMARK  5 active torsions:
REMARK  status: ('A' for Active; 'I' for Inactive)
REMARK    1  A    between atoms: C2_2  and  C3_3 
REMARK       I    between atoms: C3_3  and  N1_5 
REMARK    2  A    between atoms: C7_9  and  C8_10 
REMARK    3  A    between atoms: C8_10  and  C9_11 
REMARK    4  A    between atoms: C14_19  and  O3_20 
REMARK    5  A    between atoms: C19_25  and  O4_26 
ROOT
HETATM    1  C9  UNL     1      24.619   2.482  50.821  1.00  0.00     0.058 A 
HETATM    2  N2  UNL     1      24.601   1.884  51.959  1.00  0.00    -0.299 N 
HETATM    3  C10 UNL     1      25.720   1.984  52.808  1.00  0.00     0.212 C 
HETATM    4  N3  UNL     1      25.314   1.031  53.555  1.00  0.00    -0.258 NA
HETATM    5  C11 UNL     1      24.098   0.269  53.384  1.00  0.00     0.325 C 
HETATM    6  O2  UNL     1      22.923   1.033  53.412  1.00  0.00    -0.332 OA
HETATM    7  C12 UNL     1      21.680   0.451  53.297  1.00  0.00     0.074 C 
HETATM    8  C13 UNL     1      21.293  -0.081  54.626  1.00  0.00     0.079 C 
HETATM    9  C14 UNL     1      20.757   0.246  52.335  1.00  0.00     0.085 C 
HETATM   10  C16 UNL     1      21.060   0.756  50.936  1.00  0.00     0.154 C 
HETATM   11  C17 UNL     1      22.328   1.375  50.870  1.00  0.00    -0.117 C 
HETATM   12  C18 UNL     1      23.361   1.874  50.837  1.00  0.00     0.106 A 
ENDROOT
BRANCH   1  13
HETATM   13  C8  UNL     1      24.946   3.269  49.606  1.00  0.00     0.099 C 
BRANCH  13  14
HETATM   14  C7  UNL     1      25.148   4.701  49.847  1.00  0.00    -0.026 A 
HETATM   15  C6  UNL     1      24.476   5.577  50.562  1.00  0.00     0.009 A 
HETATM   16  C5  UNL     1      24.876   6.975  50.654  1.00  0.00     0.018 A 
HETATM   17  C4  UNL     1      25.941   7.436  50.019  1.00  0.00     0.097 A 
HETATM   18  N1  UNL     1      26.620   6.467  49.274  1.00  0.00    -0.297 N 
HETATM   19  C3  UNL     1      27.783   6.790  48.527  1.00  0.00     0.225 C 
HETATM   20  C19 UNL     1      26.365   5.074  49.082  1.00  0.00     0.258 A 
HETATM   21  O1  UNL     1      28.579   6.159  47.788  1.00  0.00    -0.273 OA
BRANCH  19  22
HETATM   22  C2  UNL     1      28.289   8.176  48.535  1.00  0.00     0.099 C 
HETATM   23  C1  UNL     1      28.078   8.870  47.218  1.00  0.00     0.014 C 
ENDBRANCH  19  22
BRANCH  20  24
HETATM   24  O4  UNL     1      27.416   4.350  49.657  1.00  0.00    -0.372 OA
HETATM   25  H23 UNL     1      27.464   4.491  50.637  1.00  0.00     0.212 HD
ENDBRANCH  20  24
ENDBRANCH  13  14
ENDBRANCH   1  13
BRANCH   9  26
HETATM   26  O3  UNL     1      19.550  -0.402  52.544  1.00  0.00    -0.357 OA
HETATM   27  C15 UNL     1      18.374  -0.143  51.787  1.00  0.00     0.209 C 
ENDBRANCH   9  26
TORSDOF 5
ENDMDL
MODEL 8
REMARK VINA RESULT:      -7.6      2.408      3.036
REMARK  5 active torsions:
REMARK  status: ('A' for Active; 'I' for Inactive)
REMARK    1  A    between atoms: C2_2  and  C3_3 
REMARK       I    between atoms: C3_3  and  N1_5 
REMARK    2  A    between atoms: C7_9  and  C8_10 
REMARK    3  A    between atoms: C8_10  and  C9_11 
REMARK    4  A    between atoms: C14_19  and  O3_20 
REMARK    5  A    between atoms: C19_25  and  O4_26 
ROOT
HETATM    1  C9  UNL     1      23.704   2.779  50.202  1.00  0.00     0.058 A 
HETATM    2  N2  UNL     1      22.469   2.739  50.557  1.00  0.00    -0.299 N 
HETATM    3  C10 UNL     1      21.516   3.466  49.818  1.00  0.00     0.212 C 
HETATM    4  N3  UNL     1      20.625   3.333  50.723  1.00  0.00    -0.258 NA
HETATM    5  C11 UNL     1      20.780   2.638  51.980  1.00  0.00     0.325 C 
HETATM    6  O2  UNL     1      21.115   1.283  51.858  1.00  0.00    -0.332 OA
HETATM    7  C12 UNL     1      21.264   0.473  52.962  1.00  0.00     0.074 C 
HETATM    8  C13 UNL     1      19.917   0.038  53.403  1.00  0.00     0.079 C 
HETATM    9  C14 UNL     1      22.271  -0.011  53.720  1.00  0.00     0.085 C 
HETATM   10  C16 UNL     1      23.691   0.379  53.348  1.00  0.00     0.154 C 
HETATM   11  C17 UNL     1      23.721   1.238  52.227  1.00  0.00    -0.117 C 
HETATM   12  C18 UNL     1      23.724   1.935  51.316  1.00  0.00     0.106 A 
ENDROOT
BRANCH   1  13
HETATM   13  C8  UNL     1      25.015   3.026  49.550  1.00  0.00     0.099 C 
BRANCH  13  14
HETATM   14  C7  UNL     1      25.299   4.438  49.278  1.00  0.00    -0.026 A 
HETATM   15  C6  UNL     1      24.536   5.509  49.293  1.00  0.00     0.009 A 
HETATM   16  C5  UNL     1      25.051   6.835  48.982  1.00  0.00     0.018 A 
HETATM   17  C4  UNL     1      26.321   7.030  48.667  1.00  0.00     0.097 A 
HETATM   18  N1  UNL     1      27.090   5.862  48.665  1.00  0.00    -0.297 N 
HETATM   19  C3  UNL     1      28.473   5.888  48.345  1.00  0.00     0.225 C 
HETATM   20  C19 UNL     1      26.744   4.504  48.944  1.00  0.00     0.258 A 
HETATM   21  O1  UNL     1      29.391   5.036  48.262  1.00  0.00    -0.273 OA
BRANCH  19  22
HETATM   22  C2  UNL     1      29.116   7.173  48.008  1.00  0.00     0.099 C 
HETATM   23  C1  UNL     1      30.264   7.004  47.051  1.00  0.00     0.014 C 
ENDBRANCH  19  22
BRANCH  20  24
HETATM   24  O4  UNL     1      27.424   4.104  50.101  1.00  0.00    -0.372 OA
HETATM   25  H23 UNL     1      26.808   3.698  50.764  1.00  0.00     0.212 HD
ENDBRANCH  20  24
ENDBRANCH  13  14
ENDBRANCH   1  13
BRANCH   9  26
HETATM   26  O3  UNL     1      22.088  -0.840  54.815  1.00  0.00    -0.357 OA
HETATM   27  C15 UNL     1      23.154  -1.482  55.505  1.00  0.00     0.209 C 
ENDBRANCH   9  26
TORSDOF 5
ENDMDL
MODEL 9
REMARK VINA RESULT:      -7.5      2.103      3.594
REMARK  5 active torsions:
REMARK  status: ('A' for Active; 'I' for Inactive)
REMARK    1  A    between atoms: C2_2  and  C3_3 
REMARK       I    between atoms: C3_3  and  N1_5 
REMARK    2  A    between atoms: C7_9  and  C8_10 
REMARK    3  A    between atoms: C8_10  and  C9_11 
REMARK    4  A    between atoms: C14_19  and  O3_20 
REMARK    5  A    between atoms: C19_25  and  O4_26 
ROOT
HETATM    1  C9  UNL     1      25.245   3.340  50.427  1.00  0.00     0.058 A 
HETATM    2  N2  UNL     1      25.683   2.457  51.252  1.00  0.00    -0.299 N 
HETATM    3  C10 UNL     1      27.039   2.481  51.630  1.00  0.00     0.212 C 
HETATM    4  N3  UNL     1      26.979   1.312  52.141  1.00  0.00    -0.258 NA
HETATM    5  C11 UNL     1      25.814   0.459  52.189  1.00  0.00     0.325 C 
HETATM    6  O2  UNL     1      24.719   1.008  52.870  1.00  0.00    -0.332 OA
HETATM    7  C12 UNL     1      23.545   0.306  53.035  1.00  0.00     0.074 C 
HETATM    8  C13 UNL     1      23.715  -0.620  54.180  1.00  0.00     0.079 C 
HETATM    9  C14 UNL     1      22.329   0.241  52.453  1.00  0.00     0.085 C 
HETATM   10  C16 UNL     1      22.056   1.153  51.269  1.00  0.00     0.154 C 
HETATM   11  C17 UNL     1      23.182   1.943  50.948  1.00  0.00    -0.117 C 
HETATM   12  C18 UNL     1      24.107   2.576  50.704  1.00  0.00     0.106 A 
ENDROOT
BRANCH   1  13
HETATM   13  C8  UNL     1      25.055   4.469  49.481  1.00  0.00     0.099 C 
BRANCH  13  14
HETATM   14  C7  UNL     1      26.292   5.165  49.114  1.00  0.00    -0.026 A 
HETATM   15  C6  UNL     1      27.440   4.731  48.642  1.00  0.00     0.009 A 
HETATM   16  C5  UNL     1      28.549   5.628  48.346  1.00  0.00     0.018 A 
HETATM   17  C4  UNL     1      28.455   6.934  48.538  1.00  0.00     0.097 A 
HETATM   18  N1  UNL     1      27.216   7.345  49.040  1.00  0.00    -0.297 N 
HETATM   19  C3  UNL     1      26.944   8.712  49.309  1.00  0.00     0.225 C 
HETATM   20  C19 UNL     1      26.042   6.604  49.378  1.00  0.00     0.258 A 
HETATM   21  O1  UNL     1      25.964   9.363  49.747  1.00  0.00    -0.273 OA
BRANCH  19  22
HETATM   22  C2  UNL     1      27.988   9.724  49.054  1.00  0.00     0.099 C 
HETATM   23  C1  UNL     1      27.647  10.617  47.894  1.00  0.00     0.014 C 
ENDBRANCH  19  22
BRANCH  20  24
HETATM   24  O4  UNL     1      25.015   6.982  48.504  1.00  0.00    -0.372 OA
HETATM   25  H23 UNL     1      25.176   7.881  48.119  1.00  0.00     0.212 HD
ENDBRANCH  20  24
ENDBRANCH  13  14
ENDBRANCH   1  13
BRANCH   9  26
HETATM   26  O3  UNL     1      21.315  -0.606  52.870  1.00  0.00    -0.357 OA
HETATM   27  C15 UNL     1      19.968  -0.189  53.064  1.00  0.00     0.209 C 
ENDBRANCH   9  26
TORSDOF 5
ENDMDL
