MODEL 1
REMARK VINA RESULT:      -8.3      0.000      0.000
REMARK  8 active torsions:
REMARK  status: ('A' for Active; 'I' for Inactive)
REMARK    1  A    between atoms: C2_2  and  O1_3 
REMARK    2  A    between atoms: O1_3  and  C3_4 
REMARK    3  A    between atoms: C3_4  and  C4_5 
REMARK    4  A    between atoms: C4_5  and  C5_6 
REMARK    5  A    between atoms: C5_6  and  O2_7 
REMARK    6  A    between atoms: O2_7  and  C6_8 
REMARK    7  A    between atoms: C10_14  and  N3_15 
REMARK    8  A    between atoms: N3_15  and  C11_16 
ROOT
HETATM    1  C6  UNL     1      20.103   0.546  52.348  1.00  0.00     0.107 A 
HETATM    2  C7  UNL     1      20.341  -0.192  53.488  1.00  0.00     0.072 A 
HETATM    3  C8  UNL     1      21.615  -0.466  53.930  1.00  0.00     0.077 A 
HETATM    4  N1  UNL     1      21.758  -1.207  55.060  1.00  0.00    -0.241 NA
HETATM    5  C9  UNL     1      23.029  -1.476  55.480  1.00  0.00     0.236 A 
HETATM    6  N2  UNL     1      24.159  -1.044  54.836  1.00  0.00    -0.223 NA
HETATM    7  C10 UNL     1      23.983  -0.308  53.715  1.00  0.00     0.144 A 
HETATM    8  C17 UNL     1      22.723  -0.006  53.241  1.00  0.00     0.075 A 
HETATM    9  C18 UNL     1      22.473   0.730  52.109  1.00  0.00     0.121 A 
HETATM   10  C19 UNL     1      21.199   1.023  51.636  1.00  0.00     0.136 A 
HETATM   11  O3  UNL     1      21.252   1.782  50.471  1.00  0.00    -0.344 OA
HETATM   12  C20 UNL     1      22.140   2.886  50.342  1.00  0.00     0.202 C 
HETATM   13  C21 UNL     1      23.518   2.559  50.841  1.00  0.00     0.202 C 
HETATM   14  O4  UNL     1      23.566   1.222  51.375  1.00  0.00    -0.345 OA
ENDROOT
BRANCH   7  15
HETATM   15  N3  UNL     1      25.086   0.180  52.966  1.00  0.00    -0.340 N 
HETATM   16  H14 UNL     1      24.725   0.794  52.194  1.00  0.00     0.167 HD
BRANCH  15  17
HETATM   17  C11 UNL     1      26.469  -0.047  53.133  1.00  0.00     0.035 A 
HETATM   18  C12 UNL     1      27.057  -1.249  52.798  1.00  0.00     0.032 A 
HETATM   19  C13 UNL     1      28.413  -1.393  53.011  1.00  0.00     0.046 A 
HETATM   20  C14 UNL     1      29.127  -0.341  53.547  1.00  0.00     0.138 A 
HETATM   21  F1  UNL     1      30.477  -0.495  53.755  1.00  0.00    -0.204 F 
HETATM   22  C15 UNL     1      28.528   0.870  53.884  1.00  0.00     0.074 A 
HETATM   23 CL1  UNL     1      29.432   2.206  54.566  1.00  0.00    -0.081 Cl
HETATM   24  C16 UNL     1      27.154   1.031  53.672  1.00  0.00     0.056 A 
ENDBRANCH  15  17
ENDBRANCH   7  15
BRANCH   1  25
HETATM   25  O2  UNL     1      18.892   0.903  51.774  1.00  0.00    -0.348 OA
BRANCH  25  26
HETATM   26  C5  UNL     1      18.194  -0.106  51.060  1.00  0.00     0.178 C 
BRANCH  26  27
HETATM   27  C4  UNL     1      16.798  -0.223  51.527  1.00  0.00     0.053 C 
BRANCH  27  28
HETATM   28  C3  UNL     1      16.618  -0.850  52.846  1.00  0.00     0.169 C 
BRANCH  28  29
HETATM   29  O1  UNL     1      16.614  -2.157  52.981  1.00  0.00    -0.391 OA
BRANCH  29  30
HETATM   30  C2  UNL     1      17.544  -2.943  53.532  1.00  0.00     0.163 C 
HETATM   31  C1  UNL     1      16.970  -4.403  53.527  1.00  0.00     0.033 C 
ENDBRANCH  29  30
ENDBRANCH  28  29
ENDBRANCH  27  28
ENDBRANCH  26  27
ENDBRANCH  25  26
ENDBRANCH   1  25
TORSDOF 8
ENDMDL
MODEL 2
REMARK VINA RESULT:      -8.0      1.829      3.260
REMARK  8 active torsions:
REMARK  status: ('A' for Active; 'I' for Inactive)
REMARK    1  A    between atoms: C2_2  and  O1_3 
REMARK    2  A    between atoms: O1_3  and  C3_4 
REMARK    3  A    between atoms: C3_4  and  C4_5 
REMARK    4  A    between atoms: C4_5  and  C5_6 
REMARK    5  A    between atoms: C5_6  and  O2_7 
REMARK    6  A    between atoms: O2_7  and  C6_8 
REMARK    7  A    between atoms: C10_14  and  N3_15 
REMARK    8  A    between atoms: N3_15  and  C11_16 
ROOT
HETATM    1  C6  UNL     1      20.459   0.399  51.351  1.00  0.00     0.107 A 
HETATM    2  C7  UNL     1      21.067   1.169  50.383  1.00  0.00     0.072 A 
HETATM    3  C8  UNL     1      22.344   1.658  50.531  1.00  0.00     0.077 A 
HETATM    4  N1  UNL     1      22.863   2.415  49.529  1.00  0.00    -0.241 NA
HETATM    5  C9  UNL     1      24.129   2.898  49.695  1.00  0.00     0.236 A 
HETATM    6  N2  UNL     1      24.901   2.665  50.803  1.00  0.00    -0.223 NA
HETATM    7  C10 UNL     1      24.357   1.907  51.782  1.00  0.00     0.144 A 
HETATM    8  C17 UNL     1      23.082   1.393  51.671  1.00  0.00     0.075 A 
HETATM    9  C18 UNL     1      22.467   0.623  52.628  1.00  0.00     0.121 A 
HETATM   10  C19 UNL     1      21.178   0.115  52.509  1.00  0.00     0.136 A 
HETATM   11  O3  UNL     1      20.819  -0.626  53.631  1.00  0.00    -0.344 OA
HETATM   12  C20 UNL     1      21.712  -1.562  54.222  1.00  0.00     0.202 C 
HETATM   13  C21 UNL     1      23.099  -1.003  54.361  1.00  0.00     0.202 C 
HETATM   14  O4  UNL     1      23.175   0.324  53.804  1.00  0.00    -0.345 OA
ENDROOT
BRANCH   7  15
HETATM   15  N3  UNL     1      25.067   1.614  52.977  1.00  0.00    -0.340 N 
HETATM   16  H14 UNL     1      24.444   1.818  53.798  1.00  0.00     0.167 HD
BRANCH  15  17
HETATM   17  C11 UNL     1      26.379   1.127  53.157  1.00  0.00     0.035 A 
HETATM   18  C12 UNL     1      27.424   1.958  53.505  1.00  0.00     0.032 A 
HETATM   19  C13 UNL     1      28.680   1.402  53.644  1.00  0.00     0.046 A 
HETATM   20  C14 UNL     1      28.845   0.049  53.431  1.00  0.00     0.138 A 
HETATM   21  F1  UNL     1      30.100  -0.494  53.571  1.00  0.00    -0.204 F 
HETATM   22  C15 UNL     1      27.787  -0.785  53.079  1.00  0.00     0.074 A 
HETATM   23 CL1  UNL     1      27.996  -2.502  52.807  1.00  0.00    -0.081 Cl
HETATM   24  C16 UNL     1      26.508  -0.235  52.936  1.00  0.00     0.056 A 
ENDBRANCH  15  17
ENDBRANCH   7  15
BRANCH   1  25
HETATM   25  O2  UNL     1      19.191  -0.161  51.356  1.00  0.00    -0.348 OA
BRANCH  25  26
HETATM   26  C5  UNL     1      18.118   0.672  51.767  1.00  0.00     0.178 C 
BRANCH  26  27
HETATM   27  C4  UNL     1      16.813   0.043  51.483  1.00  0.00     0.053 C 
BRANCH  27  28
HETATM   28  C3  UNL     1      16.595  -1.278  52.094  1.00  0.00     0.169 C 
BRANCH  28  29
HETATM   29  O1  UNL     1      17.071  -1.561  53.285  1.00  0.00    -0.391 OA
BRANCH  29  30
HETATM   30  C2  UNL     1      17.878  -2.564  53.647  1.00  0.00     0.163 C 
HETATM   31  C1  UNL     1      17.024  -3.878  53.600  1.00  0.00     0.033 C 
ENDBRANCH  29  30
ENDBRANCH  28  29
ENDBRANCH  27  28
ENDBRANCH  26  27
ENDBRANCH  25  26
ENDBRANCH   1  25
TORSDOF 8
ENDMDL
MODEL 3
REMARK VINA RESULT:      -8.0      2.383      2.810
REMARK  8 active torsions:
REMARK  status: ('A' for Active; 'I' for Inactive)
REMARK    1  A    between atoms: C2_2  and  O1_3 
REMARK    2  A    between atoms: O1_3  and  C3_4 
REMARK    3  A    between atoms: C3_4  and  C4_5 
REMARK    4  A    between atoms: C4_5  and  C5_6 
REMARK    5  A    between atoms: C5_6  and  O2_7 
REMARK    6  A    between atoms: O2_7  and  C6_8 
REMARK    7  A    between atoms: C10_14  and  N3_15 
REMARK    8  A    between atoms: N3_15  and  C11_16 
ROOT
HETATM    1  C6  UNL     1      20.415   2.297  52.684  1.00  0.00     0.107 A 
HETATM    2  C7  UNL     1      20.440   1.214  53.538  1.00  0.00     0.072 A 
HETATM    3  C8  UNL     1      21.590   0.501  53.781  1.00  0.00     0.077 A 
HETATM    4  N1  UNL     1      21.523  -0.557  54.632  1.00  0.00    -0.241 NA
HETATM    5  C9  UNL     1      22.673  -1.258  54.857  1.00  0.00     0.236 A 
HETATM    6  N2  UNL     1      23.880  -0.960  54.282  1.00  0.00    -0.223 NA
HETATM    7  C10 UNL     1      23.914   0.100  53.441  1.00  0.00     0.144 A 
HETATM    8  C17 UNL     1      22.785   0.845  53.174  1.00  0.00     0.075 A 
HETATM    9  C18 UNL     1      22.748   1.927  52.328  1.00  0.00     0.121 A 
HETATM   10  C19 UNL     1      21.602   2.667  52.060  1.00  0.00     0.136 A 
HETATM   11  O3  UNL     1      21.863   3.701  51.167  1.00  0.00    -0.344 OA
HETATM   12  C20 UNL     1      23.015   4.524  51.297  1.00  0.00     0.202 C 
HETATM   13  C21 UNL     1      24.253   3.718  51.572  1.00  0.00     0.202 C 
HETATM   14  O4  UNL     1      23.936   2.317  51.687  1.00  0.00    -0.345 OA
ENDROOT
BRANCH   7  15
HETATM   15  N3  UNL     1      25.112   0.488  52.784  1.00  0.00    -0.340 N 
HETATM   16  H14 UNL     1      24.871   1.155  52.008  1.00  0.00     0.167 HD
BRANCH  15  17
HETATM   17  C11 UNL     1      26.450   0.117  53.038  1.00  0.00     0.035 A 
HETATM   18  C12 UNL     1      26.917  -1.153  52.771  1.00  0.00     0.032 A 
HETATM   19  C13 UNL     1      28.235  -1.438  53.066  1.00  0.00     0.046 A 
HETATM   20  C14 UNL     1      29.031  -0.454  53.615  1.00  0.00     0.138 A 
HETATM   21  F1  UNL     1      30.341  -0.749  53.907  1.00  0.00    -0.204 F 
HETATM   22  C15 UNL     1      28.553   0.826  53.884  1.00  0.00     0.074 A 
HETATM   23 CL1  UNL     1      29.561   2.076  54.583  1.00  0.00    -0.081 Cl
HETATM   24  C16 UNL     1      27.219   1.130  53.588  1.00  0.00     0.056 A 
ENDBRANCH  15  17
ENDBRANCH   7  15
BRANCH   1  25
HETATM   25  O2  UNL     1      19.347   3.110  52.334  1.00  0.00    -0.348 OA
BRANCH  25  26
HETATM   26  C5  UNL     1      18.641   2.774  51.150  1.00  0.00     0.178 C 
BRANCH  26  27
HETATM   27  C4  UNL     1      17.901   3.937  50.620  1.00  0.00     0.053 C 
BRANCH  27  28
HETATM   28  C3  UNL     1      16.527   4.101  51.123  1.00  0.00     0.169 C 
BRANCH  28  29
HETATM   29  O1  UNL     1      16.288   4.254  52.405  1.00  0.00    -0.391 OA
BRANCH  29  30
HETATM   30  C2  UNL     1      15.164   3.999  53.083  1.00  0.00     0.163 C 
HETATM   31  C1  UNL     1      14.725   2.540  52.709  1.00  0.00     0.033 C 
ENDBRANCH  29  30
ENDBRANCH  28  29
ENDBRANCH  27  28
ENDBRANCH  26  27
ENDBRANCH  25  26
ENDBRANCH   1  25
TORSDOF 8
ENDMDL
MODEL 4
REMARK VINA RESULT:      -7.9      2.997      4.530
REMARK  8 active torsions:
REMARK  status: ('A' for Active; 'I' for Inactive)
REMARK    1  A    between atoms: C2_2  and  O1_3 
REMARK    2  A    between atoms: O1_3  and  C3_4 
REMARK    3  A    between atoms: C3_4  and  C4_5 
REMARK    4  A    between atoms: C4_5  and  C5_6 
REMARK    5  A    between atoms: C5_6  and  O2_7 
REMARK    6  A    between atoms: O2_7  and  C6_8 
REMARK    7  A    between atoms: C10_14  and  N3_15 
REMARK    8  A    between atoms: N3_15  and  C11_16 
ROOT
HETATM    1  C6  UNL     1      21.961   2.132  50.350  1.00  0.00     0.107 A 
HETATM    2  C7  UNL     1      22.939   2.783  49.629  1.00  0.00     0.072 A 
HETATM    3  C8  UNL     1      24.244   2.846  50.056  1.00  0.00     0.077 A 
HETATM    4  N1  UNL     1      25.142   3.514  49.286  1.00  0.00    -0.241 NA
HETATM    5  C9  UNL     1      26.433   3.573  49.729  1.00  0.00     0.236 A 
HETATM    6  N2  UNL     1      26.872   3.001  50.894  1.00  0.00    -0.223 NA
HETATM    7  C10 UNL     1      25.954   2.341  51.638  1.00  0.00     0.144 A 
HETATM    8  C17 UNL     1      24.636   2.250  51.243  1.00  0.00     0.075 A 
HETATM    9  C18 UNL     1      23.654   1.603  51.952  1.00  0.00     0.121 A 
HETATM   10  C19 UNL     1      22.326   1.523  51.547  1.00  0.00     0.136 A 
HETATM   11  O3  UNL     1      21.559   0.808  52.462  1.00  0.00    -0.344 OA
HETATM   12  C20 UNL     1      22.022  -0.411  53.030  1.00  0.00     0.202 C 
HETATM   13  C21 UNL     1      23.452  -0.314  53.478  1.00  0.00     0.202 C 
HETATM   14  O4  UNL     1      24.001   0.980  53.162  1.00  0.00    -0.345 OA
ENDROOT
BRANCH   7  15
HETATM   15  N3  UNL     1      26.302   1.721  52.868  1.00  0.00    -0.340 N 
HETATM   16  H14 UNL     1      25.531   1.892  53.561  1.00  0.00     0.167 HD
BRANCH  15  17
HETATM   17  C11 UNL     1      27.448   0.977  53.217  1.00  0.00     0.035 A 
HETATM   18  C12 UNL     1      28.561   1.570  53.777  1.00  0.00     0.032 A 
HETATM   19  C13 UNL     1      29.646   0.771  54.072  1.00  0.00     0.046 A 
HETATM   20  C14 UNL     1      29.583  -0.581  53.800  1.00  0.00     0.138 A 
HETATM   21  F1  UNL     1      30.670  -1.367  54.098  1.00  0.00    -0.204 F 
HETATM   22  C15 UNL     1      28.457  -1.174  53.234  1.00  0.00     0.074 A 
HETATM   23 CL1  UNL     1      28.376  -2.888  52.886  1.00  0.00    -0.081 Cl
HETATM   24  C16 UNL     1      27.349  -0.376  52.931  1.00  0.00     0.056 A 
ENDBRANCH  15  17
ENDBRANCH   7  15
BRANCH   1  25
HETATM   25  O2  UNL     1      20.613   1.984  50.061  1.00  0.00    -0.348 OA
BRANCH  25  26
HETATM   26  C5  UNL     1      19.857   3.170  49.877  1.00  0.00     0.178 C 
BRANCH  26  27
HETATM   27  C4  UNL     1      19.302   3.655  51.157  1.00  0.00     0.053 C 
BRANCH  27  28
HETATM   28  C3  UNL     1      17.874   4.009  51.140  1.00  0.00     0.169 C 
BRANCH  28  29
HETATM   29  O1  UNL     1      17.078   3.667  52.127  1.00  0.00    -0.391 OA
BRANCH  29  30
HETATM   30  C2  UNL     1      15.770   3.391  52.089  1.00  0.00     0.163 C 
HETATM   31  C1  UNL     1      15.094   4.217  53.239  1.00  0.00     0.033 C 
ENDBRANCH  29  30
ENDBRANCH  28  29
ENDBRANCH  27  28
ENDBRANCH  26  27
ENDBRANCH  25  26
ENDBRANCH   1  25
TORSDOF 8
ENDMDL
MODEL 5
REMARK VINA RESULT:      -7.7      1.570      2.530
REMARK  8 active torsions:
REMARK  status: ('A' for Active; 'I' for Inactive)
REMARK    1  A    between atoms: C2_2  and  O1_3 
REMARK    2  A    between atoms: O1_3  and  C3_4 
REMARK    3  A    between atoms: C3_4  and  C4_5 
REMARK    4  A    between atoms: C4_5  and  C5_6 
REMARK    5  A    between atoms: C5_6  and  O2_7 
REMARK    6  A    between atoms: O2_7  and  C6_8 
REMARK    7  A    between atoms: C10_14  and  N3_15 
REMARK    8  A    between atoms: N3_15  and  C11_16 
ROOT
HETATM    1  C6  UNL     1      20.104   0.342  52.382  1.00  0.00     0.107 A 
HETATM    2  C7  UNL     1      20.422  -0.356  53.528  1.00  0.00     0.072 A 
HETATM    3  C8  UNL     1      21.722  -0.528  53.942  1.00  0.00     0.077 A 
HETATM    4  N1  UNL     1      21.946  -1.236  55.080  1.00  0.00    -0.241 NA
HETATM    5  C9  UNL     1      23.243  -1.404  55.473  1.00  0.00     0.236 A 
HETATM    6  N2  UNL     1      24.323  -0.904  54.793  1.00  0.00    -0.223 NA
HETATM    7  C10 UNL     1      24.067  -0.204  53.664  1.00  0.00     0.144 A 
HETATM    8  C17 UNL     1      22.778  -0.003  53.217  1.00  0.00     0.075 A 
HETATM    9  C18 UNL     1      22.448   0.692  52.079  1.00  0.00     0.121 A 
HETATM   10  C19 UNL     1      21.145   0.882  51.633  1.00  0.00     0.136 A 
HETATM   11  O3  UNL     1      21.115   1.621  50.455  1.00  0.00    -0.344 OA
HETATM   12  C20 UNL     1      21.916   2.783  50.284  1.00  0.00     0.202 C 
HETATM   13  C21 UNL     1      23.326   2.566  50.753  1.00  0.00     0.202 C 
HETATM   14  O4  UNL     1      23.484   1.247  51.309  1.00  0.00    -0.345 OA
ENDROOT
BRANCH   7  15
HETATM   15  N3  UNL     1      25.114   0.347  52.879  1.00  0.00    -0.340 N 
HETATM   16  H14 UNL     1      24.693   0.818  52.039  1.00  0.00     0.167 HD
BRANCH  15  17
HETATM   17  C11 UNL     1      26.509   0.334  53.087  1.00  0.00     0.035 A 
HETATM   18  C12 UNL     1      27.230   1.496  53.271  1.00  0.00     0.032 A 
HETATM   19  C13 UNL     1      28.595   1.394  53.451  1.00  0.00     0.046 A 
HETATM   20  C14 UNL     1      29.186   0.146  53.440  1.00  0.00     0.138 A 
HETATM   21  F1  UNL     1      30.545   0.057  53.619  1.00  0.00    -0.204 F 
HETATM   22  C15 UNL     1      28.453  -1.023  53.252  1.00  0.00     0.074 A 
HETATM   23 CL1  UNL     1      29.201  -2.606  53.235  1.00  0.00    -0.081 Cl
HETATM   24  C16 UNL     1      27.068  -0.934  53.070  1.00  0.00     0.056 A 
ENDBRANCH  15  17
ENDBRANCH   7  15
BRANCH   1  25
HETATM   25  O2  UNL     1      18.856   0.599  51.832  1.00  0.00    -0.348 OA
BRANCH  25  26
HETATM   26  C5  UNL     1      17.906  -0.455  51.866  1.00  0.00     0.178 C 
BRANCH  26  27
HETATM   27  C4  UNL     1      16.910  -0.310  50.785  1.00  0.00     0.053 C 
BRANCH  27  28
HETATM   28  C3  UNL     1      17.185   0.750  49.802  1.00  0.00     0.169 C 
BRANCH  28  29
HETATM   29  O1  UNL     1      16.584   1.916  49.876  1.00  0.00    -0.391 OA
BRANCH  29  30
HETATM   30  C2  UNL     1      15.647   2.320  50.740  1.00  0.00     0.163 C 
HETATM   31  C1  UNL     1      16.346   3.299  51.748  1.00  0.00     0.033 C 
ENDBRANCH  29  30
ENDBRANCH  28  29
ENDBRANCH  27  28
ENDBRANCH  26  27
ENDBRANCH  25  26
ENDBRANCH   1  25
TORSDOF 8
ENDMDL
MODEL 6
REMARK VINA RESULT:      -7.7      3.668      5.360
REMARK  8 active torsions:
REMARK  status: ('A' for Active; 'I' for Inactive)
REMARK    1  A    between atoms: C2_2  and  O1_3 
REMARK    2  A    between atoms: O1_3  and  C3_4 
REMARK    3  A    between atoms: C3_4  and  C4_5 
REMARK    4  A    between atoms: C4_5  and  C5_6 
REMARK    5  A    between atoms: C5_6  and  O2_7 
REMARK    6  A    between atoms: O2_7  and  C6_8 
REMARK    7  A    between atoms: C10_14  and  N3_15 
REMARK    8  A    between atoms: N3_15  and  C11_16 
ROOT
HETATM    1  C6  UNL     1      23.483  -0.161  53.214  1.00  0.00     0.107 A 
HETATM    2  C7  UNL     1      24.771   0.017  53.675  1.00  0.00     0.072 A 
HETATM    3  C8  UNL     1      25.655   0.873  53.061  1.00  0.00     0.077 A 
HETATM    4  N1  UNL     1      26.907   0.982  53.577  1.00  0.00    -0.241 NA
HETATM    5  C9  UNL     1      27.775   1.831  52.952  1.00  0.00     0.236 A 
HETATM    6  N2  UNL     1      27.460   2.573  51.844  1.00  0.00    -0.223 NA
HETATM    7  C10 UNL     1      26.205   2.443  51.355  1.00  0.00     0.144 A 
HETATM    8  C17 UNL     1      25.286   1.601  51.943  1.00  0.00     0.075 A 
HETATM    9  C18 UNL     1      24.000   1.417  51.495  1.00  0.00     0.121 A 
HETATM   10  C19 UNL     1      23.083   0.559  52.093  1.00  0.00     0.136 A 
HETATM   11  O3  UNL     1      21.863   0.576  51.424  1.00  0.00    -0.344 OA
HETATM   12  C20 UNL     1      21.263   1.794  51.001  1.00  0.00     0.202 C 
HETATM   13  C21 UNL     1      22.255   2.710  50.344  1.00  0.00     0.202 C 
HETATM   14  O4  UNL     1      23.575   2.134  50.365  1.00  0.00    -0.345 OA
ENDROOT
BRANCH   7  15
HETATM   15  N3  UNL     1      25.779   3.159  50.204  1.00  0.00    -0.340 N 
HETATM   16  H14 UNL     1      25.051   2.590  49.704  1.00  0.00     0.167 HD
BRANCH  15  17
HETATM   17  C11 UNL     1      26.183   4.421  49.718  1.00  0.00     0.035 A 
HETATM   18  C12 UNL     1      27.262   4.564  48.871  1.00  0.00     0.032 A 
HETATM   19  C13 UNL     1      27.600   5.836  48.457  1.00  0.00     0.046 A 
HETATM   20  C14 UNL     1      26.856   6.910  48.900  1.00  0.00     0.138 A 
HETATM   21  F1  UNL     1      27.202   8.173  48.481  1.00  0.00    -0.204 F 
HETATM   22  C15 UNL     1      25.768   6.759  49.755  1.00  0.00     0.074 A 
HETATM   23 CL1  UNL     1      24.823   8.121  50.321  1.00  0.00    -0.081 Cl
HETATM   24  C16 UNL     1      25.413   5.475  50.183  1.00  0.00     0.056 A 
ENDBRANCH  15  17
ENDBRANCH   7  15
BRANCH   1  25
HETATM   25  O2  UNL     1      22.481  -0.979  53.713  1.00  0.00    -0.348 OA
BRANCH  25  26
HETATM   26  C5  UNL     1      21.734  -0.488  54.815  1.00  0.00     0.178 C 
BRANCH  26  27
HETATM   27  C4  UNL     1      20.434   0.061  54.378  1.00  0.00     0.053 C 
BRANCH  27  28
HETATM   28  C3  UNL     1      19.571  -0.866  53.627  1.00  0.00     0.169 C 
BRANCH  28  29
HETATM   29  O1  UNL     1      18.968  -0.487  52.524  1.00  0.00    -0.391 OA
BRANCH  29  30
HETATM   30  C2  UNL     1      17.659  -0.443  52.259  1.00  0.00     0.163 C 
HETATM   31  C1  UNL     1      17.416   0.812  51.350  1.00  0.00     0.033 C 
ENDBRANCH  29  30
ENDBRANCH  28  29
ENDBRANCH  27  28
ENDBRANCH  26  27
ENDBRANCH  25  26
ENDBRANCH   1  25
TORSDOF 8
ENDMDL
MODEL 7
REMARK VINA RESULT:      -7.6      2.423      3.358
REMARK  8 active torsions:
REMARK  status: ('A' for Active; 'I' for Inactive)
REMARK    1  A    between atoms: C2_2  and  O1_3 
REMARK    2  A    between atoms: O1_3  and  C3_4 
REMARK    3  A    between atoms: C3_4  and  C4_5 
REMARK    4  A    between atoms: C4_5  and  C5_6 
REMARK    5  A    between atoms: C5_6  and  O2_7 
REMARK    6  A    between atoms: O2_7  and  C6_8 
REMARK    7  A    between atoms: C10_14  and  N3_15 
REMARK    8  A    between atoms: N3_15  and  C11_16 
ROOT
HETATM    1  C6  UNL     1      20.419   2.437  52.620  1.00  0.00     0.107 A 
HETATM    2  C7  UNL     1      20.417   1.319  53.427  1.00  0.00     0.072 A 
HETATM    3  C8  UNL     1      21.558   0.591  53.671  1.00  0.00     0.077 A 
HETATM    4  N1  UNL     1      21.464  -0.501  54.473  1.00  0.00    -0.241 NA
HETATM    5  C9  UNL     1      22.605  -1.217  54.700  1.00  0.00     0.236 A 
HETATM    6  N2  UNL     1      23.828  -0.900  54.171  1.00  0.00    -0.223 NA
HETATM    7  C10 UNL     1      23.889   0.194  53.377  1.00  0.00     0.144 A 
HETATM    8  C17 UNL     1      22.770   0.955  53.111  1.00  0.00     0.075 A 
HETATM    9  C18 UNL     1      22.760   2.072  52.311  1.00  0.00     0.121 A 
HETATM   10  C19 UNL     1      21.624   2.828  52.044  1.00  0.00     0.136 A 
HETATM   11  O3  UNL     1      21.913   3.898  51.203  1.00  0.00    -0.344 OA
HETATM   12  C20 UNL     1      23.064   4.709  51.399  1.00  0.00     0.202 C 
HETATM   13  C21 UNL     1      24.291   3.886  51.673  1.00  0.00     0.202 C 
HETATM   14  O4  UNL     1      23.966   2.484  51.721  1.00  0.00    -0.345 OA
ENDROOT
BRANCH   7  15
HETATM   15  N3  UNL     1      25.106   0.605  52.770  1.00  0.00    -0.340 N 
HETATM   16  H14 UNL     1      24.889   1.316  52.028  1.00  0.00     0.167 HD
BRANCH  15  17
HETATM   17  C11 UNL     1      26.433   0.204  53.034  1.00  0.00     0.035 A 
HETATM   18  C12 UNL     1      26.872  -1.078  52.776  1.00  0.00     0.032 A 
HETATM   19  C13 UNL     1      28.182  -1.391  53.080  1.00  0.00     0.046 A 
HETATM   20  C14 UNL     1      28.998  -0.422  53.627  1.00  0.00     0.138 A 
HETATM   21  F1  UNL     1      30.299  -0.745  53.927  1.00  0.00    -0.204 F 
HETATM   22  C15 UNL     1      28.548   0.871  53.886  1.00  0.00     0.074 A 
HETATM   23 CL1  UNL     1      29.581   2.102  54.582  1.00  0.00    -0.081 Cl
HETATM   24  C16 UNL     1      27.223   1.203  53.581  1.00  0.00     0.056 A 
ENDBRANCH  15  17
ENDBRANCH   7  15
BRANCH   1  25
HETATM   25  O2  UNL     1      19.364   3.269  52.275  1.00  0.00    -0.348 OA
BRANCH  25  26
HETATM   26  C5  UNL     1      18.284   2.683  51.564  1.00  0.00     0.178 C 
BRANCH  26  27
HETATM   27  C4  UNL     1      17.897   3.509  50.403  1.00  0.00     0.053 C 
BRANCH  27  28
HETATM   28  C3  UNL     1      18.917   3.647  49.350  1.00  0.00     0.169 C 
BRANCH  28  29
HETATM   29  O1  UNL     1      19.728   2.656  49.059  1.00  0.00    -0.391 OA
BRANCH  29  30
HETATM   30  C2  UNL     1      20.478   2.483  47.966  1.00  0.00     0.163 C 
HETATM   31  C1  UNL     1      21.219   3.840  47.699  1.00  0.00     0.033 C 
ENDBRANCH  29  30
ENDBRANCH  28  29
ENDBRANCH  27  28
ENDBRANCH  26  27
ENDBRANCH  25  26
ENDBRANCH   1  25
TORSDOF 8
ENDMDL
MODEL 8
REMARK VINA RESULT:      -7.5      3.278      6.114
REMARK  8 active torsions:
REMARK  status: ('A' for Active; 'I' for Inactive)
REMARK    1  A    between atoms: C2_2  and  O1_3 
REMARK    2  A    between atoms: O1_3  and  C3_4 
REMARK    3  A    between atoms: C3_4  and  C4_5 
REMARK    4  A    between atoms: C4_5  and  C5_6 
REMARK    5  A    between atoms: C5_6  and  O2_7 
REMARK    6  A    between atoms: O2_7  and  C6_8 
REMARK    7  A    between atoms: C10_14  and  N3_15 
REMARK    8  A    between atoms: N3_15  and  C11_16 
ROOT
HETATM    1  C6  UNL     1      21.992   3.629  50.287  1.00  0.00     0.107 A 
HETATM    2  C7  UNL     1      23.090   4.028  49.555  1.00  0.00     0.072 A 
HETATM    3  C8  UNL     1      24.375   3.717  49.934  1.00  0.00     0.077 A 
HETATM    4  N1  UNL     1      25.399   4.157  49.156  1.00  0.00    -0.241 NA
HETATM    5  C9  UNL     1      26.668   3.844  49.551  1.00  0.00     0.236 A 
HETATM    6  N2  UNL     1      26.968   3.118  50.674  1.00  0.00    -0.223 NA
HETATM    7  C10 UNL     1      25.926   2.694  51.425  1.00  0.00     0.144 A 
HETATM    8  C17 UNL     1      24.622   2.980  51.078  1.00  0.00     0.075 A 
HETATM    9  C18 UNL     1      23.521   2.586  51.798  1.00  0.00     0.121 A 
HETATM   10  C19 UNL     1      22.210   2.886  51.443  1.00  0.00     0.136 A 
HETATM   11  O3  UNL     1      21.303   2.359  52.357  1.00  0.00    -0.344 OA
HETATM   12  C20 UNL     1      21.434   1.034  52.857  1.00  0.00     0.202 C 
HETATM   13  C21 UNL     1      22.849   0.721  53.253  1.00  0.00     0.202 C 
HETATM   14  O4  UNL     1      23.719   1.834  52.968  1.00  0.00    -0.345 OA
ENDROOT
BRANCH   7  15
HETATM   15  N3  UNL     1      26.126   1.944  52.615  1.00  0.00    -0.340 N 
HETATM   16  H14 UNL     1      25.271   2.035  53.219  1.00  0.00     0.167 HD
BRANCH  15  17
HETATM   17  C11 UNL     1      27.231   1.168  53.025  1.00  0.00     0.035 A 
HETATM   18  C12 UNL     1      28.337   1.735  53.624  1.00  0.00     0.032 A 
HETATM   19  C13 UNL     1      29.382   0.906  53.978  1.00  0.00     0.046 A 
HETATM   20  C14 UNL     1      29.286  -0.447  53.723  1.00  0.00     0.138 A 
HETATM   21  F1  UNL     1      30.333  -1.263  54.079  1.00  0.00    -0.204 F 
HETATM   22  C15 UNL     1      28.167  -1.013  53.117  1.00  0.00     0.074 A 
HETATM   23 CL1  UNL     1      28.045  -2.729  52.791  1.00  0.00    -0.081 Cl
HETATM   24  C16 UNL     1      27.100  -0.185  52.754  1.00  0.00     0.056 A 
ENDBRANCH  15  17
ENDBRANCH   7  15
BRANCH   1  25
HETATM   25  O2  UNL     1      20.647   3.863  50.044  1.00  0.00    -0.348 OA
BRANCH  25  26
HETATM   26  C5  UNL     1      20.327   4.856  49.082  1.00  0.00     0.178 C 
BRANCH  26  27
HETATM   27  C4  UNL     1      20.008   6.145  49.730  1.00  0.00     0.053 C 
BRANCH  27  28
HETATM   28  C3  UNL     1      20.955   7.241  49.468  1.00  0.00     0.169 C 
BRANCH  28  29
HETATM   29  O1  UNL     1      21.672   7.764  50.436  1.00  0.00    -0.391 OA
BRANCH  29  30
HETATM   30  C2  UNL     1      22.915   7.455  50.817  1.00  0.00     0.163 C 
HETATM   31  C1  UNL     1      23.892   8.232  49.867  1.00  0.00     0.033 C 
ENDBRANCH  29  30
ENDBRANCH  28  29
ENDBRANCH  27  28
ENDBRANCH  26  27
ENDBRANCH  25  26
ENDBRANCH   1  25
TORSDOF 8
ENDMDL
MODEL 9
REMARK VINA RESULT:      -7.5      4.675      8.501
REMARK  8 active torsions:
REMARK  status: ('A' for Active; 'I' for Inactive)
REMARK    1  A    between atoms: C2_2  and  O1_3 
REMARK    2  A    between atoms: O1_3  and  C3_4 
REMARK    3  A    between atoms: C3_4  and  C4_5 
REMARK    4  A    between atoms: C4_5  and  C5_6 
REMARK    5  A    between atoms: C5_6  and  O2_7 
REMARK    6  A    between atoms: O2_7  and  C6_8 
REMARK    7  A    between atoms: C10_14  and  N3_15 
REMARK    8  A    between atoms: N3_15  and  C11_16 
ROOT
HETATM    1  C6  UNL     1      25.906   4.190  50.114  1.00  0.00     0.107 A 
HETATM    2  C7  UNL     1      26.615   3.054  50.444  1.00  0.00     0.072 A 
HETATM    3  C8  UNL     1      26.099   2.085  51.273  1.00  0.00     0.077 A 
HETATM    4  N1  UNL     1      26.869   1.001  51.551  1.00  0.00    -0.241 NA
HETATM    5  C9  UNL     1      26.345   0.052  52.381  1.00  0.00     0.236 A 
HETATM    6  N2  UNL     1      25.098   0.128  52.944  1.00  0.00    -0.223 NA
HETATM    7  C10 UNL     1      24.356   1.218  52.647  1.00  0.00     0.144 A 
HETATM    8  C17 UNL     1      24.832   2.211  51.816  1.00  0.00     0.075 A 
HETATM    9  C18 UNL     1      24.135   3.345  51.478  1.00  0.00     0.121 A 
HETATM   10  C19 UNL     1      24.628   4.342  50.644  1.00  0.00     0.136 A 
HETATM   11  O3  UNL     1      23.705   5.370  50.481  1.00  0.00    -0.344 OA
HETATM   12  C20 UNL     1      22.328   5.103  50.243  1.00  0.00     0.202 C 
HETATM   13  C21 UNL     1      21.798   4.035  51.156  1.00  0.00     0.202 C 
HETATM   14  O4  UNL     1      22.843   3.518  52.001  1.00  0.00    -0.345 OA
ENDROOT
BRANCH   7  15
HETATM   15  N3  UNL     1      23.054   1.401  53.186  1.00  0.00    -0.340 N 
HETATM   16  H14 UNL     1      22.924   2.417  53.417  1.00  0.00     0.167 HD
BRANCH  15  17
HETATM   17  C11 UNL     1      22.026   0.462  53.414  1.00  0.00     0.035 A 
HETATM   18  C12 UNL     1      22.152  -0.545  54.349  1.00  0.00     0.032 A 
HETATM   19  C13 UNL     1      21.105  -1.432  54.496  1.00  0.00     0.046 A 
HETATM   20  C14 UNL     1      19.980  -1.284  53.710  1.00  0.00     0.138 A 
HETATM   21  F1  UNL     1      18.944  -2.174  53.864  1.00  0.00    -0.204 F 
HETATM   22  C15 UNL     1      19.859  -0.267  52.767  1.00  0.00     0.074 A 
HETATM   23 CL1  UNL     1      18.433  -0.079  51.767  1.00  0.00    -0.081 Cl
HETATM   24  C16 UNL     1      20.912   0.641  52.608  1.00  0.00     0.056 A 
ENDBRANCH  15  17
ENDBRANCH   7  15
BRANCH   1  25
HETATM   25  O2  UNL     1      26.281   5.250  49.303  1.00  0.00    -0.348 OA
BRANCH  25  26
HETATM   26  C5  UNL     1      27.509   5.125  48.603  1.00  0.00     0.178 C 
BRANCH  26  27
HETATM   27  C4  UNL     1      28.022   6.445  48.182  1.00  0.00     0.053 C 
BRANCH  27  28
HETATM   28  C3  UNL     1      27.422   7.607  48.858  1.00  0.00     0.169 C 
BRANCH  28  29
HETATM   29  O1  UNL     1      26.618   8.423  48.217  1.00  0.00    -0.391 OA
BRANCH  29  30
HETATM   30  C2  UNL     1      25.308   8.621  48.399  1.00  0.00     0.163 C 
HETATM   31  C1  UNL     1      25.045   8.552  49.943  1.00  0.00     0.033 C 
ENDBRANCH  29  30
ENDBRANCH  28  29
ENDBRANCH  27  28
ENDBRANCH  26  27
ENDBRANCH  25  26
ENDBRANCH   1  25
TORSDOF 8
ENDMDL
