MODEL 1
REMARK VINA RESULT:      -8.9      0.000      0.000
REMARK  2 active torsions:
REMARK  status: ('A' for Active; 'I' for Inactive)
REMARK    1  A    between atoms: C2_2  and  N1_3 
REMARK    2  A    between atoms: C7_10  and  N3_11 
ROOT
HETATM    1  N1  UNL     1      27.591   0.184  53.817  1.00  0.00    -0.400 N 
HETATM    2  C3  UNL     1      27.927   0.945  52.607  1.00  0.00     0.212 C 
HETATM    3  C4  UNL     1      26.800   1.632  52.152  1.00  0.00    -0.077 C 
HETATM    4  C5  UNL     1      25.888   2.182  51.804  1.00  0.00    -0.004 C 
HETATM    5  C6  UNL     1      24.752   2.849  51.396  1.00  0.00     0.298 C 
HETATM    6  O1  UNL     1      24.324   3.985  51.226  1.00  0.00    -0.258 OA
HETATM    7  N2  UNL     1      23.503   2.358  50.966  1.00  0.00    -0.325 N 
HETATM    8  C7  UNL     1      22.163   2.098  50.532  1.00  0.00     0.224 C 
HETATM    9  C15 UNL     1      21.468   1.091  51.382  1.00  0.00     0.043 C 
HETATM   10  C16 UNL     1      21.596   0.236  52.388  1.00  0.00     0.057 A 
HETATM   11 CL1  UNL     1      20.518  -0.870  53.196  1.00  0.00    -0.131 Cl
HETATM   12  C17 UNL     1      22.436  -0.326  53.424  1.00  0.00     0.225 A 
HETATM   13  F1  UNL     1      23.412   0.537  53.139  1.00  0.00    -0.215 F 
HETATM   14  C18 UNL     1      23.157  -0.903  54.418  1.00  0.00     0.038 C 
HETATM   15  C19 UNL     1      24.469  -0.836  55.015  1.00  0.00    -0.002 C 
HETATM   16  C20 UNL     1      25.675  -0.416  55.187  1.00  0.00    -0.008 C 
HETATM   17  C21 UNL     1      26.494   0.614  54.525  1.00  0.00     0.145 C 
HETATM   18  H8  UNL     1      23.778   1.368  50.812  1.00  0.00     0.165 HD
ENDROOT
BRANCH   8  19
HETATM   19  N3  UNL     1      22.048   1.700  49.149  1.00  0.00    -0.317 N 
HETATM   20  C8  UNL     1      22.890   2.441  48.273  1.00  0.00     0.180 C 
HETATM   21  C9  UNL     1      22.279   3.814  48.155  1.00  0.00    -0.010 A 
HETATM   22  C10 UNL     1      22.858   4.987  48.123  1.00  0.00     0.144 A 
HETATM   23  C13 UNL     1      20.823   3.752  48.067  1.00  0.00    -0.035 A 
HETATM   24  O2  UNL     1      22.079   6.109  48.008  1.00  0.00    -0.359 OA
HETATM   25  C11 UNL     1      20.686   6.172  47.912  1.00  0.00     0.202 A 
HETATM   26  C12 UNL     1      20.067   4.833  47.955  1.00  0.00     0.008 A 
HETATM   27  C14 UNL     1      20.076   2.481  48.107  1.00  0.00     0.149 C 
HETATM   28  N4  UNL     1      20.802   1.398  48.729  1.00  0.00    -0.236 NA
HETATM   29  H18 UNL     1      20.771   0.518  48.170  1.00  0.00     0.146 HD
ENDBRANCH   8  19
BRANCH   1  30
HETATM   30  C2  UNL     1      28.734  -0.353  54.374  1.00  0.00     0.113 C 
HETATM   31  C1  UNL     1      29.813  -0.884  53.470  1.00  0.00     0.026 C 
ENDBRANCH   1  30
TORSDOF 2
ENDMDL
MODEL 2
REMARK VINA RESULT:      -8.7      3.777      5.112
REMARK  2 active torsions:
REMARK  status: ('A' for Active; 'I' for Inactive)
REMARK    1  A    between atoms: C2_2  and  N1_3 
REMARK    2  A    between atoms: C7_10  and  N3_11 
ROOT
HETATM    1  N1  UNL     1      25.269   2.872  50.890  1.00  0.00    -0.400 N 
HETATM    2  C3  UNL     1      24.259   3.480  50.014  1.00  0.00     0.212 C 
HETATM    3  C4  UNL     1      22.990   3.327  50.577  1.00  0.00    -0.077 C 
HETATM    4  C5  UNL     1      21.981   3.202  51.046  1.00  0.00    -0.004 C 
HETATM    5  C6  UNL     1      20.749   3.036  51.643  1.00  0.00     0.298 C 
HETATM    6  O1  UNL     1      19.820   3.687  52.108  1.00  0.00    -0.258 OA
HETATM    7  N2  UNL     1      20.035   1.864  51.966  1.00  0.00    -0.325 N 
HETATM    8  C7  UNL     1      19.151   0.827  52.408  1.00  0.00     0.224 C 
HETATM    9  C15 UNL     1      19.853  -0.240  53.174  1.00  0.00     0.043 C 
HETATM   10  C16 UNL     1      21.028  -0.696  53.585  1.00  0.00     0.057 A 
HETATM   11 CL1  UNL     1      21.544  -2.066  54.530  1.00  0.00    -0.131 Cl
HETATM   12  C17 UNL     1      22.461  -0.509  53.660  1.00  0.00     0.225 A 
HETATM   13  F1  UNL     1      22.361   0.694  53.092  1.00  0.00    -0.215 F 
HETATM   14  C18 UNL     1      23.809  -0.407  53.773  1.00  0.00     0.038 C 
HETATM   15  C19 UNL     1      24.885   0.484  53.414  1.00  0.00    -0.002 C 
HETATM   16  C20 UNL     1      25.441   1.532  52.910  1.00  0.00    -0.008 C 
HETATM   17  C21 UNL     1      24.920   2.719  52.211  1.00  0.00     0.145 C 
HETATM   18  H8  UNL     1      20.591   1.192  51.401  1.00  0.00     0.165 HD
ENDROOT
BRANCH   8  19
HETATM   19  N3  UNL     1      18.375   0.214  51.356  1.00  0.00    -0.317 N 
HETATM   20  C8  UNL     1      17.773   1.153  50.471  1.00  0.00     0.180 C 
HETATM   21  C9  UNL     1      16.640   1.791  51.234  1.00  0.00    -0.010 A 
HETATM   22  C10 UNL     1      16.247   3.039  51.260  1.00  0.00     0.144 A 
HETATM   23  C13 UNL     1      15.915   0.814  52.041  1.00  0.00    -0.035 A 
HETATM   24  O2  UNL     1      15.173   3.381  52.041  1.00  0.00    -0.359 OA
HETATM   25  C11 UNL     1      14.404   2.537  52.846  1.00  0.00     0.202 A 
HETATM   26  C12 UNL     1      14.876   1.139  52.796  1.00  0.00     0.008 A 
HETATM   27  C14 UNL     1      16.286  -0.613  52.089  1.00  0.00     0.149 C 
HETATM   28  N4  UNL     1      17.657  -0.871  51.716  1.00  0.00    -0.236 NA
HETATM   29  H18 UNL     1      17.749  -1.655  51.034  1.00  0.00     0.146 HD
ENDBRANCH   8  19
BRANCH   1  30
HETATM   30  C2  UNL     1      26.537   3.172  50.433  1.00  0.00     0.113 C 
HETATM   31  C1  UNL     1      26.699   4.159  49.309  1.00  0.00     0.026 C 
ENDBRANCH   1  30
TORSDOF 2
ENDMDL
MODEL 3
REMARK VINA RESULT:      -8.4      1.106      1.203
REMARK  2 active torsions:
REMARK  status: ('A' for Active; 'I' for Inactive)
REMARK    1  A    between atoms: C2_2  and  N1_3 
REMARK    2  A    between atoms: C7_10  and  N3_11 
ROOT
HETATM    1  N1  UNL     1      26.990  -0.050  53.334  1.00  0.00    -0.400 N 
HETATM    2  C3  UNL     1      27.122   0.732  52.098  1.00  0.00     0.212 C 
HETATM    3  C4  UNL     1      25.934   1.420  51.844  1.00  0.00    -0.077 C 
HETATM    4  C5  UNL     1      24.976   1.970  51.659  1.00  0.00    -0.004 C 
HETATM    5  C6  UNL     1      23.786   2.638  51.453  1.00  0.00     0.298 C 
HETATM    6  O1  UNL     1      23.333   3.774  51.373  1.00  0.00    -0.258 OA
HETATM    7  N2  UNL     1      22.485   2.147  51.225  1.00  0.00    -0.325 N 
HETATM    8  C7  UNL     1      21.092   1.887  51.013  1.00  0.00     0.224 C 
HETATM    9  C15 UNL     1      20.549   0.863  51.949  1.00  0.00     0.043 C 
HETATM   10  C16 UNL     1      20.842  -0.007  52.906  1.00  0.00     0.057 A 
HETATM   11 CL1  UNL     1      19.914  -1.131  53.861  1.00  0.00    -0.131 Cl
HETATM   12  C17 UNL     1      21.842  -0.581  53.782  1.00  0.00     0.225 A 
HETATM   13  F1  UNL     1      22.755   0.292  53.355  1.00  0.00    -0.215 F 
HETATM   14  C18 UNL     1      22.718  -1.170  54.634  1.00  0.00     0.038 C 
HETATM   15  C19 UNL     1      24.109  -1.105  55.009  1.00  0.00    -0.002 C 
HETATM   16  C20 UNL     1      25.326  -0.681  54.989  1.00  0.00    -0.008 C 
HETATM   17  C21 UNL     1      26.023   0.364  54.219  1.00  0.00     0.145 C 
HETATM   18  H8  UNL     1      22.734   1.160  51.013  1.00  0.00     0.165 HD
ENDROOT
BRANCH   8  19
HETATM   19  N3  UNL     1      20.754   1.509  49.661  1.00  0.00    -0.317 N 
HETATM   20  C8  UNL     1      21.432   2.275  48.671  1.00  0.00     0.180 C 
HETATM   21  C9  UNL     1      20.798   3.642  48.680  1.00  0.00    -0.010 A 
HETATM   22  C10 UNL     1      21.352   4.823  48.574  1.00  0.00     0.144 A 
HETATM   23  C13 UNL     1      19.348   3.564  48.834  1.00  0.00    -0.035 A 
HETATM   24  O2  UNL     1      20.555   5.937  48.609  1.00  0.00    -0.359 OA
HETATM   25  C11 UNL     1      19.165   5.984  48.746  1.00  0.00     0.202 A 
HETATM   26  C12 UNL     1      18.573   4.637  48.867  1.00  0.00     0.008 A 
HETATM   27  C14 UNL     1      18.629   2.283  48.974  1.00  0.00     0.149 C 
HETATM   28  N4  UNL     1      19.458   1.199  49.448  1.00  0.00    -0.236 NA
HETATM   29  H18 UNL     1      19.343   0.328  48.886  1.00  0.00     0.146 HD
ENDBRANCH   8  19
BRANCH   1  30
HETATM   30  C2  UNL     1      28.211  -0.590  53.687  1.00  0.00     0.113 C 
HETATM   31  C1  UNL     1      29.388   0.324  53.889  1.00  0.00     0.026 C 
ENDBRANCH   1  30
TORSDOF 2
ENDMDL
MODEL 4
REMARK VINA RESULT:      -8.2      2.942      7.755
REMARK  2 active torsions:
REMARK  status: ('A' for Active; 'I' for Inactive)
REMARK    1  A    between atoms: C2_2  and  N1_3 
REMARK    2  A    between atoms: C7_10  and  N3_11 
ROOT
HETATM    1  N1  UNL     1      23.756   8.007  48.314  1.00  0.00    -0.400 N 
HETATM    2  C3  UNL     1      24.716   8.010  49.426  1.00  0.00     0.212 C 
HETATM    3  C4  UNL     1      25.069   6.698  49.750  1.00  0.00    -0.077 C 
HETATM    4  C5  UNL     1      25.346   5.640  49.992  1.00  0.00    -0.004 C 
HETATM    5  C6  UNL     1      25.671   4.329  50.271  1.00  0.00     0.298 C 
HETATM    6  O1  UNL     1      26.632   3.567  50.278  1.00  0.00    -0.258 OA
HETATM    7  N2  UNL     1      24.871   3.259  50.718  1.00  0.00    -0.325 N 
HETATM    8  C7  UNL     1      24.261   2.032  51.135  1.00  0.00     0.224 C 
HETATM    9  C15 UNL     1      22.999   1.737  50.400  1.00  0.00     0.043 C 
HETATM   10  C16 UNL     1      22.117   2.190  49.519  1.00  0.00     0.057 A 
HETATM   11 CL1  UNL     1      20.650   1.557  48.825  1.00  0.00    -0.131 Cl
HETATM   12  C17 UNL     1      21.728   3.233  48.594  1.00  0.00     0.225 A 
HETATM   13  F1  UNL     1      22.877   3.879  48.797  1.00  0.00    -0.215 F 
HETATM   14  C18 UNL     1      21.294   4.165  47.709  1.00  0.00     0.038 C 
HETATM   15  C19 UNL     1      21.694   5.434  47.154  1.00  0.00    -0.002 C 
HETATM   16  C20 UNL     1      22.444   6.466  46.969  1.00  0.00    -0.008 C 
HETATM   17  C21 UNL     1      23.744   6.886  47.519  1.00  0.00     0.145 C 
HETATM   18  H8  UNL     1      24.038   3.809  51.009  1.00  0.00     0.165 HD
ENDROOT
BRANCH   8  19
HETATM   19  N3  UNL     1      24.006   1.943  52.554  1.00  0.00    -0.317 N 
HETATM   20  C8  UNL     1      25.081   2.421  53.356  1.00  0.00     0.180 C 
HETATM   21  C9  UNL     1      26.173   1.386  53.266  1.00  0.00    -0.010 A 
HETATM   22  C10 UNL     1      27.468   1.543  53.164  1.00  0.00     0.144 A 
HETATM   23  C13 UNL     1      25.635   0.029  53.305  1.00  0.00    -0.035 A 
HETATM   24  O2  UNL     1      28.268   0.432  53.098  1.00  0.00    -0.359 OA
HETATM   25  C11 UNL     1      27.870  -0.907  53.131  1.00  0.00     0.202 A 
HETATM   26  C12 UNL     1      26.404  -1.047  53.243  1.00  0.00     0.008 A 
HETATM   27  C14 UNL     1      24.191  -0.254  53.406  1.00  0.00     0.149 C 
HETATM   28  N4  UNL     1      23.352   0.835  52.962  1.00  0.00    -0.236 NA
HETATM   29  H18 UNL     1      22.581   1.050  53.631  1.00  0.00     0.146 HD
ENDBRANCH   8  19
BRANCH   1  30
HETATM   30  C2  UNL     1      23.539   9.297  47.872  1.00  0.00     0.113 C 
HETATM   31  C1  UNL     1      22.235   9.975  48.195  1.00  0.00     0.026 C 
ENDBRANCH   1  30
TORSDOF 2
ENDMDL
MODEL 5
REMARK VINA RESULT:      -8.1      3.252      4.695
REMARK  2 active torsions:
REMARK  status: ('A' for Active; 'I' for Inactive)
REMARK    1  A    between atoms: C2_2  and  N1_3 
REMARK    2  A    between atoms: C7_10  and  N3_11 
ROOT
HETATM    1  N1  UNL     1      27.202   0.458  54.142  1.00  0.00    -0.400 N 
HETATM    2  C3  UNL     1      26.224  -0.190  55.025  1.00  0.00     0.212 C 
HETATM    3  C4  UNL     1      25.021  -0.378  54.342  1.00  0.00    -0.077 C 
HETATM    4  C5  UNL     1      24.066  -0.527  53.777  1.00  0.00    -0.004 C 
HETATM    5  C6  UNL     1      22.900  -0.700  53.060  1.00  0.00     0.298 C 
HETATM    6  O1  UNL     1      22.161  -1.584  52.642  1.00  0.00    -0.258 OA
HETATM    7  N2  UNL     1      22.029   0.245  52.479  1.00  0.00    -0.325 N 
HETATM    8  C7  UNL     1      21.031   1.007  51.790  1.00  0.00     0.224 C 
HETATM    9  C15 UNL     1      21.614   2.057  50.909  1.00  0.00     0.043 C 
HETATM   10  C16 UNL     1      22.728   2.663  50.522  1.00  0.00     0.057 A 
HETATM   11 CL1  UNL     1      23.096   3.941  49.397  1.00  0.00    -0.131 Cl
HETATM   12  C17 UNL     1      24.171   2.749  50.599  1.00  0.00     0.225 A 
HETATM   13  F1  UNL     1      24.222   1.654  51.360  1.00  0.00    -0.215 F 
HETATM   14  C18 UNL     1      25.520   2.895  50.617  1.00  0.00     0.038 C 
HETATM   15  C19 UNL     1      26.689   2.299  51.215  1.00  0.00    -0.002 C 
HETATM   16  C20 UNL     1      27.362   1.472  51.939  1.00  0.00    -0.008 C 
HETATM   17  C21 UNL     1      26.985   0.331  52.791  1.00  0.00     0.145 C 
HETATM   18  H8  UNL     1      22.389   1.093  52.961  1.00  0.00     0.165 HD
ENDROOT
BRANCH   8  19
HETATM   19  N3  UNL     1      20.044   1.615  52.651  1.00  0.00    -0.317 N 
HETATM   20  C8  UNL     1      18.997   0.728  53.031  1.00  0.00     0.180 C 
HETATM   21  C9  UNL     1      18.134   0.539  51.810  1.00  0.00    -0.010 A 
HETATM   22  C10 UNL     1      17.561  -0.544  51.349  1.00  0.00     0.144 A 
HETATM   23  C13 UNL     1      17.951   1.789  51.079  1.00  0.00    -0.035 A 
HETATM   24  O2  UNL     1      16.813  -0.464  50.204  1.00  0.00    -0.359 OA
HETATM   25  C11 UNL     1      16.564   0.672  49.427  1.00  0.00     0.202 A 
HETATM   26  C12 UNL     1      17.228   1.872  49.973  1.00  0.00     0.008 A 
HETATM   27  C14 UNL     1      18.564   3.061  51.508  1.00  0.00     0.149 C 
HETATM   28  N4  UNL     1      19.720   2.892  52.358  1.00  0.00    -0.236 NA
HETATM   29  H18 UNL     1      19.691   3.501  53.204  1.00  0.00     0.146 HD
ENDBRANCH   8  19
BRANCH   1  30
HETATM   30  C2  UNL     1      28.443   0.486  54.747  1.00  0.00     0.113 C 
HETATM   31  C1  UNL     1      29.561  -0.340  54.171  1.00  0.00     0.026 C 
ENDBRANCH   1  30
TORSDOF 2
ENDMDL
MODEL 6
REMARK VINA RESULT:      -8.0      1.721      2.166
REMARK  2 active torsions:
REMARK  status: ('A' for Active; 'I' for Inactive)
REMARK    1  A    between atoms: C2_2  and  N1_3 
REMARK    2  A    between atoms: C7_10  and  N3_11 
ROOT
HETATM    1  N1  UNL     1      26.226  -0.077  52.810  1.00  0.00    -0.400 N 
HETATM    2  C3  UNL     1      26.732   0.971  51.914  1.00  0.00     0.212 C 
HETATM    3  C4  UNL     1      25.777   1.981  51.780  1.00  0.00    -0.077 C 
HETATM    4  C5  UNL     1      25.003   2.785  51.689  1.00  0.00    -0.004 C 
HETATM    5  C6  UNL     1      24.034   3.762  51.594  1.00  0.00     0.298 C 
HETATM    6  O1  UNL     1      23.850   4.948  51.843  1.00  0.00    -0.258 OA
HETATM    7  N2  UNL     1      22.718   3.706  51.090  1.00  0.00    -0.325 N 
HETATM    8  C7  UNL     1      21.361   3.880  50.667  1.00  0.00     0.224 C 
HETATM    9  C15 UNL     1      20.461   2.801  51.161  1.00  0.00     0.043 C 
HETATM   10  C16 UNL     1      20.394   1.645  51.808  1.00  0.00     0.057 A 
HETATM   11 CL1  UNL     1      19.100   0.565  52.249  1.00  0.00    -0.131 Cl
HETATM   12  C17 UNL     1      21.083   0.607  52.545  1.00  0.00     0.225 A 
HETATM   13  F1  UNL     1      22.220   1.306  52.518  1.00  0.00    -0.215 F 
HETATM   14  C18 UNL     1      21.654  -0.406  53.243  1.00  0.00     0.038 C 
HETATM   15  C19 UNL     1      22.941  -0.808  53.756  1.00  0.00    -0.002 C 
HETATM   16  C20 UNL     1      24.204  -0.720  53.996  1.00  0.00    -0.008 C 
HETATM   17  C21 UNL     1      25.228   0.292  53.680  1.00  0.00     0.145 C 
HETATM   18  H8  UNL     1      22.789   2.795  50.595  1.00  0.00     0.165 HD
ENDROOT
BRANCH   8  19
HETATM   19  N3  UNL     1      21.192   4.012  49.239  1.00  0.00    -0.317 N 
HETATM   20  C8  UNL     1      22.105   4.926  48.641  1.00  0.00     0.180 C 
HETATM   21  C9  UNL     1      21.650   6.307  49.042  1.00  0.00    -0.010 A 
HETATM   22  C10 UNL     1      22.356   7.350  49.398  1.00  0.00     0.144 A 
HETATM   23  C13 UNL     1      20.196   6.428  49.007  1.00  0.00    -0.035 A 
HETATM   24  O2  UNL     1      21.706   8.512  49.721  1.00  0.00    -0.359 OA
HETATM   25  C11 UNL     1      20.328   8.746  49.718  1.00  0.00     0.202 A 
HETATM   26  C12 UNL     1      19.563   7.549  49.317  1.00  0.00     0.008 A 
HETATM   27  C14 UNL     1      19.311   5.308  48.632  1.00  0.00     0.149 C 
HETATM   28  N4  UNL     1      19.917   4.007  48.799  1.00  0.00    -0.236 NA
HETATM   29  H18 UNL     1      19.784   3.390  47.968  1.00  0.00     0.146 HD
ENDBRANCH   8  19
BRANCH   1  30
HETATM   30  C2  UNL     1      27.226  -0.988  53.089  1.00  0.00     0.113 C 
HETATM   31  C1  UNL     1      28.602  -0.486  53.436  1.00  0.00     0.026 C 
ENDBRANCH   1  30
TORSDOF 2
ENDMDL
MODEL 7
REMARK VINA RESULT:      -7.9      8.392     11.497
REMARK  2 active torsions:
REMARK  status: ('A' for Active; 'I' for Inactive)
REMARK    1  A    between atoms: C2_2  and  N1_3 
REMARK    2  A    between atoms: C7_10  and  N3_11 
ROOT
HETATM    1  N1  UNL     1      26.703  11.374  47.749  1.00  0.00    -0.400 N 
HETATM    2  C3  UNL     1      28.103  11.729  47.484  1.00  0.00     0.212 C 
HETATM    3  C4  UNL     1      28.805  10.602  47.053  1.00  0.00    -0.077 C 
HETATM    4  C5  UNL     1      29.350   9.689  46.702  1.00  0.00    -0.004 C 
HETATM    5  C6  UNL     1      30.000   8.551  46.271  1.00  0.00     0.298 C 
HETATM    6  O1  UNL     1      30.592   8.103  45.295  1.00  0.00    -0.258 OA
HETATM    7  N2  UNL     1      30.240   7.326  46.927  1.00  0.00    -0.325 N 
HETATM    8  C7  UNL     1      30.570   6.005  47.372  1.00  0.00     0.224 C 
HETATM    9  C15 UNL     1      29.419   5.308  48.010  1.00  0.00     0.043 C 
HETATM   10  C16 UNL     1      28.165   5.425  48.424  1.00  0.00     0.057 A 
HETATM   11 CL1  UNL     1      27.023   4.348  49.181  1.00  0.00    -0.131 Cl
HETATM   12  C17 UNL     1      26.977   6.246  48.532  1.00  0.00     0.225 A 
HETATM   13  F1  UNL     1      27.545   7.210  47.806  1.00  0.00    -0.215 F 
HETATM   14  C18 UNL     1      25.826   6.950  48.673  1.00  0.00     0.038 C 
HETATM   15  C19 UNL     1      25.272   8.241  48.347  1.00  0.00    -0.002 C 
HETATM   16  C20 UNL     1      25.246   9.432  47.854  1.00  0.00    -0.008 C 
HETATM   17  C21 UNL     1      26.229  10.248  47.120  1.00  0.00     0.145 C 
HETATM   18  H8  UNL     1      30.007   7.628  47.894  1.00  0.00     0.165 HD
ENDROOT
BRANCH   8  19
HETATM   19  N3  UNL     1      31.706   5.941  48.261  1.00  0.00    -0.317 N 
HETATM   20  C8  UNL     1      32.793   6.766  47.856  1.00  0.00     0.180 C 
HETATM   21  C9  UNL     1      33.416   6.094  46.659  1.00  0.00    -0.010 A 
HETATM   22  C10 UNL     1      33.880   6.616  45.553  1.00  0.00     0.144 A 
HETATM   23  C13 UNL     1      33.478   4.645  46.825  1.00  0.00    -0.035 A 
HETATM   24  O2  UNL     1      34.407   5.788  44.596  1.00  0.00    -0.359 OA
HETATM   25  C11 UNL     1      34.524   4.396  44.647  1.00  0.00     0.202 A 
HETATM   26  C12 UNL     1      33.987   3.840  45.905  1.00  0.00     0.008 A 
HETATM   27  C14 UNL     1      32.970   3.958  48.028  1.00  0.00     0.149 C 
HETATM   28  N4  UNL     1      31.988   4.720  48.763  1.00  0.00    -0.236 NA
HETATM   29  H18 UNL     1      32.178   4.744  49.788  1.00  0.00     0.146 HD
ENDBRANCH   8  19
BRANCH   1  30
HETATM   30  C2  UNL     1      25.964  12.512  48.003  1.00  0.00     0.113 C 
HETATM   31  C1  UNL     1      26.677  13.818  48.224  1.00  0.00     0.026 C 
ENDBRANCH   1  30
TORSDOF 2
ENDMDL
MODEL 8
REMARK VINA RESULT:      -7.9      3.053      5.599
REMARK  2 active torsions:
REMARK  status: ('A' for Active; 'I' for Inactive)
REMARK    1  A    between atoms: C2_2  and  N1_3 
REMARK    2  A    between atoms: C7_10  and  N3_11 
ROOT
HETATM    1  N1  UNL     1      20.505   0.347  52.850  1.00  0.00    -0.400 N 
HETATM    2  C3  UNL     1      19.800   1.535  52.354  1.00  0.00     0.212 C 
HETATM    3  C4  UNL     1      20.617   2.233  51.463  1.00  0.00    -0.077 C 
HETATM    4  C5  UNL     1      21.283   2.777  50.746  1.00  0.00    -0.004 C 
HETATM    5  C6  UNL     1      22.122   3.429  49.866  1.00  0.00     0.298 C 
HETATM    6  O1  UNL     1      22.195   3.761  48.688  1.00  0.00    -0.258 OA
HETATM    7  N2  UNL     1      23.380   4.032  50.071  1.00  0.00    -0.325 N 
HETATM    8  C7  UNL     1      24.661   4.672  50.031  1.00  0.00     0.224 C 
HETATM    9  C15 UNL     1      25.721   3.880  50.716  1.00  0.00     0.043 C 
HETATM   10  C16 UNL     1      25.980   2.804  51.446  1.00  0.00     0.057 A 
HETATM   11 CL1  UNL     1      27.425   2.113  52.133  1.00  0.00    -0.131 Cl
HETATM   12  C17 UNL     1      25.488   1.595  52.073  1.00  0.00     0.225 A 
HETATM   13  F1  UNL     1      24.283   1.772  51.528  1.00  0.00    -0.215 F 
HETATM   14  C18 UNL     1      25.106   0.449  52.689  1.00  0.00     0.038 C 
HETATM   15  C19 UNL     1      23.929  -0.362  52.886  1.00  0.00    -0.002 C 
HETATM   16  C20 UNL     1      22.693  -0.709  52.769  1.00  0.00    -0.008 C 
HETATM   17  C21 UNL     1      21.536  -0.123  52.071  1.00  0.00     0.145 C 
HETATM   18  H8  UNL     1      23.364   4.057  51.110  1.00  0.00     0.165 HD
ENDROOT
BRANCH   8  19
HETATM   19  N3  UNL     1      24.673   6.018  50.553  1.00  0.00    -0.317 N 
HETATM   20  C8  UNL     1      23.545   6.791  50.157  1.00  0.00     0.180 C 
HETATM   21  C9  UNL     1      23.745   7.121  48.700  1.00  0.00    -0.010 A 
HETATM   22  C10 UNL     1      22.877   7.145  47.721  1.00  0.00     0.144 A 
HETATM   23  C13 UNL     1      25.136   7.454  48.407  1.00  0.00    -0.035 A 
HETATM   24  O2  UNL     1      23.305   7.482  46.463  1.00  0.00    -0.359 OA
HETATM   25  C11 UNL     1      24.601   7.822  46.067  1.00  0.00     0.202 A 
HETATM   26  C12 UNL     1      25.554   7.781  47.194  1.00  0.00     0.008 A 
HETATM   27  C14 UNL     1      26.192   7.444  49.437  1.00  0.00     0.149 C 
HETATM   28  N4  UNL     1      25.880   6.622  50.583  1.00  0.00    -0.236 NA
HETATM   29  H18 UNL     1      26.061   7.106  51.489  1.00  0.00     0.146 HD
ENDBRANCH   8  19
BRANCH   1  30
HETATM   30  C2  UNL     1      19.646  -0.443  53.589  1.00  0.00     0.113 C 
HETATM   31  C1  UNL     1      18.377  -0.942  52.955  1.00  0.00     0.026 C 
ENDBRANCH   1  30
TORSDOF 2
ENDMDL
MODEL 9
REMARK VINA RESULT:      -7.8      7.904     10.204
REMARK  2 active torsions:
REMARK  status: ('A' for Active; 'I' for Inactive)
REMARK    1  A    between atoms: C2_2  and  N1_3 
REMARK    2  A    between atoms: C7_10  and  N3_11 
ROOT
HETATM    1  N1  UNL     1      23.804   6.229  50.728  1.00  0.00    -0.400 N 
HETATM    2  C3  UNL     1      23.741   7.680  50.940  1.00  0.00     0.212 C 
HETATM    3  C4  UNL     1      24.588   8.328  50.039  1.00  0.00    -0.077 C 
HETATM    4  C5  UNL     1      25.268   8.831  49.305  1.00  0.00    -0.004 C 
HETATM    5  C6  UNL     1      26.111   9.428  48.391  1.00  0.00     0.298 C 
HETATM    6  O1  UNL     1      26.091  10.204  47.442  1.00  0.00    -0.258 OA
HETATM    7  N2  UNL     1      27.507   9.326  48.225  1.00  0.00    -0.325 N 
HETATM    8  C7  UNL     1      28.889   9.356  47.850  1.00  0.00     0.224 C 
HETATM    9  C15 UNL     1      29.494   7.997  47.771  1.00  0.00     0.043 C 
HETATM   10  C16 UNL     1      29.299   6.701  47.978  1.00  0.00     0.057 A 
HETATM   11 CL1  UNL     1      30.274   5.272  47.772  1.00  0.00    -0.131 Cl
HETATM   12  C17 UNL     1      28.395   5.641  48.368  1.00  0.00     0.225 A 
HETATM   13  F1  UNL     1      27.378   6.501  48.447  1.00  0.00    -0.215 F 
HETATM   14  C18 UNL     1      27.611   4.591  48.721  1.00  0.00     0.038 C 
HETATM   15  C19 UNL     1      26.259   4.312  49.139  1.00  0.00    -0.002 C 
HETATM   16  C20 UNL     1      25.034   4.569  49.447  1.00  0.00    -0.008 C 
HETATM   17  C21 UNL     1      24.239   5.809  49.494  1.00  0.00     0.145 C 
HETATM   18  H8  UNL     1      27.731   8.876  49.135  1.00  0.00     0.165 HD
ENDROOT
BRANCH   8  19
HETATM   19  N3  UNL     1      29.718  10.188  48.690  1.00  0.00    -0.317 N 
HETATM   20  C8  UNL     1      29.360  11.565  48.656  1.00  0.00     0.180 C 
HETATM   21  C9  UNL     1      29.810  12.091  47.317  1.00  0.00    -0.010 A 
HETATM   22  C10 UNL     1      29.214  12.921  46.501  1.00  0.00     0.144 A 
HETATM   23  C13 UNL     1      31.113  11.552  46.936  1.00  0.00    -0.035 A 
HETATM   24  O2  UNL     1      29.832  13.255  45.324  1.00  0.00    -0.359 OA
HETATM   25  C11 UNL     1      31.072  12.810  44.858  1.00  0.00     0.202 A 
HETATM   26  C12 UNL     1      31.714  11.872  45.800  1.00  0.00     0.008 A 
HETATM   27  C14 UNL     1      31.860  10.601  47.779  1.00  0.00     0.149 C 
HETATM   28  N4  UNL     1      31.031   9.872  48.711  1.00  0.00    -0.236 NA
HETATM   29  H18 UNL     1      31.422   9.861  49.677  1.00  0.00     0.146 HD
ENDBRANCH   8  19
BRANCH   1  30
HETATM   30  C2  UNL     1      22.842   5.594  51.489  1.00  0.00     0.113 C 
HETATM   31  C1  UNL     1      23.269   4.744  52.655  1.00  0.00     0.026 C 
ENDBRANCH   1  30
TORSDOF 2
ENDMDL
