MODEL 1
REMARK VINA RESULT:      -7.2      0.000      0.000
REMARK  5 active torsions:
REMARK  status: ('A' for Active; 'I' for Inactive)
REMARK    1  A    between atoms: C7_8  and  N1_9 
REMARK    2  A    between atoms: N1_9  and  C8_10 
REMARK    3  A    between atoms: C9_11  and  C10_12 
REMARK    4  A    between atoms: C10_12  and  N2_13 
REMARK    5  A    between atoms: N2_13  and  C11_14 
ROOT
HETATM    1  C8  UNL     1      24.979   1.813  51.811  1.00  0.00     0.081 C 
HETATM    2  C9  UNL     1      24.095   2.221  50.919  1.00  0.00     0.009 C 
ENDROOT
BRANCH   1   3
HETATM    3  N1  UNL     1      26.313   1.870  52.257  1.00  0.00    -0.388 N 
HETATM    4  H7  UNL     1      26.930   2.470  51.666  1.00  0.00     0.159 HD
BRANCH   3   5
HETATM    5  C7  UNL     1      26.712   1.124  53.450  1.00  0.00     0.134 C 
HETATM    6  C2  UNL     1      28.197   1.168  53.507  1.00  0.00    -0.056 C 
HETATM    7  C1  UNL     1      28.840   2.479  53.770  1.00  0.00     0.046 C 
HETATM    8  C3  UNL     1      28.866   0.041  53.320  1.00  0.00     0.029 C 
HETATM    9  C4  UNL     1      28.189  -1.224  53.064  1.00  0.00     0.045 C 
HETATM   10 CL1  UNL     1      28.977  -2.770  53.241  1.00  0.00    -0.083 Cl
HETATM   11  C5  UNL     1      26.928  -1.140  52.685  1.00  0.00    -0.004 C 
HETATM   12  C6  UNL     1      26.205  -0.263  53.346  1.00  0.00     0.016 C 
ENDBRANCH   3   5
ENDBRANCH   1   3
BRANCH   2  13
HETATM   13  C10 UNL     1      22.661   1.769  50.962  1.00  0.00     0.148 C 
BRANCH  13  14
HETATM   14  N2  UNL     1      22.267   1.806  52.370  1.00  0.00    -0.386 N 
HETATM   15  H12 UNL     1      22.339   2.655  52.975  1.00  0.00     0.160 HD
BRANCH  14  16
HETATM   16  C11 UNL     1      21.739   0.644  53.035  1.00  0.00     0.029 A 
HETATM   17  C12 UNL     1      22.484  -0.186  53.877  1.00  0.00     0.029 A 
HETATM   18  C13 UNL     1      21.910  -1.277  54.475  1.00  0.00     0.004 A 
HETATM   19  C14 UNL     1      20.580  -1.587  54.264  1.00  0.00     0.019 A 
HETATM   20  C15 UNL     1      19.834  -0.775  53.436  1.00  0.00     0.013 A 
HETATM   21 BR1  UNL     1      18.012  -1.290  53.212  1.00  0.00    -0.051 Br
HETATM   22  C16 UNL     1      20.402   0.336  52.820  1.00  0.00     0.048 A 
ENDBRANCH  14  16
ENDBRANCH  13  14
ENDBRANCH   2  13
TORSDOF 5
ENDMDL
MODEL 2
REMARK VINA RESULT:      -7.0      3.281      4.972
REMARK  5 active torsions:
REMARK  status: ('A' for Active; 'I' for Inactive)
REMARK    1  A    between atoms: C7_8  and  N1_9 
REMARK    2  A    between atoms: N1_9  and  C8_10 
REMARK    3  A    between atoms: C9_11  and  C10_12 
REMARK    4  A    between atoms: C10_12  and  N2_13 
REMARK    5  A    between atoms: N2_13  and  C11_14 
ROOT
HETATM    1  C8  UNL     1      26.998   2.062  52.692  1.00  0.00     0.081 C 
HETATM    2  C9  UNL     1      27.695   1.455  53.636  1.00  0.00     0.009 C 
ENDROOT
BRANCH   1   3
HETATM    3  N1  UNL     1      27.019   2.949  51.601  1.00  0.00    -0.388 N 
HETATM    4  H7  UNL     1      27.866   3.560  51.570  1.00  0.00     0.159 HD
BRANCH   3   5
HETATM    5  C7  UNL     1      25.914   2.951  50.644  1.00  0.00     0.134 C 
HETATM    6  C2  UNL     1      25.999   4.229  49.891  1.00  0.00    -0.056 C 
HETATM    7  C1  UNL     1      27.156   4.421  48.980  1.00  0.00     0.046 C 
HETATM    8  C3  UNL     1      25.044   5.129  50.070  1.00  0.00     0.029 C 
HETATM    9  C4  UNL     1      23.927   4.896  50.976  1.00  0.00     0.045 C 
HETATM   10 CL1  UNL     1      22.456   5.832  50.923  1.00  0.00    -0.083 Cl
HETATM   11  C5  UNL     1      24.086   3.924  51.855  1.00  0.00    -0.004 C 
HETATM   12  C6  UNL     1      24.635   2.828  51.380  1.00  0.00     0.016 C 
ENDBRANCH   3   5
ENDBRANCH   1   3
BRANCH   2  13
HETATM   13  C10 UNL     1      27.048   0.516  54.617  1.00  0.00     0.148 C 
BRANCH  13  14
HETATM   14  N2  UNL     1      26.231  -0.400  53.823  1.00  0.00    -0.386 N 
HETATM   15  H12 UNL     1      26.593  -0.952  53.013  1.00  0.00     0.160 HD
BRANCH  14  16
HETATM   16  C11 UNL     1      24.836  -0.608  54.110  1.00  0.00     0.029 A 
HETATM   17  C12 UNL     1      24.357  -1.221  55.270  1.00  0.00     0.029 A 
HETATM   18  C13 UNL     1      23.011  -1.384  55.474  1.00  0.00     0.004 A 
HETATM   19  C14 UNL     1      22.092  -0.948  54.539  1.00  0.00     0.019 A 
HETATM   20  C15 UNL     1      22.553  -0.340  53.390  1.00  0.00     0.013 A 
HETATM   21 BR1  UNL     1      21.205   0.225  52.166  1.00  0.00    -0.051 Br
HETATM   22  C16 UNL     1      23.916  -0.168  53.168  1.00  0.00     0.048 A 
ENDBRANCH  14  16
ENDBRANCH  13  14
ENDBRANCH   2  13
TORSDOF 5
ENDMDL
MODEL 3
REMARK VINA RESULT:      -7.0      4.704      5.973
REMARK  5 active torsions:
REMARK  status: ('A' for Active; 'I' for Inactive)
REMARK    1  A    between atoms: C7_8  and  N1_9 
REMARK    2  A    between atoms: N1_9  and  C8_10 
REMARK    3  A    between atoms: C9_11  and  C10_12 
REMARK    4  A    between atoms: C10_12  and  N2_13 
REMARK    5  A    between atoms: N2_13  and  C11_14 
ROOT
HETATM    1  C8  UNL     1      24.173   5.043  51.157  1.00  0.00     0.081 C 
HETATM    2  C9  UNL     1      23.193   5.176  52.032  1.00  0.00     0.009 C 
ENDROOT
BRANCH   1   3
HETATM    3  N1  UNL     1      25.326   5.612  50.586  1.00  0.00    -0.388 N 
HETATM    4  H7  UNL     1      25.912   6.148  51.264  1.00  0.00     0.159 HD
BRANCH   3   5
HETATM    5  C7  UNL     1      25.602   5.422  49.163  1.00  0.00     0.134 C 
HETATM    6  C2  UNL     1      26.784   4.526  49.070  1.00  0.00    -0.056 C 
HETATM    7  C1  UNL     1      26.622   3.119  49.513  1.00  0.00     0.046 C 
HETATM    8  C3  UNL     1      27.917   5.027  48.601  1.00  0.00     0.029 C 
HETATM    9  C4  UNL     1      28.027   6.417  48.178  1.00  0.00     0.045 C 
HETATM   10 CL1  UNL     1      29.330   6.998  47.174  1.00  0.00    -0.083 Cl
HETATM   11  C5  UNL     1      27.077   7.229  48.601  1.00  0.00    -0.004 C 
HETATM   12  C6  UNL     1      25.859   6.740  48.539  1.00  0.00     0.016 C 
ENDBRANCH   3   5
ENDBRANCH   1   3
BRANCH   2  13
HETATM   13  C10 UNL     1      22.141   4.116  52.210  1.00  0.00     0.148 C 
BRANCH  13  14
HETATM   14  N2  UNL     1      22.627   2.939  51.491  1.00  0.00    -0.386 N 
HETATM   15  H12 UNL     1      22.659   2.862  50.450  1.00  0.00     0.160 HD
BRANCH  14  16
HETATM   16  C11 UNL     1      23.105   1.774  52.189  1.00  0.00     0.029 A 
HETATM   17  C12 UNL     1      22.321   0.990  53.039  1.00  0.00     0.029 A 
HETATM   18  C13 UNL     1      22.849  -0.106  53.670  1.00  0.00     0.004 A 
HETATM   19  C14 UNL     1      24.170  -0.467  53.483  1.00  0.00     0.019 A 
HETATM   20  C15 UNL     1      24.953   0.299  52.647  1.00  0.00     0.013 A 
HETATM   21 BR1  UNL     1      26.759  -0.285  52.458  1.00  0.00    -0.051 Br
HETATM   22  C16 UNL     1      24.433   1.415  51.999  1.00  0.00     0.048 A 
ENDBRANCH  14  16
ENDBRANCH  13  14
ENDBRANCH   2  13
TORSDOF 5
ENDMDL
MODEL 4
REMARK VINA RESULT:      -7.0      4.375      6.537
REMARK  5 active torsions:
REMARK  status: ('A' for Active; 'I' for Inactive)
REMARK    1  A    between atoms: C7_8  and  N1_9 
REMARK    2  A    between atoms: N1_9  and  C8_10 
REMARK    3  A    between atoms: C9_11  and  C10_12 
REMARK    4  A    between atoms: C10_12  and  N2_13 
REMARK    5  A    between atoms: N2_13  and  C11_14 
ROOT
HETATM    1  C8  UNL     1      24.202   3.312  52.439  1.00  0.00     0.081 C 
HETATM    2  C9  UNL     1      23.597   4.483  52.523  1.00  0.00     0.009 C 
ENDROOT
BRANCH   1   3
HETATM    3  N1  UNL     1      24.599   2.141  53.112  1.00  0.00    -0.388 N 
HETATM    4  H7  UNL     1      24.586   2.228  54.152  1.00  0.00     0.159 HD
BRANCH   3   5
HETATM    5  C7  UNL     1      24.980   0.956  52.345  1.00  0.00     0.134 C 
HETATM    6  C2  UNL     1      24.876  -0.205  53.267  1.00  0.00    -0.056 C 
HETATM    7  C1  UNL     1      23.524  -0.598  53.735  1.00  0.00     0.046 C 
HETATM    8  C3  UNL     1      25.990  -0.824  53.624  1.00  0.00     0.029 C 
HETATM    9  C4  UNL     1      27.297  -0.400  53.138  1.00  0.00     0.045 C 
HETATM   10 CL1  UNL     1      28.712  -1.418  53.223  1.00  0.00    -0.083 Cl
HETATM   11  C5  UNL     1      27.358   0.812  52.622  1.00  0.00    -0.004 C 
HETATM   12  C6  UNL     1      26.357   1.132  51.832  1.00  0.00     0.016 C 
ENDBRANCH   3   5
ENDBRANCH   1   3
BRANCH   2  13
HETATM   13  C10 UNL     1      23.470   5.395  51.334  1.00  0.00     0.148 C 
BRANCH  13  14
HETATM   14  N2  UNL     1      23.994   4.648  50.192  1.00  0.00    -0.386 N 
HETATM   15  H12 UNL     1      23.514   3.824  49.763  1.00  0.00     0.160 HD
BRANCH  14  16
HETATM   16  C11 UNL     1      25.239   5.005  49.565  1.00  0.00     0.029 A 
HETATM   17  C12 UNL     1      26.352   4.162  49.492  1.00  0.00     0.029 A 
HETATM   18  C13 UNL     1      27.505   4.574  48.878  1.00  0.00     0.004 A 
HETATM   19  C14 UNL     1      27.601   5.832  48.314  1.00  0.00     0.019 A 
HETATM   20  C15 UNL     1      26.510   6.672  48.379  1.00  0.00     0.013 A 
HETATM   21 BR1  UNL     1      26.746   8.383  47.571  1.00  0.00    -0.051 Br
HETATM   22  C16 UNL     1      25.331   6.270  49.000  1.00  0.00     0.048 A 
ENDBRANCH  14  16
ENDBRANCH  13  14
ENDBRANCH   2  13
TORSDOF 5
ENDMDL
MODEL 5
REMARK VINA RESULT:      -7.0      3.477      6.989
REMARK  5 active torsions:
REMARK  status: ('A' for Active; 'I' for Inactive)
REMARK    1  A    between atoms: C7_8  and  N1_9 
REMARK    2  A    between atoms: N1_9  and  C8_10 
REMARK    3  A    between atoms: C9_11  and  C10_12 
REMARK    4  A    between atoms: C10_12  and  N2_13 
REMARK    5  A    between atoms: N2_13  and  C11_14 
ROOT
HETATM    1  C8  UNL     1      23.712   2.076  51.769  1.00  0.00     0.081 C 
HETATM    2  C9  UNL     1      24.396   2.754  50.865  1.00  0.00     0.009 C 
ENDROOT
BRANCH   1   3
HETATM    3  N1  UNL     1      22.443   1.681  52.231  1.00  0.00    -0.388 N 
HETATM    4  H7  UNL     1      21.948   2.415  52.784  1.00  0.00     0.159 HD
BRANCH   3   5
HETATM    5  C7  UNL     1      21.940   0.343  51.921  1.00  0.00     0.134 C 
HETATM    6  C2  UNL     1      20.749   0.523  51.051  1.00  0.00    -0.056 C 
HETATM    7  C1  UNL     1      20.964   1.064  49.685  1.00  0.00     0.046 C 
HETATM    8  C3  UNL     1      19.561   0.195  51.536  1.00  0.00     0.029 C 
HETATM    9  C4  UNL     1      19.400  -0.333  52.885  1.00  0.00     0.045 C 
HETATM   10 CL1  UNL     1      17.960  -1.168  53.406  1.00  0.00    -0.083 Cl
HETATM   11  C5  UNL     1      20.415  -0.144  53.707  1.00  0.00    -0.004 C 
HETATM   12  C6  UNL     1      21.602  -0.352  53.183  1.00  0.00     0.016 C 
ENDBRANCH   3   5
ENDBRANCH   1   3
BRANCH   2  13
HETATM   13  C10 UNL     1      25.898   2.814  50.891  1.00  0.00     0.148 C 
BRANCH  13  14
HETATM   14  N2  UNL     1      26.280   2.799  52.303  1.00  0.00    -0.386 N 
HETATM   15  H12 UNL     1      25.906   3.466  53.016  1.00  0.00     0.160 HD
BRANCH  14  16
HETATM   16  C11 UNL     1      27.221   1.840  52.819  1.00  0.00     0.029 A 
HETATM   17  C12 UNL     1      28.358   2.176  53.557  1.00  0.00     0.029 A 
HETATM   18  C13 UNL     1      29.210   1.204  54.015  1.00  0.00     0.004 A 
HETATM   19  C14 UNL     1      28.968  -0.132  53.761  1.00  0.00     0.019 A 
HETATM   20  C15 UNL     1      27.848  -0.476  53.034  1.00  0.00     0.013 A 
HETATM   21 BR1  UNL     1      27.606  -2.344  52.739  1.00  0.00    -0.051 Br
HETATM   22  C16 UNL     1      26.973   0.498  52.561  1.00  0.00     0.048 A 
ENDBRANCH  14  16
ENDBRANCH  13  14
ENDBRANCH   2  13
TORSDOF 5
ENDMDL
MODEL 6
REMARK VINA RESULT:      -6.8      3.534      5.370
REMARK  5 active torsions:
REMARK  status: ('A' for Active; 'I' for Inactive)
REMARK    1  A    between atoms: C7_8  and  N1_9 
REMARK    2  A    between atoms: N1_9  and  C8_10 
REMARK    3  A    between atoms: C9_11  and  C10_12 
REMARK    4  A    between atoms: C10_12  and  N2_13 
REMARK    5  A    between atoms: N2_13  and  C11_14 
ROOT
HETATM    1  C8  UNL     1      26.517   2.797  50.776  1.00  0.00     0.081 C 
HETATM    2  C9  UNL     1      26.525   3.316  49.562  1.00  0.00     0.009 C 
ENDROOT
BRANCH   1   3
HETATM    3  N1  UNL     1      26.714   1.650  51.567  1.00  0.00    -0.388 N 
HETATM    4  H7  UNL     1      27.282   0.909  51.100  1.00  0.00     0.159 HD
BRANCH   3   5
HETATM    5  C7  UNL     1      26.138   1.585  52.909  1.00  0.00     0.134 C 
HETATM    6  C2  UNL     1      26.334   0.194  53.395  1.00  0.00    -0.056 C 
HETATM    7  C1  UNL     1      27.723  -0.255  53.665  1.00  0.00     0.046 C 
HETATM    8  C3  UNL     1      25.266  -0.571  53.558  1.00  0.00     0.029 C 
HETATM    9  C4  UNL     1      23.921  -0.085  53.279  1.00  0.00     0.045 C 
HETATM   10 CL1  UNL     1      22.486  -0.878  53.876  1.00  0.00    -0.083 Cl
HETATM   11  C5  UNL     1      23.840   1.005  52.538  1.00  0.00    -0.004 C 
HETATM   12  C6  UNL     1      24.704   1.948  52.840  1.00  0.00     0.016 C 
ENDBRANCH   3   5
ENDBRANCH   1   3
BRANCH   2  13
HETATM   13  C10 UNL     1      26.191   4.761  49.317  1.00  0.00     0.148 C 
BRANCH  13  14
HETATM   14  N2  UNL     1      25.662   5.275  50.580  1.00  0.00    -0.386 N 
HETATM   15  H12 UNL     1      26.207   5.307  51.471  1.00  0.00     0.160 HD
BRANCH  14  16
HETATM   16  C11 UNL     1      24.321   5.784  50.684  1.00  0.00     0.029 A 
HETATM   17  C12 UNL     1      23.980   7.133  50.551  1.00  0.00     0.029 A 
HETATM   18  C13 UNL     1      22.677   7.542  50.663  1.00  0.00     0.004 A 
HETATM   19  C14 UNL     1      21.664   6.634  50.910  1.00  0.00     0.019 A 
HETATM   20  C15 UNL     1      21.988   5.301  51.043  1.00  0.00     0.013 A 
HETATM   21 BR1  UNL     1      20.519   4.132  51.381  1.00  0.00    -0.051 Br
HETATM   22  C16 UNL     1      23.306   4.868  50.932  1.00  0.00     0.048 A 
ENDBRANCH  14  16
ENDBRANCH  13  14
ENDBRANCH   2  13
TORSDOF 5
ENDMDL
MODEL 7
REMARK VINA RESULT:      -6.8      3.777      6.063
REMARK  5 active torsions:
REMARK  status: ('A' for Active; 'I' for Inactive)
REMARK    1  A    between atoms: C7_8  and  N1_9 
REMARK    2  A    between atoms: N1_9  and  C8_10 
REMARK    3  A    between atoms: C9_11  and  C10_12 
REMARK    4  A    between atoms: C10_12  and  N2_13 
REMARK    5  A    between atoms: N2_13  and  C11_14 
ROOT
HETATM    1  C8  UNL     1      23.425   1.235  51.622  1.00  0.00     0.081 C 
HETATM    2  C9  UNL     1      22.623   0.534  52.403  1.00  0.00     0.009 C 
ENDROOT
BRANCH   1   3
HETATM    3  N1  UNL     1      23.556   2.332  50.751  1.00  0.00    -0.388 N 
HETATM    4  H7  UNL     1      23.002   2.240  49.871  1.00  0.00     0.159 HD
BRANCH   3   5
HETATM    5  C7  UNL     1      24.411   3.459  51.123  1.00  0.00     0.134 C 
HETATM    6  C2  UNL     1      24.156   4.538  50.134  1.00  0.00    -0.056 C 
HETATM    7  C1  UNL     1      22.821   5.186  50.146  1.00  0.00     0.046 C 
HETATM    8  C3  UNL     1      25.127   4.863  49.296  1.00  0.00     0.029 C 
HETATM    9  C4  UNL     1      26.423   4.197  49.322  1.00  0.00     0.045 C 
HETATM   10 CL1  UNL     1      27.843   4.862  48.558  1.00  0.00    -0.083 Cl
HETATM   11  C5  UNL     1      26.469   3.045  49.964  1.00  0.00    -0.004 C 
HETATM   12  C6  UNL     1      25.824   3.019  51.108  1.00  0.00     0.016 C 
ENDBRANCH   3   5
ENDBRANCH   1   3
BRANCH   2  13
HETATM   13  C10 UNL     1      23.110  -0.669  53.162  1.00  0.00     0.148 C 
BRANCH  13  14
HETATM   14  N2  UNL     1      24.160  -0.185  54.057  1.00  0.00    -0.386 N 
HETATM   15  H12 UNL     1      23.978   0.248  54.991  1.00  0.00     0.160 HD
BRANCH  14  16
HETATM   16  C11 UNL     1      25.552  -0.273  53.704  1.00  0.00     0.029 A 
HETATM   17  C12 UNL     1      26.159  -1.417  53.179  1.00  0.00     0.029 A 
HETATM   18  C13 UNL     1      27.493  -1.424  52.867  1.00  0.00     0.004 A 
HETATM   19  C14 UNL     1      28.276  -0.302  53.060  1.00  0.00     0.019 A 
HETATM   20  C15 UNL     1      27.688   0.834  53.576  1.00  0.00     0.013 A 
HETATM   21 BR1  UNL     1      28.854   2.325  53.803  1.00  0.00    -0.051 Br
HETATM   22  C16 UNL     1      26.335   0.858  53.900  1.00  0.00     0.048 A 
ENDBRANCH  14  16
ENDBRANCH  13  14
ENDBRANCH   2  13
TORSDOF 5
ENDMDL
MODEL 8
REMARK VINA RESULT:      -6.7      2.938      4.248
REMARK  5 active torsions:
REMARK  status: ('A' for Active; 'I' for Inactive)
REMARK    1  A    between atoms: C7_8  and  N1_9 
REMARK    2  A    between atoms: N1_9  and  C8_10 
REMARK    3  A    between atoms: C9_11  and  C10_12 
REMARK    4  A    between atoms: C10_12  and  N2_13 
REMARK    5  A    between atoms: N2_13  and  C11_14 
ROOT
HETATM    1  C8  UNL     1      26.526   2.792  50.847  1.00  0.00     0.081 C 
HETATM    2  C9  UNL     1      26.510   3.458  49.707  1.00  0.00     0.009 C 
ENDROOT
BRANCH   1   3
HETATM    3  N1  UNL     1      26.886   1.604  51.510  1.00  0.00    -0.388 N 
HETATM    4  H7  UNL     1      27.418   0.932  50.914  1.00  0.00     0.159 HD
BRANCH   3   5
HETATM    5  C7  UNL     1      26.508   1.410  52.910  1.00  0.00     0.134 C 
HETATM    6  C2  UNL     1      26.648  -0.041  53.196  1.00  0.00    -0.056 C 
HETATM    7  C1  UNL     1      28.016  -0.618  53.194  1.00  0.00     0.046 C 
HETATM    8  C3  UNL     1      25.551  -0.743  53.435  1.00  0.00     0.029 C 
HETATM    9  C4  UNL     1      24.228  -0.131  53.424  1.00  0.00     0.045 C 
HETATM   10 CL1  UNL     1      22.831  -0.891  54.142  1.00  0.00    -0.083 Cl
HETATM   11  C5  UNL     1      24.138   1.046  52.835  1.00  0.00    -0.004 C 
HETATM   12  C6  UNL     1      25.117   1.880  53.105  1.00  0.00     0.016 C 
ENDBRANCH   3   5
ENDBRANCH   1   3
BRANCH   2  13
HETATM   13  C10 UNL     1      25.927   4.841  49.607  1.00  0.00     0.148 C 
BRANCH  13  14
HETATM   14  N2  UNL     1      24.546   4.667  49.158  1.00  0.00    -0.386 N 
HETATM   15  H12 UNL     1      24.225   4.834  48.178  1.00  0.00     0.160 HD
BRANCH  14  16
HETATM   16  C11 UNL     1      23.508   4.246  50.061  1.00  0.00     0.029 A 
HETATM   17  C12 UNL     1      23.152   4.933  51.225  1.00  0.00     0.029 A 
HETATM   18  C13 UNL     1      22.151   4.467  52.036  1.00  0.00     0.004 A 
HETATM   19  C14 UNL     1      21.465   3.307  51.728  1.00  0.00     0.019 A 
HETATM   20  C15 UNL     1      21.808   2.621  50.583  1.00  0.00     0.013 A 
HETATM   21 BR1  UNL     1      20.803   1.035  50.249  1.00  0.00    -0.051 Br
HETATM   22  C16 UNL     1      22.822   3.079  49.748  1.00  0.00     0.048 A 
ENDBRANCH  14  16
ENDBRANCH  13  14
ENDBRANCH   2  13
TORSDOF 5
ENDMDL
MODEL 9
REMARK VINA RESULT:      -6.7      6.117      8.474
REMARK  5 active torsions:
REMARK  status: ('A' for Active; 'I' for Inactive)
REMARK    1  A    between atoms: C7_8  and  N1_9 
REMARK    2  A    between atoms: N1_9  and  C8_10 
REMARK    3  A    between atoms: C9_11  and  C10_12 
REMARK    4  A    between atoms: C10_12  and  N2_13 
REMARK    5  A    between atoms: N2_13  and  C11_14 
ROOT
HETATM    1  C8  UNL     1      26.399   2.848  50.663  1.00  0.00     0.081 C 
HETATM    2  C9  UNL     1      26.424   3.531  49.533  1.00  0.00     0.009 C 
ENDROOT
BRANCH   1   3
HETATM    3  N1  UNL     1      26.631   1.613  51.296  1.00  0.00    -0.388 N 
HETATM    4  H7  UNL     1      27.023   0.881  50.663  1.00  0.00     0.159 HD
BRANCH   3   5
HETATM    5  C7  UNL     1      26.320   1.455  52.716  1.00  0.00     0.134 C 
HETATM    6  C2  UNL     1      26.495   0.014  53.037  1.00  0.00    -0.056 C 
HETATM    7  C1  UNL     1      27.870  -0.543  52.989  1.00  0.00     0.046 C 
HETATM    8  C3  UNL     1      25.422  -0.695  53.347  1.00  0.00     0.029 C 
HETATM    9  C4  UNL     1      24.091  -0.103  53.380  1.00  0.00     0.045 C 
HETATM   10 CL1  UNL     1      22.740  -0.861  54.183  1.00  0.00    -0.083 Cl
HETATM   11  C5  UNL     1      23.955   1.055  52.762  1.00  0.00    -0.004 C 
HETATM   12  C6  UNL     1      24.933   1.910  52.962  1.00  0.00     0.016 C 
ENDBRANCH   3   5
ENDBRANCH   1   3
BRANCH   2  13
HETATM   13  C10 UNL     1      26.019   4.978  49.475  1.00  0.00     0.148 C 
BRANCH  13  14
HETATM   14  N2  UNL     1      27.260   5.742  49.356  1.00  0.00    -0.386 N 
HETATM   15  H12 UNL     1      28.058   5.668  50.027  1.00  0.00     0.160 HD
BRANCH  14  16
HETATM   16  C11 UNL     1      27.472   6.674  48.280  1.00  0.00     0.029 A 
HETATM   17  C12 UNL     1      26.471   7.480  47.731  1.00  0.00     0.029 A 
HETATM   18  C13 UNL     1      26.751   8.344  46.704  1.00  0.00     0.004 A 
HETATM   19  C14 UNL     1      28.027   8.443  46.184  1.00  0.00     0.019 A 
HETATM   20  C15 UNL     1      29.023   7.653  46.718  1.00  0.00     0.013 A 
HETATM   21 BR1  UNL     1      30.746   7.865  45.930  1.00  0.00    -0.051 Br
HETATM   22  C16 UNL     1      28.756   6.769  47.760  1.00  0.00     0.048 A 
ENDBRANCH  14  16
ENDBRANCH  13  14
ENDBRANCH   2  13
TORSDOF 5
ENDMDL
