MODEL 1
REMARK VINA RESULT:      -8.2      0.000      0.000
REMARK  6 active torsions:
REMARK  status: ('A' for Active; 'I' for Inactive)
REMARK    1  A    between atoms: O1_2  and  C2_3 
REMARK    2  A    between atoms: C5_6  and  N1_7 
REMARK    3  A    between atoms: N1_7  and  C6_8 
REMARK    4  A    between atoms: C9_13  and  N4_14 
REMARK    5  A    between atoms: N4_14  and  C10_15 
REMARK    6  A    between atoms: C16_22  and  O2_23 
ROOT
HETATM    1  C6  UNL     1      27.062   0.384  53.418  1.00  0.00     0.097 A 
HETATM    2  C7  UNL     1      27.716   0.205  54.631  1.00  0.00     0.151 A 
HETATM    3  N2  UNL     1      28.627   1.158  54.945  1.00  0.00    -0.252 NA
HETATM    4  C8  UNL     1      28.842   2.171  54.108  1.00  0.00     0.235 A 
HETATM    5  N3  UNL     1      28.186   2.327  52.917  1.00  0.00    -0.222 NA
HETATM    6  C9  UNL     1      27.261   1.410  52.542  1.00  0.00     0.157 A 
ENDROOT
BRANCH   1   7
HETATM    7  N1  UNL     1      26.091  -0.622  53.120  1.00  0.00    -0.350 N 
HETATM    8  H6  UNL     1      26.340  -1.428  52.505  1.00  0.00     0.166 HD
BRANCH   7   9
HETATM    9  C5  UNL     1      24.771  -0.546  53.646  1.00  0.00     0.066 A 
HETATM   10  C4  UNL     1      23.956   0.134  52.724  1.00  0.00     0.035 A 
HETATM   11  C3  UNL     1      22.598   0.348  52.997  1.00  0.00     0.039 A 
HETATM   12  C2  UNL     1      22.100  -0.141  54.211  1.00  0.00     0.070 A 
HETATM   13  C17 UNL     1      22.905  -0.800  55.100  1.00  0.00     0.075 A 
HETATM   14  C16 UNL     1      24.231  -1.008  54.837  1.00  0.00     0.095 A 
BRANCH  12  15
HETATM   15  O1  UNL     1      20.723   0.113  54.414  1.00  0.00    -0.356 OA
HETATM   16  C1  UNL     1      19.763  -0.403  53.508  1.00  0.00     0.210 C 
ENDBRANCH  12  15
BRANCH  14  17
HETATM   17  O2  UNL     1      25.141  -1.648  55.652  1.00  0.00    -0.358 OA
HETATM   18  H14 UNL     1      26.126  -1.654  55.416  1.00  0.00     0.217 HD
ENDBRANCH  14  17
ENDBRANCH   7   9
ENDBRANCH   1   7
BRANCH   6  19
HETATM   19  N4  UNL     1      26.614   1.568  51.306  1.00  0.00    -0.339 N 
HETATM   20  H9  UNL     1      26.519   0.697  50.707  1.00  0.00     0.167 HD
BRANCH  19  21
HETATM   21  C10 UNL     1      26.073   2.794  50.790  1.00  0.00     0.035 A 
HETATM   22  C11 UNL     1      26.674   3.448  49.733  1.00  0.00     0.029 A 
HETATM   23  C12 UNL     1      26.204   4.605  49.171  1.00  0.00     0.004 A 
HETATM   24  C13 UNL     1      25.037   5.158  49.709  1.00  0.00     0.019 A 
HETATM   25  C14 UNL     1      24.417   4.518  50.770  1.00  0.00     0.013 A 
HETATM   26 BR1  UNL     1      22.821   5.350  51.440  1.00  0.00    -0.051 Br
HETATM   27  C15 UNL     1      24.918   3.334  51.327  1.00  0.00     0.048 A 
ENDBRANCH  19  21
ENDBRANCH   6  19
TORSDOF 6
ENDMDL
MODEL 2
REMARK VINA RESULT:      -7.9      2.975      5.950
REMARK  6 active torsions:
REMARK  status: ('A' for Active; 'I' for Inactive)
REMARK    1  A    between atoms: O1_2  and  C2_3 
REMARK    2  A    between atoms: C5_6  and  N1_7 
REMARK    3  A    between atoms: N1_7  and  C6_8 
REMARK    4  A    between atoms: C9_13  and  N4_14 
REMARK    5  A    between atoms: N4_14  and  C10_15 
REMARK    6  A    between atoms: C16_22  and  O2_23 
ROOT
HETATM    1  C6  UNL     1      25.539   2.880  51.694  1.00  0.00     0.097 A 
HETATM    2  C7  UNL     1      26.409   3.101  50.634  1.00  0.00     0.151 A 
HETATM    3  N2  UNL     1      25.820   3.292  49.428  1.00  0.00    -0.252 NA
HETATM    4  C8  UNL     1      24.492   3.256  49.327  1.00  0.00     0.235 A 
HETATM    5  N3  UNL     1      23.653   3.036  50.386  1.00  0.00    -0.222 NA
HETATM    6  C9  UNL     1      24.178   2.838  51.619  1.00  0.00     0.157 A 
ENDROOT
BRANCH   1   7
HETATM    7  N1  UNL     1      26.185   2.703  52.957  1.00  0.00    -0.350 N 
HETATM    8  H6  UNL     1      25.943   3.320  53.763  1.00  0.00     0.166 HD
BRANCH   7   9
HETATM    9  C5  UNL     1      27.171   1.693  53.141  1.00  0.00     0.066 A 
HETATM   10  C4  UNL     1      26.545   0.435  53.088  1.00  0.00     0.035 A 
HETATM   11  C3  UNL     1      27.294  -0.739  53.241  1.00  0.00     0.039 A 
HETATM   12  C2  UNL     1      28.673  -0.602  53.445  1.00  0.00     0.070 A 
HETATM   13  C17 UNL     1      29.269   0.629  53.496  1.00  0.00     0.075 A 
HETATM   14  C16 UNL     1      28.539   1.776  53.348  1.00  0.00     0.095 A 
BRANCH  12  15
HETATM   15  O1  UNL     1      29.360  -1.830  53.590  1.00  0.00    -0.356 OA
HETATM   16  C1  UNL     1      28.753  -3.039  53.169  1.00  0.00     0.210 C 
ENDBRANCH  12  15
BRANCH  14  17
HETATM   17  O2  UNL     1      29.021   3.068  53.389  1.00  0.00    -0.358 OA
HETATM   18  H14 UNL     1      29.039   3.636  52.549  1.00  0.00     0.217 HD
ENDBRANCH  14  17
ENDBRANCH   7   9
ENDBRANCH   1   7
BRANCH   6  19
HETATM   19  N4  UNL     1      23.307   2.588  52.693  1.00  0.00    -0.339 N 
HETATM   20  H9  UNL     1      23.188   3.372  53.398  1.00  0.00     0.167 HD
BRANCH  19  21
HETATM   21  C10 UNL     1      22.571   1.376  52.914  1.00  0.00     0.035 A 
HETATM   22  C11 UNL     1      23.154   0.293  53.542  1.00  0.00     0.029 A 
HETATM   23  C12 UNL     1      22.509  -0.886  53.810  1.00  0.00     0.004 A 
HETATM   24  C13 UNL     1      21.171  -0.995  53.418  1.00  0.00     0.019 A 
HETATM   25  C14 UNL     1      20.566   0.080  52.786  1.00  0.00     0.013 A 
HETATM   26 BR1  UNL     1      18.728  -0.163  52.286  1.00  0.00    -0.051 Br
HETATM   27  C15 UNL     1      21.247   1.276  52.524  1.00  0.00     0.048 A 
ENDBRANCH  19  21
ENDBRANCH   6  19
TORSDOF 6
ENDMDL
MODEL 3
REMARK VINA RESULT:      -7.8      3.016      5.858
REMARK  6 active torsions:
REMARK  status: ('A' for Active; 'I' for Inactive)
REMARK    1  A    between atoms: O1_2  and  C2_3 
REMARK    2  A    between atoms: C5_6  and  N1_7 
REMARK    3  A    between atoms: N1_7  and  C6_8 
REMARK    4  A    between atoms: C9_13  and  N4_14 
REMARK    5  A    between atoms: N4_14  and  C10_15 
REMARK    6  A    between atoms: C16_22  and  O2_23 
ROOT
HETATM    1  C6  UNL     1      24.874   3.200  51.581  1.00  0.00     0.097 A 
HETATM    2  C7  UNL     1      25.904   3.330  50.657  1.00  0.00     0.151 A 
HETATM    3  N2  UNL     1      25.521   3.700  49.411  1.00  0.00    -0.252 NA
HETATM    4  C8  UNL     1      24.233   3.907  49.147  1.00  0.00     0.235 A 
HETATM    5  N3  UNL     1      23.234   3.772  50.073  1.00  0.00    -0.222 NA
HETATM    6  C9  UNL     1      23.548   3.406  51.340  1.00  0.00     0.157 A 
ENDROOT
BRANCH   1   7
HETATM    7  N1  UNL     1      25.306   2.831  52.893  1.00  0.00    -0.350 N 
HETATM    8  H6  UNL     1      24.990   3.376  53.725  1.00  0.00     0.166 HD
BRANCH   7   9
HETATM    9  C5  UNL     1      26.177   1.723  53.094  1.00  0.00     0.066 A 
HETATM   10  C4  UNL     1      25.539   0.557  52.635  1.00  0.00     0.035 A 
HETATM   11  C3  UNL     1      26.183  -0.685  52.716  1.00  0.00     0.039 A 
HETATM   12  C2  UNL     1      27.470  -0.709  53.265  1.00  0.00     0.070 A 
HETATM   13  C17 UNL     1      28.080   0.434  53.709  1.00  0.00     0.075 A 
HETATM   14  C16 UNL     1      27.453   1.647  53.633  1.00  0.00     0.095 A 
BRANCH  12  15
HETATM   15  O1  UNL     1      28.054  -1.997  53.312  1.00  0.00    -0.356 OA
HETATM   16  C1  UNL     1      29.464  -2.140  53.310  1.00  0.00     0.210 C 
ENDBRANCH  12  15
BRANCH  14  17
HETATM   17  O2  UNL     1      27.957   2.860  54.051  1.00  0.00    -0.358 OA
HETATM   18  H14 UNL     1      28.954   2.986  54.178  1.00  0.00     0.217 HD
ENDBRANCH  14  17
ENDBRANCH   7   9
ENDBRANCH   1   7
BRANCH   6  19
HETATM   19  N4  UNL     1      22.512   3.247  52.275  1.00  0.00    -0.339 N 
HETATM   20  H9  UNL     1      22.360   4.048  52.954  1.00  0.00     0.167 HD
BRANCH  19  21
HETATM   21  C10 UNL     1      21.649   2.105  52.388  1.00  0.00     0.035 A 
HETATM   22  C11 UNL     1      20.463   2.038  51.684  1.00  0.00     0.029 A 
HETATM   23  C12 UNL     1      19.601   0.974  51.721  1.00  0.00     0.004 A 
HETATM   24  C13 UNL     1      19.950  -0.114  52.527  1.00  0.00     0.019 A 
HETATM   25  C14 UNL     1      21.136  -0.067  53.243  1.00  0.00     0.013 A 
HETATM   26 BR1  UNL     1      21.531  -1.606  54.322  1.00  0.00    -0.051 Br
HETATM   27  C15 UNL     1      22.001   1.033  53.188  1.00  0.00     0.048 A 
ENDBRANCH  19  21
ENDBRANCH   6  19
TORSDOF 6
ENDMDL
MODEL 4
REMARK VINA RESULT:      -7.8      2.660      5.382
REMARK  6 active torsions:
REMARK  status: ('A' for Active; 'I' for Inactive)
REMARK    1  A    between atoms: O1_2  and  C2_3 
REMARK    2  A    between atoms: C5_6  and  N1_7 
REMARK    3  A    between atoms: N1_7  and  C6_8 
REMARK    4  A    between atoms: C9_13  and  N4_14 
REMARK    5  A    between atoms: N4_14  and  C10_15 
REMARK    6  A    between atoms: C16_22  and  O2_23 
ROOT
HETATM    1  C6  UNL     1      27.246   1.198  52.788  1.00  0.00     0.097 A 
HETATM    2  C7  UNL     1      28.196   2.176  53.056  1.00  0.00     0.151 A 
HETATM    3  N2  UNL     1      28.926   1.984  54.182  1.00  0.00    -0.252 NA
HETATM    4  C8  UNL     1      28.702   0.914  54.942  1.00  0.00     0.235 A 
HETATM    5  N3  UNL     1      27.759  -0.038  54.659  1.00  0.00    -0.222 NA
HETATM    6  C9  UNL     1      26.995   0.094  53.548  1.00  0.00     0.157 A 
ENDROOT
BRANCH   1   7
HETATM    7  N1  UNL     1      26.505   1.413  51.585  1.00  0.00    -0.350 N 
HETATM    8  H6  UNL     1      26.501   0.690  50.833  1.00  0.00     0.166 HD
BRANCH   7   9
HETATM    9  C5  UNL     1      25.768   2.614  51.382  1.00  0.00     0.066 A 
HETATM   10  C4  UNL     1      24.732   2.673  52.331  1.00  0.00     0.035 A 
HETATM   11  C3  UNL     1      23.849   3.761  52.354  1.00  0.00     0.039 A 
HETATM   12  C2  UNL     1      24.046   4.770  51.403  1.00  0.00     0.070 A 
HETATM   13  C17 UNL     1      25.057   4.699  50.483  1.00  0.00     0.075 A 
HETATM   14  C16 UNL     1      25.919   3.637  50.459  1.00  0.00     0.095 A 
BRANCH  12  15
HETATM   15  O1  UNL     1      23.117   5.834  51.489  1.00  0.00    -0.356 OA
HETATM   16  C1  UNL     1      21.742   5.600  51.239  1.00  0.00     0.210 C 
ENDBRANCH  12  15
BRANCH  14  17
HETATM   17  O2  UNL     1      26.966   3.449  49.582  1.00  0.00    -0.358 OA
HETATM   18  H14 UNL     1      26.805   3.033  48.671  1.00  0.00     0.217 HD
ENDBRANCH  14  17
ENDBRANCH   7   9
ENDBRANCH   1   7
BRANCH   6  19
HETATM   19  N4  UNL     1      26.015  -0.876  53.282  1.00  0.00    -0.339 N 
HETATM   20  H9  UNL     1      26.303  -1.681  52.653  1.00  0.00     0.167 HD
BRANCH  19  21
HETATM   21  C10 UNL     1      24.670  -0.873  53.785  1.00  0.00     0.035 A 
HETATM   22  C11 UNL     1      24.391  -1.290  55.072  1.00  0.00     0.029 A 
HETATM   23  C12 UNL     1      23.140  -1.292  55.630  1.00  0.00     0.004 A 
HETATM   24  C13 UNL     1      22.078  -0.842  54.839  1.00  0.00     0.019 A 
HETATM   25  C14 UNL     1      22.335  -0.419  53.545  1.00  0.00     0.013 A 
HETATM   26 BR1  UNL     1      20.816   0.182  52.536  1.00  0.00    -0.051 Br
HETATM   27  C15 UNL     1      23.625  -0.426  52.997  1.00  0.00     0.048 A 
ENDBRANCH  19  21
ENDBRANCH   6  19
TORSDOF 6
ENDMDL
MODEL 5
REMARK VINA RESULT:      -7.7      3.316      5.042
REMARK  6 active torsions:
REMARK  status: ('A' for Active; 'I' for Inactive)
REMARK    1  A    between atoms: O1_2  and  C2_3 
REMARK    2  A    between atoms: C5_6  and  N1_7 
REMARK    3  A    between atoms: N1_7  and  C6_8 
REMARK    4  A    between atoms: C9_13  and  N4_14 
REMARK    5  A    between atoms: N4_14  and  C10_15 
REMARK    6  A    between atoms: C16_22  and  O2_23 
ROOT
HETATM    1  C6  UNL     1      24.995   3.367  51.568  1.00  0.00     0.097 A 
HETATM    2  C7  UNL     1      24.216   3.172  52.703  1.00  0.00     0.151 A 
HETATM    3  N2  UNL     1      22.885   3.358  52.532  1.00  0.00    -0.252 NA
HETATM    4  C8  UNL     1      22.412   3.706  51.336  1.00  0.00     0.235 A 
HETATM    5  N3  UNL     1      23.198   3.892  50.231  1.00  0.00    -0.222 NA
HETATM    6  C9  UNL     1      24.539   3.722  50.333  1.00  0.00     0.157 A 
ENDROOT
BRANCH   1   7
HETATM    7  N1  UNL     1      26.392   3.144  51.770  1.00  0.00    -0.350 N 
HETATM    8  H6  UNL     1      27.089   3.857  51.461  1.00  0.00     0.166 HD
BRANCH   7   9
HETATM    9  C5  UNL     1      26.863   1.951  52.386  1.00  0.00     0.066 A 
HETATM   10  C4  UNL     1      26.449   0.850  51.614  1.00  0.00     0.035 A 
HETATM   11  C3  UNL     1      26.783  -0.455  52.000  1.00  0.00     0.039 A 
HETATM   12  C2  UNL     1      27.537  -0.608  53.170  1.00  0.00     0.070 A 
HETATM   13  C17 UNL     1      27.932   0.472  53.913  1.00  0.00     0.075 A 
HETATM   14  C16 UNL     1      27.606   1.746  53.539  1.00  0.00     0.095 A 
BRANCH  12  15
HETATM   15  O1  UNL     1      27.834  -1.953  53.493  1.00  0.00    -0.356 OA
HETATM   16  C1  UNL     1      29.090  -2.508  53.144  1.00  0.00     0.210 C 
ENDBRANCH  12  15
BRANCH  14  17
HETATM   17  O2  UNL     1      27.937   2.908  54.204  1.00  0.00    -0.358 OA
HETATM   18  H14 UNL     1      27.361   3.244  54.967  1.00  0.00     0.217 HD
ENDBRANCH  14  17
ENDBRANCH   7   9
ENDBRANCH   1   7
BRANCH   6  19
HETATM   19  N4  UNL     1      25.337   3.941  49.199  1.00  0.00    -0.339 N 
HETATM   20  H9  UNL     1      25.269   3.217  48.426  1.00  0.00     0.167 HD
BRANCH  19  21
HETATM   21  C10 UNL     1      26.226   5.051  48.996  1.00  0.00     0.035 A 
HETATM   22  C11 UNL     1      27.539   4.851  48.618  1.00  0.00     0.029 A 
HETATM   23  C12 UNL     1      28.438   5.857  48.383  1.00  0.00     0.004 A 
HETATM   24  C13 UNL     1      27.991   7.173  48.538  1.00  0.00     0.019 A 
HETATM   25  C14 UNL     1      26.677   7.397  48.917  1.00  0.00     0.013 A 
HETATM   26 BR1  UNL     1      26.155   9.235  49.105  1.00  0.00    -0.051 Br
HETATM   27  C15 UNL     1      25.776   6.349  49.152  1.00  0.00     0.048 A 
ENDBRANCH  19  21
ENDBRANCH   6  19
TORSDOF 6
ENDMDL
MODEL 6
REMARK VINA RESULT:      -7.7      3.042      5.153
REMARK  6 active torsions:
REMARK  status: ('A' for Active; 'I' for Inactive)
REMARK    1  A    between atoms: O1_2  and  C2_3 
REMARK    2  A    between atoms: C5_6  and  N1_7 
REMARK    3  A    between atoms: N1_7  and  C6_8 
REMARK    4  A    between atoms: C9_13  and  N4_14 
REMARK    5  A    between atoms: N4_14  and  C10_15 
REMARK    6  A    between atoms: C16_22  and  O2_23 
ROOT
HETATM    1  C6  UNL     1      22.302   1.838  51.019  1.00  0.00     0.097 A 
HETATM    2  C7  UNL     1      21.564   0.707  50.692  1.00  0.00     0.151 A 
HETATM    3  N2  UNL     1      21.297   0.551  49.372  1.00  0.00    -0.252 NA
HETATM    4  C8  UNL     1      21.735   1.453  48.496  1.00  0.00     0.235 A 
HETATM    5  N3  UNL     1      22.461   2.561  48.841  1.00  0.00    -0.222 NA
HETATM    6  C9  UNL     1      22.764   2.777  50.144  1.00  0.00     0.157 A 
ENDROOT
BRANCH   1   7
HETATM    7  N1  UNL     1      22.589   1.968  52.414  1.00  0.00    -0.350 N 
HETATM    8  H6  UNL     1      21.878   2.374  53.061  1.00  0.00     0.166 HD
BRANCH   7   9
HETATM    9  C5  UNL     1      23.843   1.557  52.946  1.00  0.00     0.066 A 
HETATM   10  C4  UNL     1      23.876   0.152  52.991  1.00  0.00     0.035 A 
HETATM   11  C3  UNL     1      25.007  -0.517  53.477  1.00  0.00     0.039 A 
HETATM   12  C2  UNL     1      26.085   0.267  53.908  1.00  0.00     0.070 A 
HETATM   13  C17 UNL     1      26.038   1.634  53.861  1.00  0.00     0.075 A 
HETATM   14  C16 UNL     1      24.935   2.290  53.388  1.00  0.00     0.095 A 
BRANCH  12  15
HETATM   15  O1  UNL     1      27.188  -0.480  54.384  1.00  0.00    -0.356 OA
HETATM   16  C1  UNL     1      28.372   0.182  54.792  1.00  0.00     0.210 C 
ENDBRANCH  12  15
BRANCH  14  17
HETATM   17  O2  UNL     1      24.766   3.655  53.298  1.00  0.00    -0.358 OA
HETATM   18  H14 UNL     1      23.964   4.043  52.813  1.00  0.00     0.217 HD
ENDBRANCH  14  17
ENDBRANCH   7   9
ENDBRANCH   1   7
BRANCH   6  19
HETATM   19  N4  UNL     1      23.488   3.930  50.489  1.00  0.00    -0.339 N 
HETATM   20  H9  UNL     1      23.079   4.532  51.261  1.00  0.00     0.167 HD
BRANCH  19  21
HETATM   21  C10 UNL     1      24.722   4.358  49.893  1.00  0.00     0.035 A 
HETATM   22  C11 UNL     1      25.834   3.540  49.896  1.00  0.00     0.029 A 
HETATM   23  C12 UNL     1      27.037   3.867  49.327  1.00  0.00     0.004 A 
HETATM   24  C13 UNL     1      27.139   5.115  48.704  1.00  0.00     0.019 A 
HETATM   25  C14 UNL     1      26.035   5.951  48.689  1.00  0.00     0.013 A 
HETATM   26 BR1  UNL     1      26.270   7.643  47.809  1.00  0.00    -0.051 Br
HETATM   27  C15 UNL     1      24.815   5.593  49.278  1.00  0.00     0.048 A 
ENDBRANCH  19  21
ENDBRANCH   6  19
TORSDOF 6
ENDMDL
MODEL 7
REMARK VINA RESULT:      -7.5      3.196      5.398
REMARK  6 active torsions:
REMARK  status: ('A' for Active; 'I' for Inactive)
REMARK    1  A    between atoms: O1_2  and  C2_3 
REMARK    2  A    between atoms: C5_6  and  N1_7 
REMARK    3  A    between atoms: N1_7  and  C6_8 
REMARK    4  A    between atoms: C9_13  and  N4_14 
REMARK    5  A    between atoms: N4_14  and  C10_15 
REMARK    6  A    between atoms: C16_22  and  O2_23 
ROOT
HETATM    1  C6  UNL     1      24.121   2.726  52.165  1.00  0.00     0.097 A 
HETATM    2  C7  UNL     1      23.167   1.756  52.445  1.00  0.00     0.151 A 
HETATM    3  N2  UNL     1      22.279   1.512  51.451  1.00  0.00    -0.252 NA
HETATM    4  C8  UNL     1      22.362   2.189  50.307  1.00  0.00     0.235 A 
HETATM    5  N3  UNL     1      23.311   3.141  50.053  1.00  0.00    -0.222 NA
HETATM    6  C9  UNL     1      24.230   3.434  51.005  1.00  0.00     0.157 A 
ENDROOT
BRANCH   1   7
HETATM    7  N1  UNL     1      25.058   2.950  53.222  1.00  0.00    -0.350 N 
HETATM    8  H6  UNL     1      24.930   3.750  53.879  1.00  0.00     0.166 HD
BRANCH   7   9
HETATM    9  C5  UNL     1      26.184   2.096  53.396  1.00  0.00     0.066 A 
HETATM   10  C4  UNL     1      25.906   1.187  54.432  1.00  0.00     0.035 A 
HETATM   11  C3  UNL     1      26.854   0.228  54.810  1.00  0.00     0.039 A 
HETATM   12  C2  UNL     1      28.071   0.216  54.118  1.00  0.00     0.070 A 
HETATM   13  C17 UNL     1      28.329   1.108  53.112  1.00  0.00     0.075 A 
HETATM   14  C16 UNL     1      27.406   2.046  52.742  1.00  0.00     0.095 A 
BRANCH  12  15
HETATM   15  O1  UNL     1      28.975  -0.780  54.556  1.00  0.00    -0.356 OA
HETATM   16  C1  UNL     1      30.027  -1.209  53.708  1.00  0.00     0.210 C 
ENDBRANCH  12  15
BRANCH  14  17
HETATM   17  O2  UNL     1      27.551   2.998  51.755  1.00  0.00    -0.358 OA
HETATM   18  H14 UNL     1      27.475   2.741  50.778  1.00  0.00     0.217 HD
ENDBRANCH  14  17
ENDBRANCH   7   9
ENDBRANCH   1   7
BRANCH   6  19
HETATM   19  N4  UNL     1      25.183   4.431  50.742  1.00  0.00    -0.339 N 
HETATM   20  H9  UNL     1      26.199   4.170  50.903  1.00  0.00     0.167 HD
BRANCH  19  21
HETATM   21  C10 UNL     1      24.904   5.760  50.276  1.00  0.00     0.035 A 
HETATM   22  C11 UNL     1      24.215   6.661  51.064  1.00  0.00     0.029 A 
HETATM   23  C12 UNL     1      23.932   7.950  50.699  1.00  0.00     0.004 A 
HETATM   24  C13 UNL     1      24.374   8.379  49.443  1.00  0.00     0.019 A 
HETATM   25  C14 UNL     1      25.068   7.492  48.636  1.00  0.00     0.013 A 
HETATM   26 BR1  UNL     1      25.634   8.170  46.930  1.00  0.00    -0.051 Br
HETATM   27  C15 UNL     1      25.344   6.177  49.032  1.00  0.00     0.048 A 
ENDBRANCH  19  21
ENDBRANCH   6  19
TORSDOF 6
ENDMDL
MODEL 8
REMARK VINA RESULT:      -7.5      3.564      5.481
REMARK  6 active torsions:
REMARK  status: ('A' for Active; 'I' for Inactive)
REMARK    1  A    between atoms: O1_2  and  C2_3 
REMARK    2  A    between atoms: C5_6  and  N1_7 
REMARK    3  A    between atoms: N1_7  and  C6_8 
REMARK    4  A    between atoms: C9_13  and  N4_14 
REMARK    5  A    between atoms: N4_14  and  C10_15 
REMARK    6  A    between atoms: C16_22  and  O2_23 
ROOT
HETATM    1  C6  UNL     1      22.478  -0.615  53.291  1.00  0.00     0.097 A 
HETATM    2  C7  UNL     1      21.572  -1.252  54.130  1.00  0.00     0.151 A 
HETATM    3  N2  UNL     1      22.080  -1.692  55.306  1.00  0.00    -0.252 NA
HETATM    4  C8  UNL     1      23.368  -1.502  55.584  1.00  0.00     0.235 A 
HETATM    5  N3  UNL     1      24.244  -0.872  54.743  1.00  0.00    -0.222 NA
HETATM    6  C9  UNL     1      23.801  -0.407  53.550  1.00  0.00     0.157 A 
ENDROOT
BRANCH   1   7
HETATM    7  N1  UNL     1      21.913  -0.141  52.067  1.00  0.00    -0.350 N 
HETATM    8  H6  UNL     1      22.097  -0.646  51.172  1.00  0.00     0.166 HD
BRANCH   7   9
HETATM    9  C5  UNL     1      21.098   1.025  52.038  1.00  0.00     0.066 A 
HETATM   10  C4  UNL     1      19.768   0.641  51.789  1.00  0.00     0.035 A 
HETATM   11  C3  UNL     1      18.753   1.604  51.710  1.00  0.00     0.039 A 
HETATM   12  C2  UNL     1      19.120   2.943  51.890  1.00  0.00     0.070 A 
HETATM   13  C17 UNL     1      20.418   3.303  52.130  1.00  0.00     0.075 A 
HETATM   14  C16 UNL     1      21.411   2.366  52.206  1.00  0.00     0.095 A 
BRANCH  12  15
HETATM   15  O1  UNL     1      18.041   3.854  51.797  1.00  0.00    -0.356 OA
HETATM   16  C1  UNL     1      17.517   4.210  50.530  1.00  0.00     0.210 C 
ENDBRANCH  12  15
BRANCH  14  17
HETATM   17  O2  UNL     1      22.750   2.603  52.434  1.00  0.00    -0.358 OA
HETATM   18  H14 UNL     1      23.390   2.719  51.657  1.00  0.00     0.217 HD
ENDBRANCH  14  17
ENDBRANCH   7   9
ENDBRANCH   1   7
BRANCH   6  19
HETATM   19  N4  UNL     1      24.715   0.216  52.684  1.00  0.00    -0.339 N 
HETATM   20  H9  UNL     1      24.368   0.432  51.705  1.00  0.00     0.167 HD
BRANCH  19  21
HETATM   21  C10 UNL     1      26.065   0.584  53.009  1.00  0.00     0.035 A 
HETATM   22  C11 UNL     1      26.393   1.891  53.310  1.00  0.00     0.029 A 
HETATM   23  C12 UNL     1      27.650   2.313  53.653  1.00  0.00     0.004 A 
HETATM   24  C13 UNL     1      28.665   1.353  53.698  1.00  0.00     0.019 A 
HETATM   25  C14 UNL     1      28.358   0.035  53.400  1.00  0.00     0.013 A 
HETATM   26 BR1  UNL     1      29.816  -1.212  53.489  1.00  0.00    -0.051 Br
HETATM   27  C15 UNL     1      27.063  -0.372  53.052  1.00  0.00     0.048 A 
ENDBRANCH  19  21
ENDBRANCH   6  19
TORSDOF 6
ENDMDL
MODEL 9
REMARK VINA RESULT:      -7.4      3.351      6.471
REMARK  6 active torsions:
REMARK  status: ('A' for Active; 'I' for Inactive)
REMARK    1  A    between atoms: O1_2  and  C2_3 
REMARK    2  A    between atoms: C5_6  and  N1_7 
REMARK    3  A    between atoms: N1_7  and  C6_8 
REMARK    4  A    between atoms: C9_13  and  N4_14 
REMARK    5  A    between atoms: N4_14  and  C10_15 
REMARK    6  A    between atoms: C16_22  and  O2_23 
ROOT
HETATM    1  C6  UNL     1      23.424   3.599  50.837  1.00  0.00     0.097 A 
HETATM    2  C7  UNL     1      23.950   4.845  51.154  1.00  0.00     0.151 A 
HETATM    3  N2  UNL     1      23.036   5.813  51.407  1.00  0.00    -0.252 NA
HETATM    4  C8  UNL     1      21.736   5.532  51.339  1.00  0.00     0.235 A 
HETATM    5  N3  UNL     1      21.240   4.296  51.025  1.00  0.00    -0.222 NA
HETATM    6  C9  UNL     1      22.100   3.282  50.761  1.00  0.00     0.157 A 
ENDROOT
BRANCH   1   7
HETATM    7  N1  UNL     1      24.408   2.590  50.596  1.00  0.00    -0.350 N 
HETATM    8  H6  UNL     1      24.446   2.101  49.675  1.00  0.00     0.166 HD
BRANCH   7   9
HETATM    9  C5  UNL     1      25.348   2.227  51.601  1.00  0.00     0.066 A 
HETATM   10  C4  UNL     1      24.714   1.381  52.528  1.00  0.00     0.035 A 
HETATM   11  C3  UNL     1      25.420   0.873  53.627  1.00  0.00     0.039 A 
HETATM   12  C2  UNL     1      26.764   1.242  53.755  1.00  0.00     0.070 A 
HETATM   13  C17 UNL     1      27.369   2.069  52.846  1.00  0.00     0.075 A 
HETATM   14  C16 UNL     1      26.682   2.566  51.774  1.00  0.00     0.095 A 
BRANCH  12  15
HETATM   15  O1  UNL     1      27.409   0.691  54.887  1.00  0.00    -0.356 OA
HETATM   16  C1  UNL     1      28.723   0.172  54.776  1.00  0.00     0.210 C 
ENDBRANCH  12  15
BRANCH  14  17
HETATM   17  O2  UNL     1      27.175   3.408  50.800  1.00  0.00    -0.358 OA
HETATM   18  H14 UNL     1      26.716   3.476  49.899  1.00  0.00     0.217 HD
ENDBRANCH  14  17
ENDBRANCH   7   9
ENDBRANCH   1   7
BRANCH   6  19
HETATM   19  N4  UNL     1      21.578   2.024  50.415  1.00  0.00    -0.339 N 
HETATM   20  H9  UNL     1      21.747   1.700  49.419  1.00  0.00     0.167 HD
BRANCH  19  21
HETATM   21  C10 UNL     1      20.845   1.149  51.286  1.00  0.00     0.035 A 
HETATM   22  C11 UNL     1      19.507   0.888  51.070  1.00  0.00     0.029 A 
HETATM   23  C12 UNL     1      18.749   0.047  51.841  1.00  0.00     0.004 A 
HETATM   24  C13 UNL     1      19.377  -0.586  52.918  1.00  0.00     0.019 A 
HETATM   25  C14 UNL     1      20.720  -0.338  53.153  1.00  0.00     0.013 A 
HETATM   26 BR1  UNL     1      21.496  -1.252  54.653  1.00  0.00    -0.051 Br
HETATM   27  C15 UNL     1      21.474   0.527  52.350  1.00  0.00     0.048 A 
ENDBRANCH  19  21
ENDBRANCH   6  19
TORSDOF 6
ENDMDL
