MODEL 1
REMARK VINA RESULT:      -8.8      0.000      0.000
REMARK  6 active torsions:
REMARK  status: ('A' for Active; 'I' for Inactive)
REMARK    1  A    between atoms: N1_2  and  C2_3 
REMARK    2  A    between atoms: C5_6  and  O1_7 
REMARK    3  A    between atoms: C8_10  and  C9_11 
REMARK    4  A    between atoms: C11_13  and  N2_14 
REMARK    5  A    between atoms: N2_14  and  C12_15 
REMARK    6  A    between atoms: C19_25  and  N5_26 
ROOT
HETATM    1  C9  UNL     1      22.386   0.213  52.285  1.00  0.00     0.028 C 
HETATM    2  C10 UNL     1      22.714  -0.389  53.403  1.00  0.00     0.042 A 
HETATM    3  C11 UNL     1      24.147  -0.392  53.737  1.00  0.00     0.139 A 
HETATM    4  N3  UNL     1      24.640  -0.899  54.800  1.00  0.00    -0.224 NA
HETATM    5  C18 UNL     1      23.821  -1.518  55.774  1.00  0.00     0.232 A 
HETATM    6  N4  UNL     1      22.581  -1.552  55.549  1.00  0.00    -0.243 NA
HETATM    7  C19 UNL     1      21.859  -1.042  54.419  1.00  0.00     0.377 A 
ENDROOT
BRANCH   1   8
HETATM    8  C8  UNL     1      21.196   0.511  51.495  1.00  0.00    -0.006 A 
HETATM    9  C2  UNL     1      21.263   1.154  50.285  1.00  0.00     0.038 A 
HETATM   10  C3  UNL     1      20.139   1.378  49.507  1.00  0.00     0.033 A 
HETATM   11  C4  UNL     1      18.916   0.946  49.960  1.00  0.00     0.039 A 
HETATM   12  C5  UNL     1      18.778   0.296  51.164  1.00  0.00     0.069 A 
HETATM   13  C7  UNL     1      19.924   0.075  51.940  1.00  0.00     0.050 A 
BRANCH   9  14
HETATM   14  N1  UNL     1      22.477   1.683  49.780  1.00  0.00    -0.394 N 
HETATM   15  C1  UNL     1      22.529   2.430  48.533  1.00  0.00     0.146 C 
HETATM   16  H4  UNL     1      23.421   1.622  50.225  1.00  0.00     0.159 HD
ENDBRANCH   9  14
BRANCH  12  17
HETATM   17  O1  UNL     1      17.668  -0.218  51.817  1.00  0.00    -0.356 OA
HETATM   18  C6  UNL     1      17.732  -1.052  52.957  1.00  0.00     0.210 C 
ENDBRANCH  12  17
ENDBRANCH   1   8
BRANCH   3  19
HETATM   19  N2  UNL     1      25.126   0.203  52.875  1.00  0.00    -0.340 N 
HETATM   20  H12 UNL     1      24.820   0.520  51.923  1.00  0.00     0.167 HD
BRANCH  19  21
HETATM   21  C12 UNL     1      26.514   0.420  53.167  1.00  0.00     0.035 A 
HETATM   22  C13 UNL     1      26.749   1.789  53.342  1.00  0.00     0.029 A 
HETATM   23  C14 UNL     1      27.996   2.318  53.620  1.00  0.00     0.004 A 
HETATM   24  C15 UNL     1      29.043   1.436  53.726  1.00  0.00     0.024 A 
HETATM   25  C16 UNL     1      28.816   0.080  53.553  1.00  0.00     0.036 A 
HETATM   26 CL1  UNL     1      30.116  -1.087  53.672  1.00  0.00    -0.084 Cl
HETATM   27  C17 UNL     1      27.571  -0.426  53.278  1.00  0.00     0.053 A 
ENDBRANCH  19  21
ENDBRANCH   3  19
BRANCH   7  28
HETATM   28  N5  UNL     1      20.898  -0.059  54.974  1.00  0.00     0.107 N 
HETATM   29  H19 UNL     1      21.208   0.125  55.961  1.00  0.00     0.316 HD
HETATM   30  H20 UNL     1      20.010  -0.628  55.083  1.00  0.00     0.316 HD
ENDBRANCH   7  28
TORSDOF 6
ENDMDL
MODEL 2
REMARK VINA RESULT:      -8.6      4.185      6.806
REMARK  6 active torsions:
REMARK  status: ('A' for Active; 'I' for Inactive)
REMARK    1  A    between atoms: N1_2  and  C2_3 
REMARK    2  A    between atoms: C5_6  and  O1_7 
REMARK    3  A    between atoms: C8_10  and  C9_11 
REMARK    4  A    between atoms: C11_13  and  N2_14 
REMARK    5  A    between atoms: N2_14  and  C12_15 
REMARK    6  A    between atoms: C19_25  and  N5_26 
ROOT
HETATM    1  C9  UNL     1      25.392   1.972  51.941  1.00  0.00     0.028 C 
HETATM    2  C10 UNL     1      26.014   1.494  52.992  1.00  0.00     0.042 A 
HETATM    3  C11 UNL     1      25.510   0.213  53.511  1.00  0.00     0.139 A 
HETATM    4  N3  UNL     1      26.016  -0.415  54.502  1.00  0.00    -0.224 NA
HETATM    5  C18 UNL     1      27.139   0.088  55.201  1.00  0.00     0.232 A 
HETATM    6  N4  UNL     1      27.620   1.185  54.808  1.00  0.00    -0.243 NA
HETATM    7  C19 UNL     1      27.184   2.022  53.728  1.00  0.00     0.377 A 
ENDROOT
BRANCH   1   8
HETATM    8  C8  UNL     1      25.447   3.127  51.052  1.00  0.00    -0.006 A 
HETATM    9  C2  UNL     1      24.477   4.097  51.051  1.00  0.00     0.038 A 
HETATM   10  C3  UNL     1      24.564   5.224  50.251  1.00  0.00     0.033 A 
HETATM   11  C4  UNL     1      25.655   5.379  49.429  1.00  0.00     0.039 A 
HETATM   12  C5  UNL     1      26.662   4.444  49.381  1.00  0.00     0.069 A 
HETATM   13  C7  UNL     1      26.561   3.308  50.196  1.00  0.00     0.050 A 
BRANCH   9  14
HETATM   14  N1  UNL     1      23.294   3.980  51.822  1.00  0.00    -0.394 N 
HETATM   15  C1  UNL     1      22.343   5.074  51.940  1.00  0.00     0.146 C 
HETATM   16  H4  UNL     1      22.972   3.138  52.353  1.00  0.00     0.159 HD
ENDBRANCH   9  14
BRANCH  12  17
HETATM   17  O1  UNL     1      27.834   4.384  48.643  1.00  0.00    -0.356 OA
HETATM   18  C6  UNL     1      28.622   5.510  48.309  1.00  0.00     0.210 C 
ENDBRANCH  12  17
ENDBRANCH   1   8
BRANCH   3  19
HETATM   19  N2  UNL     1      24.388  -0.455  52.919  1.00  0.00    -0.340 N 
HETATM   20  H12 UNL     1      24.577  -1.222  52.228  1.00  0.00     0.167 HD
BRANCH  19  21
HETATM   21  C12 UNL     1      22.999  -0.189  53.162  1.00  0.00     0.035 A 
HETATM   22  C13 UNL     1      22.504  -1.103  54.101  1.00  0.00     0.029 A 
HETATM   23  C14 UNL     1      21.190  -1.113  54.532  1.00  0.00     0.004 A 
HETATM   24  C15 UNL     1      20.346  -0.170  54.000  1.00  0.00     0.024 A 
HETATM   25  C16 UNL     1      20.831   0.736  53.070  1.00  0.00     0.036 A 
HETATM   26 CL1  UNL     1      19.797   1.955  52.357  1.00  0.00    -0.084 Cl
HETATM   27  C17 UNL     1      22.138   0.731  52.655  1.00  0.00     0.053 A 
ENDBRANCH  19  21
ENDBRANCH   3  19
BRANCH   7  28
HETATM   28  N5  UNL     1      28.347   2.126  52.814  1.00  0.00     0.107 N 
HETATM   29  H19 UNL     1      27.989   1.874  51.859  1.00  0.00     0.316 HD
HETATM   30  H20 UNL     1      28.946   1.297  53.094  1.00  0.00     0.316 HD
ENDBRANCH   7  28
TORSDOF 6
ENDMDL
MODEL 3
REMARK VINA RESULT:      -8.5      2.131      4.326
REMARK  6 active torsions:
REMARK  status: ('A' for Active; 'I' for Inactive)
REMARK    1  A    between atoms: N1_2  and  C2_3 
REMARK    2  A    between atoms: C5_6  and  O1_7 
REMARK    3  A    between atoms: C8_10  and  C9_11 
REMARK    4  A    between atoms: C11_13  and  N2_14 
REMARK    5  A    between atoms: N2_14  and  C12_15 
REMARK    6  A    between atoms: C19_25  and  N5_26 
ROOT
HETATM    1  C9  UNL     1      23.344   1.295  52.334  1.00  0.00     0.028 C 
HETATM    2  C10 UNL     1      23.416   2.575  52.059  1.00  0.00     0.042 A 
HETATM    3  C11 UNL     1      24.635   3.017  51.362  1.00  0.00     0.139 A 
HETATM    4  N3  UNL     1      24.858   4.216  50.985  1.00  0.00    -0.224 NA
HETATM    5  C18 UNL     1      23.919   5.251  51.216  1.00  0.00     0.232 A 
HETATM    6  N4  UNL     1      22.853   4.941  51.812  1.00  0.00    -0.243 NA
HETATM    7  C19 UNL     1      22.439   3.659  52.305  1.00  0.00     0.377 A 
ENDROOT
BRANCH   1   8
HETATM    8  C8  UNL     1      22.435   0.348  52.971  1.00  0.00    -0.006 A 
HETATM    9  C2  UNL     1      22.839  -0.491  53.978  1.00  0.00     0.038 A 
HETATM   10  C3  UNL     1      21.959  -1.342  54.624  1.00  0.00     0.033 A 
HETATM   11  C4  UNL     1      20.638  -1.353  54.244  1.00  0.00     0.039 A 
HETATM   12  C5  UNL     1      20.168  -0.539  53.240  1.00  0.00     0.069 A 
HETATM   13  C7  UNL     1      21.069   0.319  52.596  1.00  0.00     0.050 A 
BRANCH   9  14
HETATM   14  N1  UNL     1      24.194  -0.582  54.383  1.00  0.00    -0.394 N 
HETATM   15  C1  UNL     1      24.586  -1.278  55.599  1.00  0.00     0.146 C 
HETATM   16  H4  UNL     1      25.026  -0.201  53.879  1.00  0.00     0.159 HD
ENDBRANCH   9  14
BRANCH  12  17
HETATM   17  O1  UNL     1      18.903  -0.381  52.693  1.00  0.00    -0.356 OA
HETATM   18  C6  UNL     1      17.789  -1.188  53.020  1.00  0.00     0.210 C 
ENDBRANCH  12  17
ENDBRANCH   1   8
BRANCH   3  19
HETATM   19  N2  UNL     1      25.689   2.104  51.030  1.00  0.00    -0.340 N 
HETATM   20  H12 UNL     1      25.775   1.788  50.033  1.00  0.00     0.167 HD
BRANCH  19  21
HETATM   21  C12 UNL     1      26.667   1.553  51.924  1.00  0.00     0.035 A 
HETATM   22  C13 UNL     1      26.583   0.155  51.906  1.00  0.00     0.029 A 
HETATM   23  C14 UNL     1      27.387  -0.665  52.676  1.00  0.00     0.004 A 
HETATM   24  C15 UNL     1      28.307  -0.056  53.493  1.00  0.00     0.024 A 
HETATM   25  C16 UNL     1      28.393   1.327  53.515  1.00  0.00     0.036 A 
HETATM   26 CL1  UNL     1      29.545   2.154  54.541  1.00  0.00    -0.084 Cl
HETATM   27  C17 UNL     1      27.587   2.124  52.743  1.00  0.00     0.053 A 
ENDBRANCH  19  21
ENDBRANCH   3  19
BRANCH   7  28
HETATM   28  N5  UNL     1      21.167   3.356  51.606  1.00  0.00     0.107 N 
HETATM   29  H19 UNL     1      20.684   4.280  51.471  1.00  0.00     0.316 HD
HETATM   30  H20 UNL     1      20.593   2.870  52.353  1.00  0.00     0.316 HD
ENDBRANCH   7  28
TORSDOF 6
ENDMDL
MODEL 4
REMARK VINA RESULT:      -8.4      5.176      7.290
REMARK  6 active torsions:
REMARK  status: ('A' for Active; 'I' for Inactive)
REMARK    1  A    between atoms: N1_2  and  C2_3 
REMARK    2  A    between atoms: C5_6  and  O1_7 
REMARK    3  A    between atoms: C8_10  and  C9_11 
REMARK    4  A    between atoms: C11_13  and  N2_14 
REMARK    5  A    between atoms: N2_14  and  C12_15 
REMARK    6  A    between atoms: C19_25  and  N5_26 
ROOT
HETATM    1  C9  UNL     1      25.903   5.086  49.644  1.00  0.00     0.028 C 
HETATM    2  C10 UNL     1      24.999   4.805  50.551  1.00  0.00     0.042 A 
HETATM    3  C11 UNL     1      25.126   3.491  51.202  1.00  0.00     0.139 A 
HETATM    4  N3  UNL     1      24.358   3.067  52.131  1.00  0.00    -0.224 NA
HETATM    5  C18 UNL     1      23.289   3.853  52.623  1.00  0.00     0.232 A 
HETATM    6  N4  UNL     1      23.122   4.991  52.106  1.00  0.00    -0.243 NA
HETATM    7  C19 UNL     1      23.877   5.623  51.062  1.00  0.00     0.377 A 
ENDROOT
BRANCH   1   8
HETATM    8  C8  UNL     1      26.257   6.166  48.729  1.00  0.00    -0.006 A 
HETATM    9  C2  UNL     1      27.553   6.417  48.358  1.00  0.00     0.038 A 
HETATM   10  C3  UNL     1      27.879   7.401  47.441  1.00  0.00     0.033 A 
HETATM   11  C4  UNL     1      26.874   8.155  46.884  1.00  0.00     0.039 A 
HETATM   12  C5  UNL     1      25.554   7.957  47.213  1.00  0.00     0.069 A 
HETATM   13  C7  UNL     1      25.238   6.956  48.142  1.00  0.00     0.050 A 
BRANCH   9  14
HETATM   14  N1  UNL     1      28.648   5.725  48.934  1.00  0.00    -0.394 N 
HETATM   15  C1  UNL     1      29.928   5.612  48.253  1.00  0.00     0.146 C 
HETATM   16  H4  UNL     1      28.672   5.257  49.869  1.00  0.00     0.159 HD
ENDBRANCH   9  14
BRANCH  12  17
HETATM   17  O1  UNL     1      24.391   8.584  46.792  1.00  0.00    -0.356 OA
HETATM   18  C6  UNL     1      23.143   7.934  46.652  1.00  0.00     0.210 C 
ENDBRANCH  12  17
ENDBRANCH   1   8
BRANCH   3  19
HETATM   19  N2  UNL     1      26.160   2.566  50.844  1.00  0.00    -0.340 N 
HETATM   20  H12 UNL     1      26.543   2.605  49.867  1.00  0.00     0.167 HD
BRANCH  19  21
HETATM   21  C12 UNL     1      26.748   1.561  51.683  1.00  0.00     0.035 A 
HETATM   22  C13 UNL     1      27.650   2.160  52.571  1.00  0.00     0.029 A 
HETATM   23  C14 UNL     1      28.388   1.450  53.500  1.00  0.00     0.004 A 
HETATM   24  C15 UNL     1      28.212   0.089  53.536  1.00  0.00     0.024 A 
HETATM   25  C16 UNL     1      27.320  -0.509  52.658  1.00  0.00     0.036 A 
HETATM   26 CL1  UNL     1      27.061  -2.240  52.659  1.00  0.00    -0.084 Cl
HETATM   27  C17 UNL     1      26.597   0.213  51.744  1.00  0.00     0.053 A 
ENDBRANCH  19  21
ENDBRANCH   3  19
BRANCH   7  28
HETATM   28  N5  UNL     1      24.399   6.877  51.656  1.00  0.00     0.107 N 
HETATM   29  H19 UNL     1      24.454   6.708  52.691  1.00  0.00     0.316 HD
HETATM   30  H20 UNL     1      23.587   7.550  51.546  1.00  0.00     0.316 HD
ENDBRANCH   7  28
TORSDOF 6
ENDMDL
MODEL 5
REMARK VINA RESULT:      -8.4      4.346      7.176
REMARK  6 active torsions:
REMARK  status: ('A' for Active; 'I' for Inactive)
REMARK    1  A    between atoms: N1_2  and  C2_3 
REMARK    2  A    between atoms: C5_6  and  O1_7 
REMARK    3  A    between atoms: C8_10  and  C9_11 
REMARK    4  A    between atoms: C11_13  and  N2_14 
REMARK    5  A    between atoms: N2_14  and  C12_15 
REMARK    6  A    between atoms: C19_25  and  N5_26 
ROOT
HETATM    1  C9  UNL     1      24.573   3.782  49.870  1.00  0.00     0.028 C 
HETATM    2  C10 UNL     1      23.631   2.986  49.427  1.00  0.00     0.042 A 
HETATM    3  C11 UNL     1      23.002   2.111  50.430  1.00  0.00     0.139 A 
HETATM    4  N3  UNL     1      22.047   1.300  50.185  1.00  0.00    -0.224 NA
HETATM    5  C18 UNL     1      21.497   1.175  48.886  1.00  0.00     0.232 A 
HETATM    6  N4  UNL     1      21.992   1.896  47.978  1.00  0.00    -0.243 NA
HETATM    7  C19 UNL     1      23.059   2.849  48.069  1.00  0.00     0.377 A 
ENDROOT
BRANCH   1   8
HETATM    8  C8  UNL     1      25.489   4.802  49.369  1.00  0.00    -0.006 A 
HETATM    9  C2  UNL     1      25.140   6.126  49.292  1.00  0.00     0.038 A 
HETATM   10  C3  UNL     1      26.032   7.099  48.877  1.00  0.00     0.033 A 
HETATM   11  C4  UNL     1      27.309   6.731  48.525  1.00  0.00     0.039 A 
HETATM   12  C5  UNL     1      27.723   5.421  48.577  1.00  0.00     0.069 A 
HETATM   13  C7  UNL     1      26.810   4.446  49.001  1.00  0.00     0.050 A 
BRANCH   9  14
HETATM   14  N1  UNL     1      23.826   6.575  49.577  1.00  0.00    -0.394 N 
HETATM   15  C1  UNL     1      23.569   7.628  50.547  1.00  0.00     0.146 C 
HETATM   16  H4  UNL     1      22.939   6.238  49.138  1.00  0.00     0.159 HD
ENDBRANCH   9  14
BRANCH  12  17
HETATM   17  O1  UNL     1      28.936   4.821  48.275  1.00  0.00    -0.356 OA
HETATM   18  C6  UNL     1      30.122   5.533  47.979  1.00  0.00     0.210 C 
ENDBRANCH  12  17
ENDBRANCH   1   8
BRANCH   3  19
HETATM   19  N2  UNL     1      23.419   2.112  51.802  1.00  0.00    -0.340 N 
HETATM   20  H12 UNL     1      23.060   2.874  52.427  1.00  0.00     0.167 HD
BRANCH  19  21
HETATM   21  C12 UNL     1      24.296   1.171  52.438  1.00  0.00     0.035 A 
HETATM   22  C13 UNL     1      23.562   0.366  53.318  1.00  0.00     0.029 A 
HETATM   23  C14 UNL     1      24.130  -0.630  54.091  1.00  0.00     0.004 A 
HETATM   24  C15 UNL     1      25.484  -0.820  53.976  1.00  0.00     0.024 A 
HETATM   25  C16 UNL     1      26.216  -0.025  53.107  1.00  0.00     0.036 A 
HETATM   26 CL1  UNL     1      27.945  -0.223  52.924  1.00  0.00    -0.084 Cl
HETATM   27  C17 UNL     1      25.634   0.957  52.347  1.00  0.00     0.053 A 
ENDBRANCH  19  21
ENDBRANCH   3  19
BRANCH   7  28
HETATM   28  N5  UNL     1      22.474   4.142  47.638  1.00  0.00     0.107 N 
HETATM   29  H19 UNL     1      22.782   4.851  48.350  1.00  0.00     0.316 HD
HETATM   30  H20 UNL     1      21.440   4.012  47.832  1.00  0.00     0.316 HD
ENDBRANCH   7  28
TORSDOF 6
ENDMDL
MODEL 6
REMARK VINA RESULT:      -8.2      2.081      4.010
REMARK  6 active torsions:
REMARK  status: ('A' for Active; 'I' for Inactive)
REMARK    1  A    between atoms: N1_2  and  C2_3 
REMARK    2  A    between atoms: C5_6  and  O1_7 
REMARK    3  A    between atoms: C8_10  and  C9_11 
REMARK    4  A    between atoms: C11_13  and  N2_14 
REMARK    5  A    between atoms: N2_14  and  C12_15 
REMARK    6  A    between atoms: C19_25  and  N5_26 
ROOT
HETATM    1  C9  UNL     1      21.420   1.153  51.949  1.00  0.00     0.028 C 
HETATM    2  C10 UNL     1      21.865   2.382  52.056  1.00  0.00     0.042 A 
HETATM    3  C11 UNL     1      23.312   2.563  51.857  1.00  0.00     0.139 A 
HETATM    4  N3  UNL     1      23.910   3.691  51.888  1.00  0.00    -0.224 NA
HETATM    5  C18 UNL     1      23.206   4.896  52.126  1.00  0.00     0.232 A 
HETATM    6  N4  UNL     1      21.962   4.812  52.307  1.00  0.00    -0.243 NA
HETATM    7  C19 UNL     1      21.131   3.642  52.310  1.00  0.00     0.377 A 
ENDROOT
BRANCH   1   8
HETATM    8  C8  UNL     1      20.163   0.418  52.040  1.00  0.00    -0.006 A 
HETATM    9  C2  UNL     1      19.802  -0.279  53.165  1.00  0.00     0.038 A 
HETATM   10  C3  UNL     1      18.581  -0.922  53.272  1.00  0.00     0.033 A 
HETATM   11  C4  UNL     1      17.700  -0.865  52.219  1.00  0.00     0.039 A 
HETATM   12  C5  UNL     1      18.000  -0.185  51.062  1.00  0.00     0.069 A 
HETATM   13  C7  UNL     1      19.239   0.463  50.968  1.00  0.00     0.050 A 
BRANCH   9  14
HETATM   14  N1  UNL     1      20.680  -0.436  54.266  1.00  0.00    -0.394 N 
HETATM   15  C1  UNL     1      21.453  -1.653  54.464  1.00  0.00     0.146 C 
HETATM   16  H4  UNL     1      20.881   0.267  55.014  1.00  0.00     0.159 HD
ENDBRANCH   9  14
BRANCH  12  17
HETATM   17  O1  UNL     1      17.285   0.005  49.889  1.00  0.00    -0.356 OA
HETATM   18  C6  UNL     1      16.883   1.270  49.399  1.00  0.00     0.210 C 
ENDBRANCH  12  17
ENDBRANCH   1   8
BRANCH   3  19
HETATM   19  N2  UNL     1      24.183   1.456  51.590  1.00  0.00    -0.340 N 
HETATM   20  H12 UNL     1      24.061   0.937  50.686  1.00  0.00     0.167 HD
BRANCH  19  21
HETATM   21  C12 UNL     1      25.228   0.957  52.437  1.00  0.00     0.035 A 
HETATM   22  C13 UNL     1      24.673   0.163  53.449  1.00  0.00     0.029 A 
HETATM   23  C14 UNL     1      25.426  -0.449  54.434  1.00  0.00     0.004 A 
HETATM   24  C15 UNL     1      26.784  -0.256  54.399  1.00  0.00     0.024 A 
HETATM   25  C16 UNL     1      27.339   0.529  53.400  1.00  0.00     0.036 A 
HETATM   26 CL1  UNL     1      29.064   0.812  53.312  1.00  0.00    -0.084 Cl
HETATM   27  C17 UNL     1      26.575   1.129  52.431  1.00  0.00     0.053 A 
ENDBRANCH  19  21
ENDBRANCH   3  19
BRANCH   7  28
HETATM   28  N5  UNL     1      20.130   3.864  51.239  1.00  0.00     0.107 N 
HETATM   29  H19 UNL     1      20.089   4.904  51.092  1.00  0.00     0.316 HD
HETATM   30  H20 UNL     1      19.213   3.635  51.719  1.00  0.00     0.316 HD
ENDBRANCH   7  28
TORSDOF 6
ENDMDL
MODEL 7
REMARK VINA RESULT:      -8.2      3.598      7.804
REMARK  6 active torsions:
REMARK  status: ('A' for Active; 'I' for Inactive)
REMARK    1  A    between atoms: N1_2  and  C2_3 
REMARK    2  A    between atoms: C5_6  and  O1_7 
REMARK    3  A    between atoms: C8_10  and  C9_11 
REMARK    4  A    between atoms: C11_13  and  N2_14 
REMARK    5  A    between atoms: N2_14  and  C12_15 
REMARK    6  A    between atoms: C19_25  and  N5_26 
ROOT
HETATM    1  C9  UNL     1      23.790   1.509  51.934  1.00  0.00     0.028 C 
HETATM    2  C10 UNL     1      23.546   2.642  51.321  1.00  0.00     0.042 A 
HETATM    3  C11 UNL     1      22.508   2.600  50.278  1.00  0.00     0.139 A 
HETATM    4  N3  UNL     1      22.117   3.613  49.607  1.00  0.00    -0.224 NA
HETATM    5  C18 UNL     1      22.669   4.899  49.818  1.00  0.00     0.232 A 
HETATM    6  N4  UNL     1      23.566   5.005  50.697  1.00  0.00    -0.243 NA
HETATM    7  C19 UNL     1      24.127   3.986  51.536  1.00  0.00     0.377 A 
ENDROOT
BRANCH   1   8
HETATM    8  C8  UNL     1      24.656   0.981  52.983  1.00  0.00    -0.006 A 
HETATM    9  C2  UNL     1      24.339  -0.148  53.695  1.00  0.00     0.038 A 
HETATM   10  C3  UNL     1      25.192  -0.683  54.645  1.00  0.00     0.033 A 
HETATM   11  C4  UNL     1      26.395  -0.064  54.888  1.00  0.00     0.039 A 
HETATM   12  C5  UNL     1      26.774   1.071  54.211  1.00  0.00     0.069 A 
HETATM   13  C7  UNL     1      25.901   1.601  53.251  1.00  0.00     0.050 A 
BRANCH   9  14
HETATM   14  N1  UNL     1      23.092  -0.805  53.547  1.00  0.00    -0.394 N 
HETATM   15  C1  UNL     1      22.187  -0.997  54.670  1.00  0.00     0.146 C 
HETATM   16  H4  UNL     1      22.688  -1.192  52.663  1.00  0.00     0.159 HD
ENDBRANCH   9  14
BRANCH  12  17
HETATM   17  O1  UNL     1      27.914   1.856  54.286  1.00  0.00    -0.356 OA
HETATM   18  C6  UNL     1      29.233   1.346  54.260  1.00  0.00     0.210 C 
ENDBRANCH  12  17
ENDBRANCH   1   8
BRANCH   3  19
HETATM   19  N2  UNL     1      21.827   1.385  49.938  1.00  0.00    -0.340 N 
HETATM   20  H12 UNL     1      22.254   0.766  49.206  1.00  0.00     0.167 HD
BRANCH  19  21
HETATM   21  C12 UNL     1      20.592   0.904  50.489  1.00  0.00     0.035 A 
HETATM   22  C13 UNL     1      19.530   1.278  49.657  1.00  0.00     0.029 A 
HETATM   23  C14 UNL     1      18.208   0.972  49.928  1.00  0.00     0.004 A 
HETATM   24  C15 UNL     1      17.948   0.267  51.076  1.00  0.00     0.024 A 
HETATM   25  C16 UNL     1      18.997  -0.104  51.904  1.00  0.00     0.036 A 
HETATM   26 CL1  UNL     1      18.721  -1.001  53.382  1.00  0.00    -0.084 Cl
HETATM   27  C17 UNL     1      20.301   0.207  51.618  1.00  0.00     0.053 A 
ENDBRANCH  19  21
ENDBRANCH   3  19
BRANCH   7  28
HETATM   28  N5  UNL     1      23.864   4.429  52.927  1.00  0.00     0.107 N 
HETATM   29  H19 UNL     1      24.590   5.158  53.141  1.00  0.00     0.316 HD
HETATM   30  H20 UNL     1      24.160   3.591  53.505  1.00  0.00     0.316 HD
ENDBRANCH   7  28
TORSDOF 6
ENDMDL
MODEL 8
REMARK VINA RESULT:      -8.1      6.695      9.599
REMARK  6 active torsions:
REMARK  status: ('A' for Active; 'I' for Inactive)
REMARK    1  A    between atoms: N1_2  and  C2_3 
REMARK    2  A    between atoms: C5_6  and  O1_7 
REMARK    3  A    between atoms: C8_10  and  C9_11 
REMARK    4  A    between atoms: C11_13  and  N2_14 
REMARK    5  A    between atoms: N2_14  and  C12_15 
REMARK    6  A    between atoms: C19_25  and  N5_26 
ROOT
HETATM    1  C9  UNL     1      26.834   5.940  48.692  1.00  0.00     0.028 C 
HETATM    2  C10 UNL     1      25.851   6.534  49.323  1.00  0.00     0.042 A 
HETATM    3  C11 UNL     1      24.726   5.672  49.720  1.00  0.00     0.139 A 
HETATM    4  N3  UNL     1      23.703   6.072  50.372  1.00  0.00    -0.224 NA
HETATM    5  C18 UNL     1      23.566   7.421  50.777  1.00  0.00     0.232 A 
HETATM    6  N4  UNL     1      24.494   8.215  50.467  1.00  0.00    -0.243 NA
HETATM    7  C19 UNL     1      25.702   7.945  49.742  1.00  0.00     0.377 A 
ENDROOT
BRANCH   1   8
HETATM    8  C8  UNL     1      28.125   6.266  48.095  1.00  0.00    -0.006 A 
HETATM    9  C2  UNL     1      28.289   7.323  47.236  1.00  0.00     0.038 A 
HETATM   10  C3  UNL     1      29.527   7.669  46.722  1.00  0.00     0.033 A 
HETATM   11  C4  UNL     1      30.630   6.930  47.080  1.00  0.00     0.039 A 
HETATM   12  C5  UNL     1      30.535   5.858  47.935  1.00  0.00     0.069 A 
HETATM   13  C7  UNL     1      29.276   5.519  48.449  1.00  0.00     0.050 A 
BRANCH   9  14
HETATM   14  N1  UNL     1      27.193   8.092  46.773  1.00  0.00    -0.394 N 
HETATM   15  C1  UNL     1      27.223   9.546  46.768  1.00  0.00     0.146 C 
HETATM   16  H4  UNL     1      26.292   7.730  46.384  1.00  0.00     0.159 HD
ENDBRANCH   9  14
BRANCH  12  17
HETATM   17  O1  UNL     1      31.489   4.980  48.427  1.00  0.00    -0.356 OA
HETATM   18  C6  UNL     1      32.818   4.902  47.950  1.00  0.00     0.210 C 
ENDBRANCH  12  17
ENDBRANCH   1   8
BRANCH   3  19
HETATM   19  N2  UNL     1      24.699   4.272  49.409  1.00  0.00    -0.340 N 
HETATM   20  H12 UNL     1      24.562   3.991  48.407  1.00  0.00     0.167 HD
BRANCH  19  21
HETATM   21  C12 UNL     1      24.834   3.181  50.330  1.00  0.00     0.035 A 
HETATM   22  C13 UNL     1      26.192   2.907  50.536  1.00  0.00     0.029 A 
HETATM   23  C14 UNL     1      26.648   1.896  51.363  1.00  0.00     0.004 A 
HETATM   24  C15 UNL     1      25.702   1.136  52.005  1.00  0.00     0.024 A 
HETATM   25  C16 UNL     1      24.357   1.403  51.805  1.00  0.00     0.036 A 
HETATM   26 CL1  UNL     1      23.111   0.461  52.595  1.00  0.00    -0.084 Cl
HETATM   27  C17 UNL     1      23.925   2.410  50.980  1.00  0.00     0.053 A 
ENDBRANCH  19  21
ENDBRANCH   3  19
BRANCH   7  28
HETATM   28  N5  UNL     1      26.806   8.315  50.661  1.00  0.00     0.107 N 
HETATM   29  H19 UNL     1      27.695   8.057  50.164  1.00  0.00     0.316 HD
HETATM   30  H20 UNL     1      26.724   7.596  51.435  1.00  0.00     0.316 HD
ENDBRANCH   7  28
TORSDOF 6
ENDMDL
MODEL 9
REMARK VINA RESULT:      -8.0      4.034      7.482
REMARK  6 active torsions:
REMARK  status: ('A' for Active; 'I' for Inactive)
REMARK    1  A    between atoms: N1_2  and  C2_3 
REMARK    2  A    between atoms: C5_6  and  O1_7 
REMARK    3  A    between atoms: C8_10  and  C9_11 
REMARK    4  A    between atoms: C11_13  and  N2_14 
REMARK    5  A    between atoms: N2_14  and  C12_15 
REMARK    6  A    between atoms: C19_25  and  N5_26 
ROOT
HETATM    1  C9  UNL     1      24.071   2.112  52.012  1.00  0.00     0.028 C 
HETATM    2  C10 UNL     1      23.350   3.173  51.739  1.00  0.00     0.042 A 
HETATM    3  C11 UNL     1      22.045   2.919  51.108  1.00  0.00     0.139 A 
HETATM    4  N3  UNL     1      21.200   3.828  50.806  1.00  0.00    -0.224 NA
HETATM    5  C18 UNL     1      21.460   5.195  51.063  1.00  0.00     0.232 A 
HETATM    6  N4  UNL     1      22.563   5.482  51.601  1.00  0.00    -0.243 NA
HETATM    7  C19 UNL     1      23.623   4.603  52.001  1.00  0.00     0.377 A 
ENDROOT
BRANCH   1   8
HETATM    8  C8  UNL     1      25.363   1.771  52.599  1.00  0.00    -0.006 A 
HETATM    9  C2  UNL     1      26.527   2.388  52.215  1.00  0.00     0.038 A 
HETATM   10  C3  UNL     1      27.741   2.107  52.819  1.00  0.00     0.033 A 
HETATM   11  C4  UNL     1      27.786   1.181  53.833  1.00  0.00     0.039 A 
HETATM   12  C5  UNL     1      26.657   0.526  54.264  1.00  0.00     0.069 A 
HETATM   13  C7  UNL     1      25.435   0.819  53.646  1.00  0.00     0.050 A 
BRANCH   9  14
HETATM   14  N1  UNL     1      26.571   3.306  51.138  1.00  0.00    -0.394 N 
HETATM   15  C1  UNL     1      26.506   2.868  49.752  1.00  0.00     0.146 C 
HETATM   16  H4  UNL     1      26.633   4.348  51.203  1.00  0.00     0.159 HD
ENDBRANCH   9  14
BRANCH  12  17
HETATM   17  O1  UNL     1      26.462  -0.432  55.248  1.00  0.00    -0.356 OA
HETATM   18  C6  UNL     1      25.193  -0.892  55.669  1.00  0.00     0.210 C 
ENDBRANCH  12  17
ENDBRANCH   1   8
BRANCH   3  19
HETATM   19  N2  UNL     1      21.604   1.594  50.787  1.00  0.00    -0.340 N 
HETATM   20  H12 UNL     1      22.085   1.088  50.004  1.00  0.00     0.167 HD
BRANCH  19  21
HETATM   21  C12 UNL     1      20.550   0.857  51.425  1.00  0.00     0.035 A 
HETATM   22  C13 UNL     1      21.013   0.328  52.636  1.00  0.00     0.029 A 
HETATM   23  C14 UNL     1      20.233  -0.446  53.476  1.00  0.00     0.004 A 
HETATM   24  C15 UNL     1      18.941  -0.694  53.083  1.00  0.00     0.024 A 
HETATM   25  C16 UNL     1      18.478  -0.172  51.885  1.00  0.00     0.036 A 
HETATM   26 CL1  UNL     1      16.842  -0.462  51.334  1.00  0.00    -0.084 Cl
HETATM   27  C17 UNL     1      19.267   0.593  51.065  1.00  0.00     0.053 A 
ENDBRANCH  19  21
ENDBRANCH   3  19
BRANCH   7  28
HETATM   28  N5  UNL     1      23.792   4.823  53.458  1.00  0.00     0.107 N 
HETATM   29  H19 UNL     1      22.835   5.042  53.831  1.00  0.00     0.316 HD
HETATM   30  H20 UNL     1      24.306   5.750  53.501  1.00  0.00     0.316 HD
ENDBRANCH   7  28
TORSDOF 6
ENDMDL
