MODEL 1
REMARK VINA RESULT:      -8.4      0.000      0.000
REMARK  4 active torsions:
REMARK  status: ('A' for Active; 'I' for Inactive)
REMARK    1  A    between atoms: C2_3  and  C3_4 
REMARK    2  A    between atoms: S1_9  and  S2_10 
REMARK    3  A    between atoms: S2_10  and  C8_11 
REMARK    4  A    between atoms: C9_12  and  C10_13 
ROOT
HETATM    1  N1  UNL     1      26.175  10.741  49.033  1.00  0.00    -0.197 NA
HETATM    2  C1  UNL     1      25.855   9.863  48.338  1.00  0.00     0.063 C 
HETATM    3  C2  UNL     1      25.453   8.786  47.453  1.00  0.00     0.159 C 
ENDROOT
BRANCH   3   4
HETATM    4  C3  UNL     1      25.694   7.427  47.946  1.00  0.00    -0.039 C 
HETATM    5  C4  UNL     1      26.972   6.965  47.948  1.00  0.00     0.005 C 
HETATM    6  C5  UNL     1      27.655   5.701  48.362  1.00  0.00     0.001 C 
HETATM    7  C6  UNL     1      27.504   4.481  48.908  1.00  0.00     0.007 C 
HETATM    8  C7  UNL     1      26.399   3.656  49.475  1.00  0.00     0.047 C 
HETATM    9  S1  UNL     1      24.998   4.380  49.717  1.00  0.00    -0.102 SA
HETATM   10  C18 UNL     1      25.142   6.190  50.263  1.00  0.00     0.349 C 
HETATM   11  N3  UNL     1      23.972   6.848  49.578  1.00  0.00     0.096 N 
HETATM   12  C19 UNL     1      24.448   6.589  48.161  1.00  0.00     0.305 C 
HETATM   13  H15 UNL     1      24.118   7.838  49.721  1.00  0.00     0.317 HD
BRANCH   9  14
HETATM   14  S2  UNL     1      23.347   3.278  50.456  1.00  0.00    -0.061 SA
BRANCH  14  15
HETATM   15  C8  UNL     1      23.982   2.047  51.568  1.00  0.00     0.030 A 
HETATM   16  C9  UNL     1      25.103   1.500  52.002  1.00  0.00    -0.016 A 
HETATM   17  C12 UNL     1      24.479   0.562  52.927  1.00  0.00    -0.016 A 
HETATM   18  C13 UNL     1      24.412  -0.446  53.880  1.00  0.00     0.013 A 
HETATM   19  C17 UNL     1      23.282   1.124  52.483  1.00  0.00    -0.007 A 
HETATM   20  C14 UNL     1      23.239  -0.932  54.418  1.00  0.00     0.001 A 
HETATM   21  C15 UNL     1      22.054  -0.363  53.967  1.00  0.00     0.001 A 
HETATM   22  C16 UNL     1      22.100   0.639  53.021  1.00  0.00     0.013 A 
BRANCH  16  23
HETATM   23  C10 UNL     1      26.579   1.622  51.784  1.00  0.00     0.164 C 
HETATM   24  C11 UNL     1      27.238   2.014  53.033  1.00  0.00     0.063 C 
HETATM   25  N2  UNL     1      27.737   2.329  54.009  1.00  0.00    -0.197 NA
ENDBRANCH  16  23
ENDBRANCH  14  15
ENDBRANCH   9  14
ENDBRANCH   3   4
TORSDOF 4
ENDMDL
MODEL 2
REMARK VINA RESULT:      -8.2      2.111      7.285
REMARK  4 active torsions:
REMARK  status: ('A' for Active; 'I' for Inactive)
REMARK    1  A    between atoms: C2_3  and  C3_4 
REMARK    2  A    between atoms: S1_9  and  S2_10 
REMARK    3  A    between atoms: S2_10  and  C8_11 
REMARK    4  A    between atoms: C9_12  and  C10_13 
ROOT
HETATM    1  N1  UNL     1      28.161   2.341  53.953  1.00  0.00    -0.197 NA
HETATM    2  C1  UNL     1      27.398   1.465  54.028  1.00  0.00     0.063 C 
HETATM    3  C2  UNL     1      26.459   0.366  54.142  1.00  0.00     0.159 C 
ENDROOT
BRANCH   3   4
HETATM    4  C3  UNL     1      25.257   0.459  53.309  1.00  0.00    -0.039 C 
HETATM    5  C4  UNL     1      24.137  -0.188  53.726  1.00  0.00     0.005 C 
HETATM    6  C5  UNL     1      22.738  -0.343  53.223  1.00  0.00     0.001 C 
HETATM    7  C6  UNL     1      21.854  -0.005  52.267  1.00  0.00     0.007 C 
HETATM    8  C7  UNL     1      21.825   0.846  51.043  1.00  0.00     0.047 C 
HETATM    9  S1  UNL     1      23.074   1.806  50.794  1.00  0.00    -0.102 SA
HETATM   10  C18 UNL     1      23.828   2.531  52.374  1.00  0.00     0.349 C 
HETATM   11  N3  UNL     1      25.303   2.563  52.068  1.00  0.00     0.096 N 
HETATM   12  C19 UNL     1      25.472   1.061  51.933  1.00  0.00     0.305 C 
HETATM   13  H15 UNL     1      25.741   2.792  52.949  1.00  0.00     0.317 HD
BRANCH   9  14
HETATM   14  S2  UNL     1      23.160   3.004  49.048  1.00  0.00    -0.061 SA
BRANCH  14  15
HETATM   15  C8  UNL     1      24.272   4.349  49.378  1.00  0.00     0.030 A 
HETATM   16  C9  UNL     1      25.553   4.667  49.425  1.00  0.00    -0.016 A 
HETATM   17  C12 UNL     1      25.360   6.060  49.808  1.00  0.00    -0.016 A 
HETATM   18  C13 UNL     1      25.721   7.359  50.148  1.00  0.00     0.013 A 
HETATM   19  C17 UNL     1      24.002   5.748  49.765  1.00  0.00    -0.007 A 
HETATM   20  C14 UNL     1      24.824   8.362  50.447  1.00  0.00     0.001 A 
HETATM   21  C15 UNL     1      23.473   8.037  50.400  1.00  0.00     0.001 A 
HETATM   22  C16 UNL     1      23.096   6.753  50.065  1.00  0.00     0.013 A 
BRANCH  16  23
HETATM   23  C10 UNL     1      26.887   4.022  49.211  1.00  0.00     0.164 C 
HETATM   24  C11 UNL     1      27.816   4.985  48.611  1.00  0.00     0.063 C 
HETATM   25  N2  UNL     1      28.525   5.740  48.136  1.00  0.00    -0.197 NA
ENDBRANCH  16  23
ENDBRANCH  14  15
ENDBRANCH   9  14
ENDBRANCH   3   4
TORSDOF 4
ENDMDL
MODEL 3
REMARK VINA RESULT:      -8.1      2.229      3.018
REMARK  4 active torsions:
REMARK  status: ('A' for Active; 'I' for Inactive)
REMARK    1  A    between atoms: C2_3  and  C3_4 
REMARK    2  A    between atoms: S1_9  and  S2_10 
REMARK    3  A    between atoms: S2_10  and  C8_11 
REMARK    4  A    between atoms: C9_12  and  C10_13 
ROOT
HETATM    1  N1  UNL     1      21.665   9.252  49.150  1.00  0.00    -0.197 NA
HETATM    2  C1  UNL     1      22.522   8.511  48.882  1.00  0.00     0.063 C 
HETATM    3  C2  UNL     1      23.605   7.608  48.542  1.00  0.00     0.159 C 
ENDROOT
BRANCH   3   4
HETATM    4  C3  UNL     1      23.440   6.217  48.975  1.00  0.00    -0.039 C 
HETATM    5  C4  UNL     1      22.962   5.319  48.073  1.00  0.00     0.005 C 
HETATM    6  C5  UNL     1      22.665   3.854  48.074  1.00  0.00     0.001 C 
HETATM    7  C6  UNL     1      22.693   2.712  48.784  1.00  0.00     0.007 C 
HETATM    8  C7  UNL     1      23.119   2.268  50.142  1.00  0.00     0.047 C 
HETATM    9  S1  UNL     1      23.946   3.310  51.023  1.00  0.00    -0.102 SA
HETATM   10  C18 UNL     1      25.124   4.410  50.026  1.00  0.00     0.349 C 
HETATM   11  N3  UNL     1      25.051   5.732  50.746  1.00  0.00     0.096 N 
HETATM   12  C19 UNL     1      23.581   5.986  50.467  1.00  0.00     0.305 C 
HETATM   13  H15 UNL     1      25.541   6.377  50.143  1.00  0.00     0.317 HD
BRANCH   9  14
HETATM   14  S2  UNL     1      24.538   2.799  52.992  1.00  0.00    -0.061 SA
BRANCH  14  15
HETATM   15  C8  UNL     1      23.903   1.176  53.336  1.00  0.00     0.030 A 
HETATM   16  C9  UNL     1      24.273  -0.063  53.605  1.00  0.00    -0.016 A 
HETATM   17  C12 UNL     1      22.928  -0.614  53.713  1.00  0.00    -0.016 A 
HETATM   18  C13 UNL     1      21.951  -1.581  53.915  1.00  0.00     0.013 A 
HETATM   19  C17 UNL     1      22.512   0.687  53.430  1.00  0.00    -0.007 A 
HETATM   20  C14 UNL     1      20.594  -1.341  53.853  1.00  0.00     0.001 A 
HETATM   21  C15 UNL     1      20.195  -0.040  53.570  1.00  0.00     0.001 A 
HETATM   22  C16 UNL     1      21.150   0.933  53.367  1.00  0.00     0.013 A 
BRANCH  16  23
HETATM   23  C10 UNL     1      25.532  -0.853  53.783  1.00  0.00     0.164 C 
HETATM   24  C11 UNL     1      26.550  -0.027  54.438  1.00  0.00     0.063 C 
HETATM   25  N2  UNL     1      27.337   0.628  54.940  1.00  0.00    -0.197 NA
ENDBRANCH  16  23
ENDBRANCH  14  15
ENDBRANCH   9  14
ENDBRANCH   3   4
TORSDOF 4
ENDMDL
MODEL 4
REMARK VINA RESULT:      -7.9      2.898      7.739
REMARK  4 active torsions:
REMARK  status: ('A' for Active; 'I' for Inactive)
REMARK    1  A    between atoms: C2_3  and  C3_4 
REMARK    2  A    between atoms: S1_9  and  S2_10 
REMARK    3  A    between atoms: S2_10  and  C8_11 
REMARK    4  A    between atoms: C9_12  and  C10_13 
ROOT
HETATM    1  N1  UNL     1      20.994  -1.502  54.201  1.00  0.00    -0.197 NA
HETATM    2  C1  UNL     1      20.438  -0.736  53.523  1.00  0.00     0.063 C 
HETATM    3  C2  UNL     1      19.724   0.217  52.695  1.00  0.00     0.159 C 
ENDROOT
BRANCH   3   4
HETATM    4  C3  UNL     1      20.521   0.902  51.674  1.00  0.00    -0.039 C 
HETATM    5  C4  UNL     1      20.373   0.514  50.380  1.00  0.00     0.005 C 
HETATM    6  C5  UNL     1      20.946   0.931  49.063  1.00  0.00     0.001 C 
HETATM    7  C6  UNL     1      21.768   1.783  48.425  1.00  0.00     0.007 C 
HETATM    8  C7  UNL     1      22.651   2.932  48.775  1.00  0.00     0.047 C 
HETATM    9  S1  UNL     1      22.535   3.517  50.255  1.00  0.00    -0.102 SA
HETATM   10  C18 UNL     1      20.781   3.480  50.971  1.00  0.00     0.349 C 
HETATM   11  N3  UNL     1      21.012   3.173  52.429  1.00  0.00     0.096 N 
HETATM   12  C19 UNL     1      21.620   1.800  52.209  1.00  0.00     0.305 C 
HETATM   13  H15 UNL     1      20.090   2.989  52.798  1.00  0.00     0.317 HD
BRANCH   9  14
HETATM   14  S2  UNL     1      23.795   5.105  50.870  1.00  0.00    -0.061 SA
BRANCH  14  15
HETATM   15  C8  UNL     1      25.385   4.845  50.123  1.00  0.00     0.030 A 
HETATM   16  C9  UNL     1      26.354   3.957  49.995  1.00  0.00    -0.016 A 
HETATM   17  C12 UNL     1      27.219   4.779  49.157  1.00  0.00    -0.016 A 
HETATM   18  C13 UNL     1      28.338   5.106  48.402  1.00  0.00     0.013 A 
HETATM   19  C17 UNL     1      26.209   5.733  49.278  1.00  0.00    -0.007 A 
HETATM   20  C14 UNL     1      28.519   6.314  47.762  1.00  0.00     0.001 A 
HETATM   21  C15 UNL     1      27.505   7.255  47.890  1.00  0.00     0.001 A 
HETATM   22  C16 UNL     1      26.386   6.949  48.636  1.00  0.00     0.013 A 
BRANCH  16  23
HETATM   23  C10 UNL     1      26.680   2.566  50.443  1.00  0.00     0.164 C 
HETATM   24  C11 UNL     1      26.064   2.306  51.748  1.00  0.00     0.063 C 
HETATM   25  N2  UNL     1      25.587   2.119  52.767  1.00  0.00    -0.197 NA
ENDBRANCH  16  23
ENDBRANCH  14  15
ENDBRANCH   9  14
ENDBRANCH   3   4
TORSDOF 4
ENDMDL
MODEL 5
REMARK VINA RESULT:      -7.8      2.853      4.085
REMARK  4 active torsions:
REMARK  status: ('A' for Active; 'I' for Inactive)
REMARK    1  A    between atoms: C2_3  and  C3_4 
REMARK    2  A    between atoms: S1_9  and  S2_10 
REMARK    3  A    between atoms: S2_10  and  C8_11 
REMARK    4  A    between atoms: C9_12  and  C10_13 
ROOT
HETATM    1  N1  UNL     1      19.382   9.199  49.180  1.00  0.00    -0.197 NA
HETATM    2  C1  UNL     1      20.515   8.933  49.140  1.00  0.00     0.063 C 
HETATM    3  C2  UNL     1      21.932   8.628  49.089  1.00  0.00     0.159 C 
ENDROOT
BRANCH   3   4
HETATM    4  C3  UNL     1      22.294   7.227  49.322  1.00  0.00    -0.039 C 
HETATM    5  C4  UNL     1      22.466   6.422  48.240  1.00  0.00     0.005 C 
HETATM    6  C5  UNL     1      22.842   4.993  48.016  1.00  0.00     0.001 C 
HETATM    7  C6  UNL     1      23.204   3.833  48.592  1.00  0.00     0.007 C 
HETATM    8  C7  UNL     1      23.466   3.319  49.967  1.00  0.00     0.047 C 
HETATM    9  S1  UNL     1      23.541   4.393  51.144  1.00  0.00    -0.102 SA
HETATM   10  C18 UNL     1      24.315   6.048  50.639  1.00  0.00     0.349 C 
HETATM   11  N3  UNL     1      23.517   7.055  51.430  1.00  0.00     0.096 N 
HETATM   12  C19 UNL     1      22.186   6.764  50.762  1.00  0.00     0.305 C 
HETATM   13  H15 UNL     1      23.800   7.951  51.058  1.00  0.00     0.317 HD
BRANCH   9  14
HETATM   14  S2  UNL     1      23.842   3.758  53.142  1.00  0.00    -0.061 SA
BRANCH  14  15
HETATM   15  C8  UNL     1      24.282   2.038  53.095  1.00  0.00     0.030 A 
HETATM   16  C9  UNL     1      23.769   0.821  53.105  1.00  0.00    -0.016 A 
HETATM   17  C12 UNL     1      25.038   0.109  53.029  1.00  0.00    -0.016 A 
HETATM   18  C13 UNL     1      25.894  -0.984  52.968  1.00  0.00     0.013 A 
HETATM   19  C17 UNL     1      25.603   1.384  53.017  1.00  0.00    -0.007 A 
HETATM   20  C14 UNL     1      27.268  -0.894  52.897  1.00  0.00     0.001 A 
HETATM   21  C15 UNL     1      27.817   0.383  52.886  1.00  0.00     0.001 A 
HETATM   22  C16 UNL     1      26.984   1.480  52.946  1.00  0.00     0.013 A 
BRANCH  16  23
HETATM   23  C10 UNL     1      22.427   0.159  53.167  1.00  0.00     0.164 C 
HETATM   24  C11 UNL     1      22.359  -0.724  54.335  1.00  0.00     0.063 C 
HETATM   25  N2  UNL     1      22.323  -1.415  55.241  1.00  0.00    -0.197 NA
ENDBRANCH  16  23
ENDBRANCH  14  15
ENDBRANCH   9  14
ENDBRANCH   3   4
TORSDOF 4
ENDMDL
MODEL 6
REMARK VINA RESULT:      -7.7      3.795      5.487
REMARK  4 active torsions:
REMARK  status: ('A' for Active; 'I' for Inactive)
REMARK    1  A    between atoms: C2_3  and  C3_4 
REMARK    2  A    between atoms: S1_9  and  S2_10 
REMARK    3  A    between atoms: S2_10  and  C8_11 
REMARK    4  A    between atoms: C9_12  and  C10_13 
ROOT
HETATM    1  N1  UNL     1      20.990   3.553  43.857  1.00  0.00    -0.197 NA
HETATM    2  C1  UNL     1      21.170   4.160  44.834  1.00  0.00     0.063 C 
HETATM    3  C2  UNL     1      21.395   4.938  46.037  1.00  0.00     0.159 C 
ENDROOT
BRANCH   3   4
HETATM    4  C3  UNL     1      21.167   4.238  47.305  1.00  0.00    -0.039 C 
HETATM    5  C4  UNL     1      20.117   3.378  47.382  1.00  0.00     0.005 C 
HETATM    6  C5  UNL     1      19.546   2.474  48.426  1.00  0.00     0.001 C 
HETATM    7  C6  UNL     1      19.673   1.997  49.677  1.00  0.00     0.007 C 
HETATM    8  C7  UNL     1      20.612   2.150  50.825  1.00  0.00     0.047 C 
HETATM    9  S1  UNL     1      21.975   2.933  50.553  1.00  0.00    -0.102 SA
HETATM   10  C18 UNL     1      22.704   2.648  48.826  1.00  0.00     0.349 C 
HETATM   11  N3  UNL     1      23.295   3.990  48.478  1.00  0.00     0.096 N 
HETATM   12  C19 UNL     1      21.981   4.749  48.478  1.00  0.00     0.305 C 
HETATM   13  H15 UNL     1      23.546   3.912  47.502  1.00  0.00     0.317 HD
BRANCH   9  14
HETATM   14  S2  UNL     1      23.344   3.262  52.135  1.00  0.00    -0.061 SA
BRANCH  14  15
HETATM   15  C8  UNL     1      24.005   1.682  52.606  1.00  0.00     0.030 A 
HETATM   16  C9  UNL     1      23.655   0.466  52.984  1.00  0.00    -0.016 A 
HETATM   17  C12 UNL     1      25.008  -0.058  53.122  1.00  0.00    -0.016 A 
HETATM   18  C13 UNL     1      26.000  -0.993  53.390  1.00  0.00     0.013 A 
HETATM   19  C17 UNL     1      25.403   1.220  52.725  1.00  0.00    -0.007 A 
HETATM   20  C14 UNL     1      27.353  -0.742  53.292  1.00  0.00     0.001 A 
HETATM   21  C15 UNL     1      27.732   0.536  52.896  1.00  0.00     0.001 A 
HETATM   22  C16 UNL     1      26.761   1.477  52.625  1.00  0.00     0.013 A 
BRANCH  16  23
HETATM   23  C10 UNL     1      22.409  -0.322  53.245  1.00  0.00     0.164 C 
HETATM   24  C11 UNL     1      22.536  -1.050  54.511  1.00  0.00     0.063 C 
HETATM   25  N2  UNL     1      22.650  -1.618  55.493  1.00  0.00    -0.197 NA
ENDBRANCH  16  23
ENDBRANCH  14  15
ENDBRANCH   9  14
ENDBRANCH   3   4
TORSDOF 4
ENDMDL
MODEL 7
REMARK VINA RESULT:      -7.7      4.497      7.320
REMARK  4 active torsions:
REMARK  status: ('A' for Active; 'I' for Inactive)
REMARK    1  A    between atoms: C2_3  and  C3_4 
REMARK    2  A    between atoms: S1_9  and  S2_10 
REMARK    3  A    between atoms: S2_10  and  C8_11 
REMARK    4  A    between atoms: C9_12  and  C10_13 
ROOT
HETATM    1  N1  UNL     1      23.003  -1.575  55.696  1.00  0.00    -0.197 NA
HETATM    2  C1  UNL     1      22.168  -1.088  55.047  1.00  0.00     0.063 C 
HETATM    3  C2  UNL     1      21.111  -0.489  54.255  1.00  0.00     0.159 C 
ENDROOT
BRANCH   3   4
HETATM    4  C3  UNL     1      21.543   0.434  53.201  1.00  0.00    -0.039 C 
HETATM    5  C4  UNL     1      20.616   1.270  52.664  1.00  0.00     0.005 C 
HETATM    6  C5  UNL     1      20.615   2.344  51.624  1.00  0.00     0.001 C 
HETATM    7  C6  UNL     1      21.357   3.052  50.754  1.00  0.00     0.007 C 
HETATM    8  C7  UNL     1      22.787   3.140  50.340  1.00  0.00     0.047 C 
HETATM    9  S1  UNL     1      23.852   2.349  51.226  1.00  0.00    -0.102 SA
HETATM   10  C18 UNL     1      23.452   2.316  53.078  1.00  0.00     0.349 C 
HETATM   11  N3  UNL     1      23.912   0.945  53.504  1.00  0.00     0.096 N 
HETATM   12  C19 UNL     1      22.929   0.172  52.644  1.00  0.00     0.305 C 
HETATM   13  H15 UNL     1      23.564   0.842  54.447  1.00  0.00     0.317 HD
BRANCH   9  14
HETATM   14  S2  UNL     1      25.899   2.356  50.681  1.00  0.00    -0.061 SA
BRANCH  14  15
HETATM   15  C8  UNL     1      26.764   1.327  51.843  1.00  0.00     0.030 A 
HETATM   16  C9  UNL     1      26.875   0.080  52.264  1.00  0.00    -0.016 A 
HETATM   17  C12 UNL     1      27.893   0.340  53.275  1.00  0.00    -0.016 A 
HETATM   18  C13 UNL     1      28.792   0.050  54.293  1.00  0.00     0.013 A 
HETATM   19  C17 UNL     1      27.793   1.664  52.847  1.00  0.00    -0.007 A 
HETATM   20  C14 UNL     1      29.595   0.985  54.913  1.00  0.00     0.001 A 
HETATM   21  C15 UNL     1      29.484   2.301  54.477  1.00  0.00     0.001 A 
HETATM   22  C16 UNL     1      28.597   2.608  53.466  1.00  0.00     0.013 A 
BRANCH  16  23
HETATM   23  C10 UNL     1      26.290  -1.267  51.975  1.00  0.00     0.164 C 
HETATM   24  C11 UNL     1      27.210  -2.317  52.424  1.00  0.00     0.063 C 
HETATM   25  N2  UNL     1      27.938  -3.123  52.769  1.00  0.00    -0.197 NA
ENDBRANCH  16  23
ENDBRANCH  14  15
ENDBRANCH   9  14
ENDBRANCH   3   4
TORSDOF 4
ENDMDL
MODEL 8
REMARK VINA RESULT:      -7.7      3.220      3.893
REMARK  4 active torsions:
REMARK  status: ('A' for Active; 'I' for Inactive)
REMARK    1  A    between atoms: C2_3  and  C3_4 
REMARK    2  A    between atoms: S1_9  and  S2_10 
REMARK    3  A    between atoms: S2_10  and  C8_11 
REMARK    4  A    between atoms: C9_12  and  C10_13 
ROOT
HETATM    1  N1  UNL     1      22.583   6.133  45.377  1.00  0.00    -0.197 NA
HETATM    2  C1  UNL     1      21.953   5.615  46.208  1.00  0.00     0.063 C 
HETATM    3  C2  UNL     1      21.151   4.961  47.224  1.00  0.00     0.159 C 
ENDROOT
BRANCH   3   4
HETATM    4  C3  UNL     1      21.769   4.836  48.547  1.00  0.00    -0.039 C 
HETATM    5  C4  UNL     1      21.103   5.349  49.615  1.00  0.00     0.005 C 
HETATM    6  C5  UNL     1      21.339   5.427  51.089  1.00  0.00     0.001 C 
HETATM    7  C6  UNL     1      22.156   5.096  52.106  1.00  0.00     0.007 C 
HETATM    8  C7  UNL     1      23.433   4.352  52.296  1.00  0.00     0.047 C 
HETATM    9  S1  UNL     1      23.988   3.525  51.049  1.00  0.00    -0.102 SA
HETATM   10  C18 UNL     1      22.639   2.737  49.976  1.00  0.00     0.349 C 
HETATM   11  N3  UNL     1      23.198   2.855  48.581  1.00  0.00     0.096 N 
HETATM   12  C19 UNL     1      23.213   4.372  48.542  1.00  0.00     0.305 C 
HETATM   13  H15 UNL     1      22.432   2.591  47.978  1.00  0.00     0.317 HD
BRANCH   9  14
HETATM   14  S2  UNL     1      25.830   2.489  51.198  1.00  0.00    -0.061 SA
BRANCH  14  15
HETATM   15  C8  UNL     1      25.648   1.255  52.463  1.00  0.00     0.030 A 
HETATM   16  C9  UNL     1      26.335   0.485  53.287  1.00  0.00    -0.016 A 
HETATM   17  C12 UNL     1      25.183  -0.161  53.903  1.00  0.00    -0.016 A 
HETATM   18  C13 UNL     1      24.497  -1.016  54.757  1.00  0.00     0.013 A 
HETATM   19  C17 UNL     1      24.436   0.642  53.042  1.00  0.00    -0.007 A 
HETATM   20  C14 UNL     1      23.123  -1.126  54.810  1.00  0.00     0.001 A 
HETATM   21  C15 UNL     1      22.392  -0.319  53.946  1.00  0.00     0.001 A 
HETATM   22  C16 UNL     1      23.055   0.536  53.092  1.00  0.00     0.013 A 
BRANCH  16  23
HETATM   23  C10 UNL     1      27.761   0.199  53.643  1.00  0.00     0.164 C 
HETATM   24  C11 UNL     1      28.453   1.449  53.970  1.00  0.00     0.063 C 
HETATM   25  N2  UNL     1      28.983   2.429  54.213  1.00  0.00    -0.197 NA
ENDBRANCH  16  23
ENDBRANCH  14  15
ENDBRANCH   9  14
ENDBRANCH   3   4
TORSDOF 4
ENDMDL
MODEL 9
REMARK VINA RESULT:      -7.6      2.174      3.276
REMARK  4 active torsions:
REMARK  status: ('A' for Active; 'I' for Inactive)
REMARK    1  A    between atoms: C2_3  and  C3_4 
REMARK    2  A    between atoms: S1_9  and  S2_10 
REMARK    3  A    between atoms: S2_10  and  C8_11 
REMARK    4  A    between atoms: C9_12  and  C10_13 
ROOT
HETATM    1  N1  UNL     1      21.879   9.045  48.769  1.00  0.00    -0.197 NA
HETATM    2  C1  UNL     1      22.827   8.408  48.998  1.00  0.00     0.063 C 
HETATM    3  C2  UNL     1      24.023   7.635  49.273  1.00  0.00     0.159 C 
ENDROOT
BRANCH   3   4
HETATM    4  C3  UNL     1      23.846   6.469  50.143  1.00  0.00    -0.039 C 
HETATM    5  C4  UNL     1      22.683   6.360  50.839  1.00  0.00     0.005 C 
HETATM    6  C5  UNL     1      22.092   5.370  51.790  1.00  0.00     0.001 C 
HETATM    7  C6  UNL     1      22.258   4.193  52.420  1.00  0.00     0.007 C 
HETATM    8  C7  UNL     1      23.280   3.109  52.478  1.00  0.00     0.047 C 
HETATM    9  S1  UNL     1      24.463   3.164  51.409  1.00  0.00    -0.102 SA
HETATM   10  C18 UNL     1      23.946   3.822  49.709  1.00  0.00     0.349 C 
HETATM   11  N3  UNL     1      25.154   4.604  49.261  1.00  0.00     0.096 N 
HETATM   12  C19 UNL     1      25.095   5.639  50.370  1.00  0.00     0.305 C 
HETATM   13  H15 UNL     1      24.846   5.096  48.434  1.00  0.00     0.317 HD
BRANCH   9  14
HETATM   14  S2  UNL     1      26.001   1.708  51.453  1.00  0.00    -0.061 SA
BRANCH  14  15
HETATM   15  C8  UNL     1      25.760   0.721  52.910  1.00  0.00     0.030 A 
HETATM   16  C9  UNL     1      26.393   0.210  53.950  1.00  0.00    -0.016 A 
HETATM   17  C12 UNL     1      25.233  -0.446  54.540  1.00  0.00    -0.016 A 
HETATM   18  C13 UNL     1      24.518  -1.204  55.459  1.00  0.00     0.013 A 
HETATM   19  C17 UNL     1      24.543   0.083  53.450  1.00  0.00    -0.007 A 
HETATM   20  C14 UNL     1      23.168  -1.470  55.366  1.00  0.00     0.001 A 
HETATM   21  C15 UNL     1      22.493  -0.936  54.274  1.00  0.00     0.001 A 
HETATM   22  C16 UNL     1      23.186  -0.181  53.351  1.00  0.00     0.013 A 
BRANCH  16  23
HETATM   23  C10 UNL     1      27.774   0.173  54.527  1.00  0.00     0.164 C 
HETATM   24  C11 UNL     1      28.439   1.462  54.311  1.00  0.00     0.063 C 
HETATM   25  N2  UNL     1      28.949   2.465  54.127  1.00  0.00    -0.197 NA
ENDBRANCH  16  23
ENDBRANCH  14  15
ENDBRANCH   9  14
ENDBRANCH   3   4
TORSDOF 4
ENDMDL
