MODEL 1
REMARK VINA RESULT:      -9.6      0.000      0.000
REMARK  3 active torsions:
REMARK  status: ('A' for Active; 'I' for Inactive)
REMARK    1  A    between atoms: C5_5  and  O1_6 
REMARK    2  A    between atoms: C9_11  and  C10_12 
REMARK    3  A    between atoms: C12_14  and  C13_15 
ROOT
HETATM    1  C10 UNL     1      24.274   2.356  51.894  1.00  0.00     0.060 A 
HETATM    2  C11 UNL     1      25.184   1.544  52.537  1.00  0.00     0.064 A 
HETATM    3  C12 UNL     1      26.479   1.681  52.109  1.00  0.00     0.070 A 
HETATM    4  N1  UNL     1      26.775   2.559  51.133  1.00  0.00    -0.241 NA
HETATM    5  C19 UNL     1      25.877   3.343  50.516  1.00  0.00     0.234 A 
HETATM    6  N2  UNL     1      24.578   3.228  50.921  1.00  0.00    -0.242 NA
ENDROOT
BRANCH   1   7
HETATM    7  C9  UNL     1      22.855   2.336  52.230  1.00  0.00     0.035 C 
HETATM    8  C8  UNL     1      21.996   1.415  52.670  1.00  0.00    -0.071 C 
HETATM    9  C2  UNL     1      20.551   1.766  52.915  1.00  0.00     0.017 C 
HETATM   10  C7  UNL     1      22.391   0.015  52.942  1.00  0.00     0.061 C 
HETATM   11  C1  UNL     1      20.233   3.122  52.318  1.00  0.00     0.015 C 
HETATM   12  C3  UNL     1      19.617   0.729  52.367  1.00  0.00     0.075 C 
HETATM   13  C4  UNL     1      19.548  -0.439  53.305  1.00  0.00     0.068 C 
HETATM   14  C5  UNL     1      18.498  -1.248  53.239  1.00  0.00     0.163 C 
HETATM   15  O2  UNL     1      20.510  -0.756  54.263  1.00  0.00    -0.353 OA
HETATM   16  C6  UNL     1      21.892  -0.442  54.317  1.00  0.00     0.179 C 
BRANCH  14  17
HETATM   17  O1  UNL     1      18.422  -2.325  54.095  1.00  0.00    -0.370 OA
HETATM   18  H8  UNL     1      17.705  -2.489  54.761  1.00  0.00     0.216 HD
ENDBRANCH  14  17
ENDBRANCH   1   7
BRANCH   3  19
HETATM   19  C13 UNL     1      27.549   0.888  52.701  1.00  0.00    -0.005 A 
HETATM   20  C14 UNL     1      28.630   1.414  53.368  1.00  0.00     0.017 A 
HETATM   21  C15 UNL     1      29.635   0.663  53.925  1.00  0.00     0.045 A 
HETATM   22  C16 UNL     1      29.577  -0.715  53.821  1.00  0.00     0.138 A 
HETATM   23  F1  UNL     1      30.521  -1.553  54.338  1.00  0.00    -0.204 F 
HETATM   24  C17 UNL     1      28.502  -1.319  53.154  1.00  0.00     0.073 A 
HETATM   25 CL1  UNL     1      28.349  -3.058  52.972  1.00  0.00    -0.081 Cl
HETATM   26  C18 UNL     1      27.527  -0.494  52.617  1.00  0.00     0.040 A 
ENDBRANCH   3  19
TORSDOF 3
ENDMDL
MODEL 2
REMARK VINA RESULT:      -9.0      4.597      8.089
REMARK  3 active torsions:
REMARK  status: ('A' for Active; 'I' for Inactive)
REMARK    1  A    between atoms: C5_5  and  O1_6 
REMARK    2  A    between atoms: C9_11  and  C10_12 
REMARK    3  A    between atoms: C12_14  and  C13_15 
ROOT
HETATM    1  C10 UNL     1      22.581   2.237  51.938  1.00  0.00     0.060 A 
HETATM    2  C11 UNL     1      21.820   1.105  52.134  1.00  0.00     0.064 A 
HETATM    3  C12 UNL     1      20.504   1.344  52.438  1.00  0.00     0.070 A 
HETATM    4  N1  UNL     1      20.053   2.609  52.525  1.00  0.00    -0.241 NA
HETATM    5  C19 UNL     1      20.809   3.701  52.331  1.00  0.00     0.234 A 
HETATM    6  N2  UNL     1      22.124   3.494  52.026  1.00  0.00    -0.242 NA
ENDROOT
BRANCH   1   7
HETATM    7  C9  UNL     1      24.000   2.160  51.605  1.00  0.00     0.035 C 
HETATM    8  C8  UNL     1      25.067   1.553  52.129  1.00  0.00    -0.071 C 
HETATM    9  C2  UNL     1      26.424   1.703  51.494  1.00  0.00     0.017 C 
HETATM   10  C7  UNL     1      24.994   0.707  53.341  1.00  0.00     0.061 C 
HETATM   11  C1  UNL     1      26.401   2.814  50.463  1.00  0.00     0.015 C 
HETATM   12  C3  UNL     1      27.497   1.963  52.508  1.00  0.00     0.075 C 
HETATM   13  C4  UNL     1      27.890   0.678  53.172  1.00  0.00     0.068 C 
HETATM   14  C5  UNL     1      29.073   0.605  53.770  1.00  0.00     0.163 C 
HETATM   15  O2  UNL     1      27.107  -0.475  53.217  1.00  0.00    -0.353 OA
HETATM   16  C6  UNL     1      25.701  -0.635  53.121  1.00  0.00     0.179 C 
BRANCH  14  17
HETATM   17  O1  UNL     1      29.448  -0.570  54.384  1.00  0.00    -0.370 OA
HETATM   18  H8  UNL     1      28.888  -1.107  55.003  1.00  0.00     0.216 HD
ENDBRANCH  14  17
ENDBRANCH   1   7
BRANCH   3  19
HETATM   19  C13 UNL     1      19.579   0.242  52.670  1.00  0.00    -0.005 A 
HETATM   20  C14 UNL     1      19.788  -0.772  53.575  1.00  0.00     0.017 A 
HETATM   21  C15 UNL     1      18.913  -1.807  53.791  1.00  0.00     0.045 A 
HETATM   22  C16 UNL     1      17.738  -1.855  53.062  1.00  0.00     0.138 A 
HETATM   23  F1  UNL     1      16.802  -2.837  53.198  1.00  0.00    -0.204 F 
HETATM   24  C17 UNL     1      17.460  -0.853  52.122  1.00  0.00     0.073 A 
HETATM   25 CL1  UNL     1      15.998  -0.833  51.153  1.00  0.00    -0.081 Cl
HETATM   26  C18 UNL     1      18.393   0.160  51.961  1.00  0.00     0.040 A 
ENDBRANCH   3  19
TORSDOF 3
ENDMDL
MODEL 3
REMARK VINA RESULT:      -8.9      4.183      6.067
REMARK  3 active torsions:
REMARK  status: ('A' for Active; 'I' for Inactive)
REMARK    1  A    between atoms: C5_5  and  O1_6 
REMARK    2  A    between atoms: C9_11  and  C10_12 
REMARK    3  A    between atoms: C12_14  and  C13_15 
ROOT
HETATM    1  C10 UNL     1      25.308   3.351  50.568  1.00  0.00     0.060 A 
HETATM    2  C11 UNL     1      26.386   3.896  49.904  1.00  0.00     0.064 A 
HETATM    3  C12 UNL     1      26.151   5.121  49.335  1.00  0.00     0.070 A 
HETATM    4  N1  UNL     1      24.940   5.695  49.452  1.00  0.00    -0.241 NA
HETATM    5  C19 UNL     1      23.900   5.151  50.102  1.00  0.00     0.234 A 
HETATM    6  N2  UNL     1      24.104   3.930  50.680  1.00  0.00    -0.242 NA
ENDROOT
BRANCH   1   7
HETATM    7  C9  UNL     1      25.389   2.054  51.231  1.00  0.00     0.035 C 
HETATM    8  C8  UNL     1      24.553   1.297  51.944  1.00  0.00    -0.071 C 
HETATM    9  C2  UNL     1      24.998  -0.034  52.490  1.00  0.00     0.017 C 
HETATM   10  C7  UNL     1      23.160   1.701  52.240  1.00  0.00     0.061 C 
HETATM   11  C1  UNL     1      26.502  -0.174  52.369  1.00  0.00     0.015 C 
HETATM   12  C3  UNL     1      24.575  -0.229  53.915  1.00  0.00     0.075 C 
HETATM   13  C4  UNL     1      23.131  -0.631  53.966  1.00  0.00     0.068 C 
HETATM   14  C5  UNL     1      22.679  -1.250  55.050  1.00  0.00     0.163 C 
HETATM   15  O2  UNL     1      22.200  -0.408  52.952  1.00  0.00    -0.353 OA
HETATM   16  C6  UNL     1      22.178   0.568  51.924  1.00  0.00     0.179 C 
BRANCH  14  17
HETATM   17  O1  UNL     1      21.355  -1.625  55.109  1.00  0.00    -0.370 OA
HETATM   18  H8  UNL     1      20.818  -1.983  54.356  1.00  0.00     0.216 HD
ENDBRANCH  14  17
ENDBRANCH   1   7
BRANCH   3  19
HETATM   19  C13 UNL     1      27.201   5.818  48.602  1.00  0.00    -0.005 A 
HETATM   20  C14 UNL     1      27.052   7.053  48.017  1.00  0.00     0.017 A 
HETATM   21  C15 UNL     1      28.044   7.706  47.329  1.00  0.00     0.045 A 
HETATM   22  C16 UNL     1      29.282   7.103  47.204  1.00  0.00     0.138 A 
HETATM   23  F1  UNL     1      30.335   7.664  46.543  1.00  0.00    -0.204 F 
HETATM   24  C17 UNL     1      29.504   5.843  47.777  1.00  0.00     0.073 A 
HETATM   25 CL1  UNL     1      31.040   5.002  47.666  1.00  0.00    -0.081 Cl
HETATM   26  C18 UNL     1      28.453   5.246  48.456  1.00  0.00     0.040 A 
ENDBRANCH   3  19
TORSDOF 3
ENDMDL
MODEL 4
REMARK VINA RESULT:      -8.9      4.852      7.351
REMARK  3 active torsions:
REMARK  status: ('A' for Active; 'I' for Inactive)
REMARK    1  A    between atoms: C5_5  and  O1_6 
REMARK    2  A    between atoms: C9_11  and  C10_12 
REMARK    3  A    between atoms: C12_14  and  C13_15 
ROOT
HETATM    1  C10 UNL     1      24.298   3.070  50.999  1.00  0.00     0.060 A 
HETATM    2  C11 UNL     1      25.282   3.809  50.378  1.00  0.00     0.064 A 
HETATM    3  C12 UNL     1      24.823   4.851  49.616  1.00  0.00     0.070 A 
HETATM    4  N1  UNL     1      23.500   5.084  49.521  1.00  0.00    -0.241 NA
HETATM    5  C19 UNL     1      22.554   4.354  50.132  1.00  0.00     0.234 A 
HETATM    6  N2  UNL     1      22.982   3.307  50.899  1.00  0.00    -0.242 NA
ENDROOT
BRANCH   1   7
HETATM    7  C9  UNL     1      24.616   1.927  51.848  1.00  0.00     0.035 C 
HETATM    8  C8  UNL     1      25.737   1.362  52.300  1.00  0.00    -0.071 C 
HETATM    9  C2  UNL     1      25.681   0.148  53.189  1.00  0.00     0.017 C 
HETATM   10  C7  UNL     1      27.085   1.877  51.968  1.00  0.00     0.061 C 
HETATM   11  C1  UNL     1      24.281  -0.434  53.196  1.00  0.00     0.015 C 
HETATM   12  C3  UNL     1      26.672  -0.899  52.778  1.00  0.00     0.075 C 
HETATM   13  C4  UNL     1      28.037  -0.531  53.277  1.00  0.00     0.068 C 
HETATM   14  C5  UNL     1      28.951  -1.486  53.397  1.00  0.00     0.163 C 
HETATM   15  O2  UNL     1      28.440   0.755  53.636  1.00  0.00    -0.353 OA
HETATM   16  C6  UNL     1      27.946   2.019  53.227  1.00  0.00     0.179 C 
BRANCH  14  17
HETATM   17  O1  UNL     1      30.209  -1.161  53.855  1.00  0.00    -0.370 OA
HETATM   18  H8  UNL     1      30.799  -1.745  54.400  1.00  0.00     0.216 HD
ENDBRANCH  14  17
ENDBRANCH   1   7
BRANCH   3  19
HETATM   19  C13 UNL     1      25.750   5.721  48.903  1.00  0.00    -0.005 A 
HETATM   20  C14 UNL     1      25.401   6.913  48.312  1.00  0.00     0.017 A 
HETATM   21  C15 UNL     1      26.278   7.729  47.642  1.00  0.00     0.045 A 
HETATM   22  C16 UNL     1      27.604   7.349  47.543  1.00  0.00     0.138 A 
HETATM   23  F1  UNL     1      28.557   8.085  46.902  1.00  0.00    -0.204 F 
HETATM   24  C17 UNL     1      28.030   6.146  48.123  1.00  0.00     0.073 A 
HETATM   25 CL1  UNL     1      29.691   5.584  48.045  1.00  0.00    -0.081 Cl
HETATM   26  C18 UNL     1      27.085   5.375  48.783  1.00  0.00     0.040 A 
ENDBRANCH   3  19
TORSDOF 3
ENDMDL
MODEL 5
REMARK VINA RESULT:      -8.8      5.258      8.820
REMARK  3 active torsions:
REMARK  status: ('A' for Active; 'I' for Inactive)
REMARK    1  A    between atoms: C5_5  and  O1_6 
REMARK    2  A    between atoms: C9_11  and  C10_12 
REMARK    3  A    between atoms: C12_14  and  C13_15 
ROOT
HETATM    1  C10 UNL     1      22.601   0.294  52.921  1.00  0.00     0.060 A 
HETATM    2  C11 UNL     1      21.499   0.392  52.098  1.00  0.00     0.064 A 
HETATM    3  C12 UNL     1      20.340  -0.115  52.628  1.00  0.00     0.070 A 
HETATM    4  N1  UNL     1      20.344  -0.655  53.861  1.00  0.00    -0.241 NA
HETATM    5  C19 UNL     1      21.427  -0.743  54.649  1.00  0.00     0.234 A 
HETATM    6  N2  UNL     1      22.596  -0.245  54.148  1.00  0.00    -0.242 NA
ENDROOT
BRANCH   1   7
HETATM    7  C9  UNL     1      23.911   0.787  52.510  1.00  0.00     0.035 C 
HETATM    8  C8  UNL     1      25.174   0.407  52.711  1.00  0.00    -0.071 C 
HETATM    9  C2  UNL     1      26.315   1.186  52.110  1.00  0.00     0.017 C 
HETATM   10  C7  UNL     1      25.537  -0.780  53.517  1.00  0.00     0.061 C 
HETATM   11  C1  UNL     1      25.819   2.516  51.577  1.00  0.00     0.015 C 
HETATM   12  C3  UNL     1      27.427   1.407  53.091  1.00  0.00     0.075 C 
HETATM   13  C4  UNL     1      28.262   0.166  53.201  1.00  0.00     0.068 C 
HETATM   14  C5  UNL     1      29.501   0.270  53.665  1.00  0.00     0.163 C 
HETATM   15  O2  UNL     1      27.842  -1.116  52.848  1.00  0.00    -0.353 OA
HETATM   16  C6  UNL     1      26.539  -1.668  52.772  1.00  0.00     0.179 C 
BRANCH  14  17
HETATM   17  O1  UNL     1      30.279  -0.862  53.771  1.00  0.00    -0.370 OA
HETATM   18  H8  UNL     1      31.064  -1.082  53.206  1.00  0.00     0.216 HD
ENDBRANCH  14  17
ENDBRANCH   1   7
BRANCH   3  19
HETATM   19  C13 UNL     1      19.094  -0.078  51.872  1.00  0.00    -0.005 A 
HETATM   20  C14 UNL     1      18.937   0.556  50.662  1.00  0.00     0.017 A 
HETATM   21  C15 UNL     1      17.763   0.587  49.953  1.00  0.00     0.045 A 
HETATM   22  C16 UNL     1      16.652  -0.055  50.469  1.00  0.00     0.138 A 
HETATM   23  F1  UNL     1      15.438  -0.086  49.847  1.00  0.00    -0.204 F 
HETATM   24  C17 UNL     1      16.741  -0.723  51.698  1.00  0.00     0.073 A 
HETATM   25 CL1  UNL     1      15.383  -1.561  52.429  1.00  0.00    -0.081 Cl
HETATM   26  C18 UNL     1      17.961  -0.709  52.355  1.00  0.00     0.040 A 
ENDBRANCH   3  19
TORSDOF 3
ENDMDL
MODEL 6
REMARK VINA RESULT:      -8.7      4.960      7.964
REMARK  3 active torsions:
REMARK  status: ('A' for Active; 'I' for Inactive)
REMARK    1  A    between atoms: C5_5  and  O1_6 
REMARK    2  A    between atoms: C9_11  and  C10_12 
REMARK    3  A    between atoms: C12_14  and  C13_15 
ROOT
HETATM    1  C10 UNL     1      24.248   3.250  49.608  1.00  0.00     0.060 A 
HETATM    2  C11 UNL     1      24.178   2.490  50.756  1.00  0.00     0.064 A 
HETATM    3  C12 UNL     1      23.077   1.678  50.840  1.00  0.00     0.070 A 
HETATM    4  N1  UNL     1      22.169   1.669  49.846  1.00  0.00    -0.241 NA
HETATM    5  C19 UNL     1      22.252   2.417  48.734  1.00  0.00     0.234 A 
HETATM    6  N2  UNL     1      23.339   3.236  48.622  1.00  0.00    -0.242 NA
ENDROOT
BRANCH   1   7
HETATM    7  C9  UNL     1      25.356   4.166  49.360  1.00  0.00     0.035 C 
HETATM    8  C8  UNL     1      25.506   5.492  49.338  1.00  0.00    -0.071 C 
HETATM    9  C2  UNL     1      26.846   6.109  49.034  1.00  0.00     0.017 C 
HETATM   10  C7  UNL     1      24.393   6.430  49.607  1.00  0.00     0.061 C 
HETATM   11  C1  UNL     1      27.797   5.058  48.495  1.00  0.00     0.015 C 
HETATM   12  C3  UNL     1      26.737   7.249  48.068  1.00  0.00     0.075 C 
HETATM   13  C4  UNL     1      26.274   8.481  48.786  1.00  0.00     0.068 C 
HETATM   14  C5  UNL     1      26.511   9.667  48.238  1.00  0.00     0.163 C 
HETATM   15  O2  UNL     1      25.602   8.492  50.008  1.00  0.00    -0.353 OA
HETATM   16  C6  UNL     1      24.804   7.497  50.627  1.00  0.00     0.179 C 
BRANCH  14  17
HETATM   17  O1  UNL     1      26.091  10.806  48.888  1.00  0.00    -0.370 OA
HETATM   18  H8  UNL     1      26.485  11.712  48.786  1.00  0.00     0.216 HD
ENDBRANCH  14  17
ENDBRANCH   1   7
BRANCH   3  19
HETATM   19  C13 UNL     1      22.872   0.815  51.997  1.00  0.00    -0.005 A 
HETATM   20  C14 UNL     1      21.653   0.309  52.384  1.00  0.00     0.017 A 
HETATM   21  C15 UNL     1      21.465  -0.504  53.473  1.00  0.00     0.045 A 
HETATM   22  C16 UNL     1      22.557  -0.851  54.247  1.00  0.00     0.138 A 
HETATM   23  F1  UNL     1      22.481  -1.653  55.348  1.00  0.00    -0.204 F 
HETATM   24  C17 UNL     1      23.831  -0.372  53.909  1.00  0.00     0.073 A 
HETATM   25 CL1  UNL     1      25.271  -0.759  54.834  1.00  0.00    -0.081 Cl
HETATM   26  C18 UNL     1      23.940   0.445  52.795  1.00  0.00     0.040 A 
ENDBRANCH   3  19
TORSDOF 3
ENDMDL
MODEL 7
REMARK VINA RESULT:      -8.6      3.844      4.907
REMARK  3 active torsions:
REMARK  status: ('A' for Active; 'I' for Inactive)
REMARK    1  A    between atoms: C5_5  and  O1_6 
REMARK    2  A    between atoms: C9_11  and  C10_12 
REMARK    3  A    between atoms: C12_14  and  C13_15 
ROOT
HETATM    1  C10 UNL     1      23.085   1.513  52.430  1.00  0.00     0.060 A 
HETATM    2  C11 UNL     1      24.453   1.342  52.447  1.00  0.00     0.064 A 
HETATM    3  C12 UNL     1      24.889   0.283  53.201  1.00  0.00     0.070 A 
HETATM    4  N1  UNL     1      24.001  -0.492  53.850  1.00  0.00    -0.241 NA
HETATM    5  C19 UNL     1      22.671  -0.311  53.823  1.00  0.00     0.234 A 
HETATM    6  N2  UNL     1      22.206   0.736  53.080  1.00  0.00    -0.242 NA
ENDROOT
BRANCH   1   7
HETATM    7  C9  UNL     1      22.456   2.592  51.675  1.00  0.00     0.035 C 
HETATM    8  C8  UNL     1      22.192   2.822  50.387  1.00  0.00    -0.071 C 
HETATM    9  C2  UNL     1      21.504   4.091  49.959  1.00  0.00     0.017 C 
HETATM   10  C7  UNL     1      22.548   1.867  49.313  1.00  0.00     0.061 C 
HETATM   11  C1  UNL     1      21.474   5.084  51.104  1.00  0.00     0.015 C 
HETATM   12  C3  UNL     1      22.155   4.709  48.758  1.00  0.00     0.075 C 
HETATM   13  C4  UNL     1      21.718   3.990  47.517  1.00  0.00     0.068 C 
HETATM   14  C5  UNL     1      21.825   4.612  46.349  1.00  0.00     0.163 C 
HETATM   15  O2  UNL     1      21.195   2.698  47.480  1.00  0.00    -0.353 OA
HETATM   16  C6  UNL     1      21.357   1.616  48.382  1.00  0.00     0.179 C 
BRANCH  14  17
HETATM   17  O1  UNL     1      21.427   3.963  45.201  1.00  0.00    -0.370 OA
HETATM   18  H8  UNL     1      21.151   4.398  44.353  1.00  0.00     0.216 HD
ENDBRANCH  14  17
ENDBRANCH   1   7
BRANCH   3  19
HETATM   19  C13 UNL     1      26.311  -0.020  53.309  1.00  0.00    -0.005 A 
HETATM   20  C14 UNL     1      26.881  -1.217  52.944  1.00  0.00     0.017 A 
HETATM   21  C15 UNL     1      28.220  -1.498  53.047  1.00  0.00     0.045 A 
HETATM   22  C16 UNL     1      29.071  -0.530  53.547  1.00  0.00     0.138 A 
HETATM   23  F1  UNL     1      30.417  -0.705  53.691  1.00  0.00    -0.204 F 
HETATM   24  C17 UNL     1      28.558   0.714  53.939  1.00  0.00     0.073 A 
HETATM   25 CL1  UNL     1      29.562   2.000  54.586  1.00  0.00    -0.081 Cl
HETATM   26  C18 UNL     1      27.194   0.923  53.805  1.00  0.00     0.040 A 
ENDBRANCH   3  19
TORSDOF 3
ENDMDL
MODEL 8
REMARK VINA RESULT:      -8.5      5.346      8.215
REMARK  3 active torsions:
REMARK  status: ('A' for Active; 'I' for Inactive)
REMARK    1  A    between atoms: C5_5  and  O1_6 
REMARK    2  A    between atoms: C9_11  and  C10_12 
REMARK    3  A    between atoms: C12_14  and  C13_15 
ROOT
HETATM    1  C10 UNL     1      25.372   3.687  49.717  1.00  0.00     0.060 A 
HETATM    2  C11 UNL     1      25.541   2.844  50.794  1.00  0.00     0.064 A 
HETATM    3  C12 UNL     1      24.450   2.070  51.094  1.00  0.00     0.070 A 
HETATM    4  N1  UNL     1      23.329   2.172  50.356  1.00  0.00    -0.241 NA
HETATM    5  C19 UNL     1      23.181   2.999  49.310  1.00  0.00     0.234 A 
HETATM    6  N2  UNL     1      24.252   3.783  48.987  1.00  0.00    -0.242 NA
ENDROOT
BRANCH   1   7
HETATM    7  C9  UNL     1      26.436   4.577  49.264  1.00  0.00     0.035 C 
HETATM    8  C8  UNL     1      26.543   5.886  49.028  1.00  0.00    -0.071 C 
HETATM    9  C2  UNL     1      27.845   6.476  48.552  1.00  0.00     0.017 C 
HETATM   10  C7  UNL     1      25.418   6.830  49.215  1.00  0.00     0.061 C 
HETATM   11  C1  UNL     1      28.795   5.375  48.126  1.00  0.00     0.015 C 
HETATM   12  C3  UNL     1      27.646   7.449  47.429  1.00  0.00     0.075 C 
HETATM   13  C4  UNL     1      27.186   8.767  47.975  1.00  0.00     0.068 C 
HETATM   14  C5  UNL     1      27.355   9.857  47.236  1.00  0.00     0.163 C 
HETATM   15  O2  UNL     1      26.584   8.955  49.219  1.00  0.00    -0.353 OA
HETATM   16  C6  UNL     1      25.853   8.052  50.031  1.00  0.00     0.179 C 
BRANCH  14  17
HETATM   17  O1  UNL     1      26.938  11.075  47.725  1.00  0.00    -0.370 OA
HETATM   18  H8  UNL     1      26.475  11.227  48.590  1.00  0.00     0.216 HD
ENDBRANCH  14  17
ENDBRANCH   1   7
BRANCH   3  19
HETATM   19  C13 UNL     1      24.484   1.129  52.207  1.00  0.00    -0.005 A 
HETATM   20  C14 UNL     1      25.629   0.545  52.697  1.00  0.00     0.017 A 
HETATM   21  C15 UNL     1      25.657  -0.339  53.747  1.00  0.00     0.045 A 
HETATM   22  C16 UNL     1      24.470  -0.680  54.367  1.00  0.00     0.138 A 
HETATM   23  F1  UNL     1      24.385  -1.546  55.417  1.00  0.00    -0.204 F 
HETATM   24  C17 UNL     1      23.264  -0.121  53.920  1.00  0.00     0.073 A 
HETATM   25 CL1  UNL     1      21.711  -0.498  54.646  1.00  0.00    -0.081 Cl
HETATM   26  C18 UNL     1      23.316   0.764  52.854  1.00  0.00     0.040 A 
ENDBRANCH   3  19
TORSDOF 3
ENDMDL
MODEL 9
REMARK VINA RESULT:      -8.4      5.647      8.242
REMARK  3 active torsions:
REMARK  status: ('A' for Active; 'I' for Inactive)
REMARK    1  A    between atoms: C5_5  and  O1_6 
REMARK    2  A    between atoms: C9_11  and  C10_12 
REMARK    3  A    between atoms: C12_14  and  C13_15 
ROOT
HETATM    1  C10 UNL     1      23.833   3.092  51.518  1.00  0.00     0.060 A 
HETATM    2  C11 UNL     1      23.476   3.045  50.187  1.00  0.00     0.064 A 
HETATM    3  C12 UNL     1      23.090   4.247  49.653  1.00  0.00     0.070 A 
HETATM    4  N1  UNL     1      23.081   5.352  50.421  1.00  0.00    -0.241 NA
HETATM    5  C19 UNL     1      23.431   5.381  51.716  1.00  0.00     0.234 A 
HETATM    6  N2  UNL     1      23.821   4.197  52.276  1.00  0.00    -0.242 NA
ENDROOT
BRANCH   1   7
HETATM    7  C9  UNL     1      24.270   1.901  52.238  1.00  0.00     0.035 C 
HETATM    8  C8  UNL     1      25.449   1.372  52.572  1.00  0.00    -0.071 C 
HETATM    9  C2  UNL     1      25.520   0.082  53.347  1.00  0.00     0.017 C 
HETATM   10  C7  UNL     1      26.740   2.002  52.216  1.00  0.00     0.061 C 
HETATM   11  C1  UNL     1      24.160  -0.587  53.377  1.00  0.00     0.015 C 
HETATM   12  C3  UNL     1      26.545  -0.857  52.786  1.00  0.00     0.075 C 
HETATM   13  C4  UNL     1      27.913  -0.447  53.240  1.00  0.00     0.068 C 
HETATM   14  C5  UNL     1      28.889  -1.347  53.221  1.00  0.00     0.163 C 
HETATM   15  O2  UNL     1      28.260   0.826  53.694  1.00  0.00    -0.353 OA
HETATM   16  C6  UNL     1      27.667   2.087  53.433  1.00  0.00     0.179 C 
BRANCH  14  17
HETATM   17  O1  UNL     1      30.151  -0.983  53.636  1.00  0.00    -0.370 OA
HETATM   18  H8  UNL     1      30.797  -0.435  53.120  1.00  0.00     0.216 HD
ENDBRANCH  14  17
ENDBRANCH   1   7
BRANCH   3  19
HETATM   19  C13 UNL     1      22.687   4.349  48.256  1.00  0.00    -0.005 A 
HETATM   20  C14 UNL     1      22.274   3.287  47.485  1.00  0.00     0.017 A 
HETATM   21  C15 UNL     1      21.894   3.388  46.171  1.00  0.00     0.045 A 
HETATM   22  C16 UNL     1      21.920   4.628  45.559  1.00  0.00     0.138 A 
HETATM   23  F1  UNL     1      21.563   4.840  44.260  1.00  0.00    -0.204 F 
HETATM   24  C17 UNL     1      22.330   5.755  46.286  1.00  0.00     0.073 A 
HETATM   25 CL1  UNL     1      22.396   7.366  45.592  1.00  0.00    -0.081 Cl
HETATM   26  C18 UNL     1      22.699   5.573  47.610  1.00  0.00     0.040 A 
ENDBRANCH   3  19
TORSDOF 3
ENDMDL
