MODEL 1
REMARK VINA RESULT:      -8.7      0.000      0.000
REMARK  5 active torsions:
REMARK  status: ('A' for Active; 'I' for Inactive)
REMARK    1  A    between atoms: C2_2  and  S1_3 
REMARK    2  A    between atoms: S1_3  and  N1_6 
REMARK    3  A    between atoms: N1_6  and  C3_7 
REMARK    4  A    between atoms: C8_14  and  N4_15 
REMARK    5  A    between atoms: N4_15  and  C9_16 
ROOT
HETATM    1  C3  UNL     1      26.118   0.961  54.105  1.00  0.00     0.043 A 
HETATM    2  C4  UNL     1      25.478  -0.255  54.218  1.00  0.00     0.032 A 
HETATM    3  C5  UNL     1      24.287  -0.432  53.545  1.00  0.00     0.035 A 
HETATM    4  C6  UNL     1      23.773   0.596  52.788  1.00  0.00     0.072 A 
HETATM    5  N2  UNL     1      22.602   0.338  52.160  1.00  0.00    -0.241 NA
HETATM    6  C7  UNL     1      22.036   1.309  51.394  1.00  0.00     0.236 A 
HETATM    7  N3  UNL     1      22.656   2.486  51.285  1.00  0.00    -0.224 NA
HETATM    8  C8  UNL     1      23.805   2.825  51.865  1.00  0.00     0.142 A 
HETATM    9  C15 UNL     1      24.355   1.825  52.634  1.00  0.00     0.041 A 
HETATM   10  C16 UNL     1      25.539   1.941  53.328  1.00  0.00     0.048 A 
ENDROOT
BRANCH   8  11
HETATM   11  N4  UNL     1      24.467   4.059  51.757  1.00  0.00    -0.340 N 
HETATM   12  H8  UNL     1      24.399   4.781  52.493  1.00  0.00     0.167 HD
BRANCH  11  13
HETATM   13  C9  UNL     1      25.290   4.517  50.702  1.00  0.00     0.035 A 
HETATM   14  C10 UNL     1      26.284   3.758  50.151  1.00  0.00     0.029 A 
HETATM   15  C11 UNL     1      27.099   4.173  49.122  1.00  0.00     0.004 A 
HETATM   16  C12 UNL     1      26.941   5.431  48.575  1.00  0.00     0.019 A 
HETATM   17  C13 UNL     1      25.964   6.222  49.091  1.00  0.00     0.013 A 
HETATM   18 BR1  UNL     1      25.692   7.961  48.387  1.00  0.00    -0.051 Br
HETATM   19  C14 UNL     1      25.183   5.756  50.115  1.00  0.00     0.048 A 
ENDBRANCH  11  13
ENDBRANCH   8  11
BRANCH   1  20
HETATM   20  N1  UNL     1      27.347   1.154  54.797  1.00  0.00    -0.281 N 
HETATM   21  H4  UNL     1      27.187   1.044  55.831  1.00  0.00     0.179 HD
BRANCH  20  22
HETATM   22  S1  UNL     1      28.851   1.509  54.027  1.00  0.00     0.252 S 
HETATM   23  O1  UNL     1      28.540   2.264  52.769  1.00  0.00    -0.201 OA
HETATM   24  O2  UNL     1      29.644   2.368  54.944  1.00  0.00    -0.201 OA
BRANCH  22  25
HETATM   25  C2  UNL     1      29.702   0.067  53.560  1.00  0.00     0.121 C 
HETATM   26  C1  UNL     1      29.114  -1.112  53.543  1.00  0.00     0.025 C 
ENDBRANCH  22  25
ENDBRANCH  20  22
ENDBRANCH   1  20
TORSDOF 5
ENDMDL
MODEL 2
REMARK VINA RESULT:      -8.4      2.157      3.000
REMARK  5 active torsions:
REMARK  status: ('A' for Active; 'I' for Inactive)
REMARK    1  A    between atoms: C2_2  and  S1_3 
REMARK    2  A    between atoms: S1_3  and  N1_6 
REMARK    3  A    between atoms: N1_6  and  C3_7 
REMARK    4  A    between atoms: C8_14  and  N4_15 
REMARK    5  A    between atoms: N4_15  and  C9_16 
ROOT
HETATM    1  C3  UNL     1      24.133  -0.783  54.542  1.00  0.00     0.043 A 
HETATM    2  C4  UNL     1      23.164  -1.404  55.301  1.00  0.00     0.032 A 
HETATM    3  C5  UNL     1      21.850  -1.301  54.896  1.00  0.00     0.035 A 
HETATM    4  C6  UNL     1      21.541  -0.589  53.759  1.00  0.00     0.072 A 
HETATM    5  N2  UNL     1      20.228  -0.539  53.433  1.00  0.00    -0.241 NA
HETATM    6  C7  UNL     1      19.851   0.147  52.321  1.00  0.00     0.236 A 
HETATM    7  N3  UNL     1      20.789   0.750  51.587  1.00  0.00    -0.224 NA
HETATM    8  C8  UNL     1      22.098   0.752  51.832  1.00  0.00     0.142 A 
HETATM    9  C15 UNL     1      22.451   0.051  52.962  1.00  0.00     0.041 A 
HETATM   10  C16 UNL     1      23.744  -0.088  53.417  1.00  0.00     0.048 A 
ENDROOT
BRANCH   8  11
HETATM   11  N4  UNL     1      23.094   1.381  51.067  1.00  0.00    -0.340 N 
HETATM   12  H8  UNL     1      23.673   0.859  50.389  1.00  0.00     0.167 HD
BRANCH  11  13
HETATM   13  C9  UNL     1      23.468   2.745  51.077  1.00  0.00     0.035 A 
HETATM   14  C10 UNL     1      22.885   3.671  51.897  1.00  0.00     0.029 A 
HETATM   15  C11 UNL     1      23.229   5.002  51.933  1.00  0.00     0.004 A 
HETATM   16  C12 UNL     1      24.223   5.486  51.105  1.00  0.00     0.019 A 
HETATM   17  C13 UNL     1      24.832   4.601  50.272  1.00  0.00     0.013 A 
HETATM   18 BR1  UNL     1      26.206   5.197  49.110  1.00  0.00    -0.051 Br
HETATM   19  C14 UNL     1      24.449   3.287  50.280  1.00  0.00     0.048 A 
ENDBRANCH  11  13
ENDBRANCH   8  11
BRANCH   1  20
HETATM   20  N1  UNL     1      25.492  -0.883  54.953  1.00  0.00    -0.281 N 
HETATM   21  H4  UNL     1      25.585  -1.648  55.669  1.00  0.00     0.179 HD
BRANCH  20  22
HETATM   22  S1  UNL     1      26.767   0.111  54.348  1.00  0.00     0.252 S 
HETATM   23  O1  UNL     1      26.413   1.533  54.667  1.00  0.00    -0.201 OA
HETATM   24  O2  UNL     1      28.018  -0.265  55.057  1.00  0.00    -0.201 OA
BRANCH  22  25
HETATM   25  C2  UNL     1      26.920  -0.002  52.620  1.00  0.00     0.121 C 
HETATM   26  C1  UNL     1      26.845   1.061  51.846  1.00  0.00     0.025 C 
ENDBRANCH  22  25
ENDBRANCH  20  22
ENDBRANCH   1  20
TORSDOF 5
ENDMDL
MODEL 3
REMARK VINA RESULT:      -8.3      3.437      5.609
REMARK  5 active torsions:
REMARK  status: ('A' for Active; 'I' for Inactive)
REMARK    1  A    between atoms: C2_2  and  S1_3 
REMARK    2  A    between atoms: S1_3  and  N1_6 
REMARK    3  A    between atoms: N1_6  and  C3_7 
REMARK    4  A    between atoms: C8_14  and  N4_15 
REMARK    5  A    between atoms: N4_15  and  C9_16 
ROOT
HETATM    1  C3  UNL     1      26.071   2.197  52.873  1.00  0.00     0.043 A 
HETATM    2  C4  UNL     1      26.827   2.475  51.754  1.00  0.00     0.032 A 
HETATM    3  C5  UNL     1      26.169   2.767  50.578  1.00  0.00     0.035 A 
HETATM    4  C6  UNL     1      24.793   2.774  50.549  1.00  0.00     0.072 A 
HETATM    5  N2  UNL     1      24.229   3.071  49.355  1.00  0.00    -0.241 NA
HETATM    6  C7  UNL     1      22.873   3.096  49.255  1.00  0.00     0.236 A 
HETATM    7  N3  UNL     1      22.142   2.826  50.338  1.00  0.00    -0.224 NA
HETATM    8  C8  UNL     1      22.610   2.526  51.548  1.00  0.00     0.142 A 
HETATM    9  C15 UNL     1      23.985   2.507  51.621  1.00  0.00     0.041 A 
HETATM   10  C16 UNL     1      24.698   2.223  52.764  1.00  0.00     0.048 A 
ENDROOT
BRANCH   8  11
HETATM   11  N4  UNL     1      21.852   2.242  52.695  1.00  0.00    -0.340 N 
HETATM   12  H8  UNL     1      21.545   2.984  53.345  1.00  0.00     0.167 HD
BRANCH  11  13
HETATM   13  C9  UNL     1      21.396   0.982  53.147  1.00  0.00     0.035 A 
HETATM   14  C10 UNL     1      22.188   0.109  53.842  1.00  0.00     0.029 A 
HETATM   15  C11 UNL     1      21.774  -1.121  54.297  1.00  0.00     0.004 A 
HETATM   16  C12 UNL     1      20.481  -1.550  54.065  1.00  0.00     0.019 A 
HETATM   17  C13 UNL     1      19.657  -0.715  53.379  1.00  0.00     0.013 A 
HETATM   18 BR1  UNL     1      17.870  -1.239  53.025  1.00  0.00    -0.051 Br
HETATM   19  C14 UNL     1      20.124   0.498  52.949  1.00  0.00     0.048 A 
ENDBRANCH  11  13
ENDBRANCH   8  11
BRANCH   1  20
HETATM   20  N1  UNL     1      26.741   1.894  54.092  1.00  0.00    -0.281 N 
HETATM   21  H4  UNL     1      26.802   2.763  54.683  1.00  0.00     0.179 HD
BRANCH  20  22
HETATM   22  S1  UNL     1      27.346   0.331  54.508  1.00  0.00     0.252 S 
HETATM   23  O1  UNL     1      28.667   0.532  55.190  1.00  0.00    -0.201 OA
HETATM   24  O2  UNL     1      26.385  -0.297  55.452  1.00  0.00    -0.201 OA
BRANCH  22  25
HETATM   25  C2  UNL     1      27.640  -0.650  53.103  1.00  0.00     0.121 C 
HETATM   26  C1  UNL     1      26.675  -1.327  52.516  1.00  0.00     0.025 C 
ENDBRANCH  22  25
ENDBRANCH  20  22
ENDBRANCH   1  20
TORSDOF 5
ENDMDL
MODEL 4
REMARK VINA RESULT:      -8.1      3.330      4.877
REMARK  5 active torsions:
REMARK  status: ('A' for Active; 'I' for Inactive)
REMARK    1  A    between atoms: C2_2  and  S1_3 
REMARK    2  A    between atoms: S1_3  and  N1_6 
REMARK    3  A    between atoms: N1_6  and  C3_7 
REMARK    4  A    between atoms: C8_14  and  N4_15 
REMARK    5  A    between atoms: N4_15  and  C9_16 
ROOT
HETATM    1  C3  UNL     1      24.398  -0.309  53.577  1.00  0.00     0.043 A 
HETATM    2  C4  UNL     1      24.901  -0.618  54.823  1.00  0.00     0.032 A 
HETATM    3  C5  UNL     1      26.143  -0.127  55.166  1.00  0.00     0.035 A 
HETATM    4  C6  UNL     1      26.842   0.648  54.269  1.00  0.00     0.072 A 
HETATM    5  N2  UNL     1      28.052   1.089  54.687  1.00  0.00    -0.241 NA
HETATM    6  C7  UNL     1      28.797   1.860  53.851  1.00  0.00     0.236 A 
HETATM    7  N3  UNL     1      28.311   2.158  52.644  1.00  0.00    -0.224 NA
HETATM    8  C8  UNL     1      27.136   1.769  52.153  1.00  0.00     0.142 A 
HETATM    9  C15 UNL     1      26.403   0.990  53.019  1.00  0.00     0.041 A 
HETATM   10  C16 UNL     1      25.159   0.472  52.734  1.00  0.00     0.048 A 
ENDROOT
BRANCH   8  11
HETATM   11  N4  UNL     1      26.613   2.077  50.886  1.00  0.00    -0.340 N 
HETATM   12  H8  UNL     1      26.521   1.363  50.145  1.00  0.00     0.167 HD
BRANCH  11  13
HETATM   13  C9  UNL     1      26.147   3.327  50.417  1.00  0.00     0.035 A 
HETATM   14  C10 UNL     1      26.810   4.062  49.473  1.00  0.00     0.029 A 
HETATM   15  C11 UNL     1      26.382   5.278  48.994  1.00  0.00     0.004 A 
HETATM   16  C12 UNL     1      25.210   5.837  49.464  1.00  0.00     0.019 A 
HETATM   17  C13 UNL     1      24.516   5.142  50.403  1.00  0.00     0.013 A 
HETATM   18 BR1  UNL     1      22.898   5.851  51.093  1.00  0.00    -0.051 Br
HETATM   19  C14 UNL     1      24.990   3.936  50.844  1.00  0.00     0.048 A 
ENDBRANCH  11  13
ENDBRANCH   8  11
BRANCH   1  20
HETATM   20  N1  UNL     1      23.117  -0.812  53.212  1.00  0.00    -0.281 N 
HETATM   21  H4  UNL     1      23.215  -1.799  52.862  1.00  0.00     0.179 HD
BRANCH  20  22
HETATM   22  S1  UNL     1      21.648   0.086  53.340  1.00  0.00     0.252 S 
HETATM   23  O1  UNL     1      20.612  -0.638  52.531  1.00  0.00    -0.201 OA
HETATM   24  O2  UNL     1      21.243   0.104  54.770  1.00  0.00    -0.201 OA
BRANCH  22  25
HETATM   25  C2  UNL     1      21.797   1.682  52.668  1.00  0.00     0.121 C 
HETATM   26  C1  UNL     1      21.845   1.886  51.368  1.00  0.00     0.025 C 
ENDBRANCH  22  25
ENDBRANCH  20  22
ENDBRANCH   1  20
TORSDOF 5
ENDMDL
MODEL 5
REMARK VINA RESULT:      -7.8      2.721      3.607
REMARK  5 active torsions:
REMARK  status: ('A' for Active; 'I' for Inactive)
REMARK    1  A    between atoms: C2_2  and  S1_3 
REMARK    2  A    between atoms: S1_3  and  N1_6 
REMARK    3  A    between atoms: N1_6  and  C3_7 
REMARK    4  A    between atoms: C8_14  and  N4_15 
REMARK    5  A    between atoms: N4_15  and  C9_16 
ROOT
HETATM    1  C3  UNL     1      25.430  -0.155  53.285  1.00  0.00     0.043 A 
HETATM    2  C4  UNL     1      25.489  -0.797  54.503  1.00  0.00     0.032 A 
HETATM    3  C5  UNL     1      24.306  -1.202  55.086  1.00  0.00     0.035 A 
HETATM    4  C6  UNL     1      23.112  -0.958  54.447  1.00  0.00     0.072 A 
HETATM    5  N2  UNL     1      22.001  -1.389  55.088  1.00  0.00    -0.241 NA
HETATM    6  C7  UNL     1      20.786  -1.181  54.513  1.00  0.00     0.236 A 
HETATM    7  N3  UNL     1      20.729  -0.558  53.335  1.00  0.00    -0.224 NA
HETATM    8  C8  UNL     1      21.767  -0.103  52.636  1.00  0.00     0.142 A 
HETATM    9  C15 UNL     1      22.983  -0.326  53.240  1.00  0.00     0.041 A 
HETATM   10  C16 UNL     1      24.195   0.054  52.709  1.00  0.00     0.048 A 
ENDROOT
BRANCH   8  11
HETATM   11  N4  UNL     1      21.720   0.553  51.395  1.00  0.00    -0.340 N 
HETATM   12  H8  UNL     1      21.749   0.034  50.501  1.00  0.00     0.167 HD
BRANCH  11  13
HETATM   13  C9  UNL     1      21.630   1.942  51.147  1.00  0.00     0.035 A 
HETATM   14  C10 UNL     1      20.697   2.746  51.742  1.00  0.00     0.029 A 
HETATM   15  C11 UNL     1      20.586   4.099  51.525  1.00  0.00     0.004 A 
HETATM   16  C12 UNL     1      21.451   4.738  50.657  1.00  0.00     0.019 A 
HETATM   17  C13 UNL     1      22.396   3.979  50.043  1.00  0.00     0.013 A 
HETATM   18 BR1  UNL     1      23.617   4.790  48.840  1.00  0.00    -0.051 Br
HETATM   19  C14 UNL     1      22.460   2.635  50.297  1.00  0.00     0.048 A 
ENDBRANCH  11  13
ENDBRANCH   8  11
BRANCH   1  20
HETATM   20  N1  UNL     1      26.645   0.268  52.675  1.00  0.00    -0.281 N 
HETATM   21  H4  UNL     1      26.854  -0.350  51.849  1.00  0.00     0.179 HD
BRANCH  20  22
HETATM   22  S1  UNL     1      27.602   1.593  53.229  1.00  0.00     0.252 S 
HETATM   23  O1  UNL     1      27.774   2.532  52.072  1.00  0.00    -0.201 OA
HETATM   24  O2  UNL     1      26.856   2.273  54.320  1.00  0.00    -0.201 OA
BRANCH  22  25
HETATM   25  C2  UNL     1      29.192   1.090  53.720  1.00  0.00     0.121 C 
HETATM   26  C1  UNL     1      29.507  -0.182  53.855  1.00  0.00     0.025 C 
ENDBRANCH  22  25
ENDBRANCH  20  22
ENDBRANCH   1  20
TORSDOF 5
ENDMDL
MODEL 6
REMARK VINA RESULT:      -7.6      4.364      6.474
REMARK  5 active torsions:
REMARK  status: ('A' for Active; 'I' for Inactive)
REMARK    1  A    between atoms: C2_2  and  S1_3 
REMARK    2  A    between atoms: S1_3  and  N1_6 
REMARK    3  A    between atoms: N1_6  and  C3_7 
REMARK    4  A    between atoms: C8_14  and  N4_15 
REMARK    5  A    between atoms: N4_15  and  C9_16 
ROOT
HETATM    1  C3  UNL     1      20.973   1.194  51.754  1.00  0.00     0.043 A 
HETATM    2  C4  UNL     1      19.952   0.772  52.578  1.00  0.00     0.032 A 
HETATM    3  C5  UNL     1      20.276   0.026  53.692  1.00  0.00     0.035 A 
HETATM    4  C6  UNL     1      21.594  -0.275  53.951  1.00  0.00     0.072 A 
HETATM    5  N2  UNL     1      21.824  -1.009  55.064  1.00  0.00    -0.241 NA
HETATM    6  C7  UNL     1      23.104  -1.343  55.382  1.00  0.00     0.236 A 
HETATM    7  N3  UNL     1      24.092  -0.935  54.583  1.00  0.00    -0.224 NA
HETATM    8  C8  UNL     1      23.958  -0.212  53.473  1.00  0.00     0.142 A 
HETATM    9  C15 UNL     1      22.654   0.111  53.176  1.00  0.00     0.041 A 
HETATM   10  C16 UNL     1      22.268   0.851  52.081  1.00  0.00     0.048 A 
ENDROOT
BRANCH   8  11
HETATM   11  N4  UNL     1      24.990   0.224  52.626  1.00  0.00    -0.340 N 
HETATM   12  H8  UNL     1      24.860   0.308  51.605  1.00  0.00     0.167 HD
BRANCH  11  13
HETATM   13  C9  UNL     1      26.306   0.603  52.981  1.00  0.00     0.035 A 
HETATM   14  C10 UNL     1      26.672   1.901  53.205  1.00  0.00     0.029 A 
HETATM   15  C11 UNL     1      27.941   2.301  53.554  1.00  0.00     0.004 A 
HETATM   16  C12 UNL     1      28.948   1.368  53.701  1.00  0.00     0.019 A 
HETATM   17  C13 UNL     1      28.631   0.064  53.488  1.00  0.00     0.013 A 
HETATM   18 BR1  UNL     1      29.965  -1.271  53.674  1.00  0.00    -0.051 Br
HETATM   19  C14 UNL     1      27.351  -0.277  53.143  1.00  0.00     0.048 A 
ENDBRANCH  11  13
ENDBRANCH   8  11
BRANCH   1  20
HETATM   20  N1  UNL     1      20.649   1.963  50.601  1.00  0.00    -0.281 N 
HETATM   21  H4  UNL     1      19.941   1.443  50.022  1.00  0.00     0.179 HD
BRANCH  20  22
HETATM   22  S1  UNL     1      21.329   3.508  50.239  1.00  0.00     0.252 S 
HETATM   23  O1  UNL     1      20.381   4.205  49.308  1.00  0.00    -0.201 OA
HETATM   24  O2  UNL     1      21.434   4.272  51.510  1.00  0.00    -0.201 OA
BRANCH  22  25
HETATM   25  C2  UNL     1      22.852   3.374  49.412  1.00  0.00     0.121 C 
HETATM   26  C1  UNL     1      23.605   4.427  49.170  1.00  0.00     0.025 C 
ENDBRANCH  22  25
ENDBRANCH  20  22
ENDBRANCH   1  20
TORSDOF 5
ENDMDL
MODEL 7
REMARK VINA RESULT:      -7.5      1.893      2.192
REMARK  5 active torsions:
REMARK  status: ('A' for Active; 'I' for Inactive)
REMARK    1  A    between atoms: C2_2  and  S1_3 
REMARK    2  A    between atoms: S1_3  and  N1_6 
REMARK    3  A    between atoms: N1_6  and  C3_7 
REMARK    4  A    between atoms: C8_14  and  N4_15 
REMARK    5  A    between atoms: N4_15  and  C9_16 
ROOT
HETATM    1  C3  UNL     1      24.484   0.212  52.877  1.00  0.00     0.043 A 
HETATM    2  C4  UNL     1      23.574  -0.082  53.870  1.00  0.00     0.032 A 
HETATM    3  C5  UNL     1      22.273   0.346  53.712  1.00  0.00     0.035 A 
HETATM    4  C6  UNL     1      21.918   1.049  52.582  1.00  0.00     0.072 A 
HETATM    5  N2  UNL     1      20.622   1.430  52.507  1.00  0.00    -0.241 NA
HETATM    6  C7  UNL     1      20.203   2.127  51.417  1.00  0.00     0.236 A 
HETATM    7  N3  UNL     1      21.084   2.413  50.456  1.00  0.00    -0.224 NA
HETATM    8  C8  UNL     1      22.373   2.078  50.448  1.00  0.00     0.142 A 
HETATM    9  C15 UNL     1      22.770   1.374  51.561  1.00  0.00     0.041 A 
HETATM   10  C16 UNL     1      24.052   0.920  51.776  1.00  0.00     0.048 A 
ENDROOT
BRANCH   8  11
HETATM   11  N4  UNL     1      23.309   2.371  49.443  1.00  0.00    -0.340 N 
HETATM   12  H8  UNL     1      23.529   1.700  48.689  1.00  0.00     0.167 HD
BRANCH  11  13
HETATM   13  C9  UNL     1      24.072   3.551  49.282  1.00  0.00     0.035 A 
HETATM   14  C10 UNL     1      25.404   3.623  49.584  1.00  0.00     0.029 A 
HETATM   15  C11 UNL     1      26.174   4.753  49.435  1.00  0.00     0.004 A 
HETATM   16  C12 UNL     1      25.612   5.919  48.952  1.00  0.00     0.019 A 
HETATM   17  C13 UNL     1      24.290   5.894  48.637  1.00  0.00     0.013 A 
HETATM   18 BR1  UNL     1      23.454   7.459  47.967  1.00  0.00    -0.051 Br
HETATM   19  C14 UNL     1      23.573   4.741  48.805  1.00  0.00     0.048 A 
ENDBRANCH  11  13
ENDBRANCH   8  11
BRANCH   1  20
HETATM   20  N1  UNL     1      25.830  -0.225  53.032  1.00  0.00    -0.281 N 
HETATM   21  H4  UNL     1      26.072  -0.893  52.255  1.00  0.00     0.179 HD
BRANCH  20  22
HETATM   22  S1  UNL     1      26.878   0.282  54.307  1.00  0.00     0.252 S 
HETATM   23  O1  UNL     1      26.644   1.749  54.518  1.00  0.00    -0.201 OA
HETATM   24  O2  UNL     1      26.503  -0.467  55.534  1.00  0.00    -0.201 OA
BRANCH  22  25
HETATM   25  C2  UNL     1      28.555   0.087  53.890  1.00  0.00     0.121 C 
HETATM   26  C1  UNL     1      29.016  -1.035  53.378  1.00  0.00     0.025 C 
ENDBRANCH  22  25
ENDBRANCH  20  22
ENDBRANCH   1  20
TORSDOF 5
ENDMDL
MODEL 8
REMARK VINA RESULT:      -7.4      3.533      5.187
REMARK  5 active torsions:
REMARK  status: ('A' for Active; 'I' for Inactive)
REMARK    1  A    between atoms: C2_2  and  S1_3 
REMARK    2  A    between atoms: S1_3  and  N1_6 
REMARK    3  A    between atoms: N1_6  and  C3_7 
REMARK    4  A    between atoms: C8_14  and  N4_15 
REMARK    5  A    between atoms: N4_15  and  C9_16 
ROOT
HETATM    1  C3  UNL     1      22.935   1.270  51.510  1.00  0.00     0.043 A 
HETATM    2  C4  UNL     1      22.937   0.727  52.778  1.00  0.00     0.032 A 
HETATM    3  C5  UNL     1      24.110   0.762  53.501  1.00  0.00     0.035 A 
HETATM    4  C6  UNL     1      25.236   1.329  52.949  1.00  0.00     0.072 A 
HETATM    5  N2  UNL     1      26.343   1.322  53.727  1.00  0.00    -0.241 NA
HETATM    6  C7  UNL     1      27.492   1.867  53.244  1.00  0.00     0.236 A 
HETATM    7  N3  UNL     1      27.490   2.390  52.016  1.00  0.00    -0.224 NA
HETATM    8  C8  UNL     1      26.451   2.440  51.185  1.00  0.00     0.142 A 
HETATM    9  C15 UNL     1      25.303   1.883  51.698  1.00  0.00     0.041 A 
HETATM   10  C16 UNL     1      24.103   1.818  51.026  1.00  0.00     0.048 A 
ENDROOT
BRANCH   8  11
HETATM   11  N4  UNL     1      26.437   2.990  49.893  1.00  0.00    -0.340 N 
HETATM   12  H8  UNL     1      26.331   2.401  49.050  1.00  0.00     0.167 HD
BRANCH  11  13
HETATM   13  C9  UNL     1      26.555   4.349  49.523  1.00  0.00     0.035 A 
HETATM   14  C10 UNL     1      27.534   4.812  48.688  1.00  0.00     0.029 A 
HETATM   15  C11 UNL     1      27.674   6.126  48.308  1.00  0.00     0.004 A 
HETATM   16  C12 UNL     1      26.792   7.082  48.772  1.00  0.00     0.019 A 
HETATM   17  C13 UNL     1      25.801   6.669  49.605  1.00  0.00     0.013 A 
HETATM   18 BR1  UNL     1      24.553   7.928  50.279  1.00  0.00    -0.051 Br
HETATM   19  C14 UNL     1      25.710   5.347  49.950  1.00  0.00     0.048 A 
ENDBRANCH  11  13
ENDBRANCH   8  11
BRANCH   1  20
HETATM   20  N1  UNL     1      21.729   1.238  50.755  1.00  0.00    -0.281 N 
HETATM   21  H4  UNL     1      21.357   0.254  50.730  1.00  0.00     0.179 HD
BRANCH  20  22
HETATM   22  S1  UNL     1      21.012   2.620  50.008  1.00  0.00     0.252 S 
HETATM   23  O1  UNL     1      19.573   2.286  49.742  1.00  0.00    -0.201 OA
HETATM   24  O2  UNL     1      21.095   3.754  50.965  1.00  0.00    -0.201 OA
BRANCH  22  25
HETATM   25  C2  UNL     1      21.743   2.986  48.474  1.00  0.00     0.121 C 
HETATM   26  C1  UNL     1      22.376   2.070  47.770  1.00  0.00     0.025 C 
ENDBRANCH  22  25
ENDBRANCH  20  22
ENDBRANCH   1  20
TORSDOF 5
ENDMDL
MODEL 9
REMARK VINA RESULT:      -7.4      3.736      6.155
REMARK  5 active torsions:
REMARK  status: ('A' for Active; 'I' for Inactive)
REMARK    1  A    between atoms: C2_2  and  S1_3 
REMARK    2  A    between atoms: S1_3  and  N1_6 
REMARK    3  A    between atoms: N1_6  and  C3_7 
REMARK    4  A    between atoms: C8_14  and  N4_15 
REMARK    5  A    between atoms: N4_15  and  C9_16 
ROOT
HETATM    1  C3  UNL     1      22.556   1.745  50.275  1.00  0.00     0.043 A 
HETATM    2  C4  UNL     1      21.232   1.370  50.185  1.00  0.00     0.032 A 
HETATM    3  C5  UNL     1      20.708   0.579  51.185  1.00  0.00     0.035 A 
HETATM    4  C6  UNL     1      21.507   0.187  52.235  1.00  0.00     0.072 A 
HETATM    5  N2  UNL     1      20.913  -0.587  53.173  1.00  0.00    -0.241 NA
HETATM    6  C7  UNL     1      21.645  -1.010  54.239  1.00  0.00     0.236 A 
HETATM    7  N3  UNL     1      22.927  -0.648  54.325  1.00  0.00    -0.224 NA
HETATM    8  C8  UNL     1      23.589   0.108  53.452  1.00  0.00     0.142 A 
HETATM    9  C15 UNL     1      22.826   0.522  52.385  1.00  0.00     0.041 A 
HETATM   10  C16 UNL     1      23.291   1.312  51.357  1.00  0.00     0.048 A 
ENDROOT
BRANCH   8  11
HETATM   11  N4  UNL     1      24.937   0.497  53.533  1.00  0.00    -0.340 N 
HETATM   12  H8  UNL     1      25.213   1.461  53.784  1.00  0.00     0.167 HD
BRANCH  11  13
HETATM   13  C9  UNL     1      26.086  -0.293  53.302  1.00  0.00     0.035 A 
HETATM   14  C10 UNL     1      26.031  -1.545  52.755  1.00  0.00     0.029 A 
HETATM   15  C11 UNL     1      27.130  -2.337  52.516  1.00  0.00     0.004 A 
HETATM   16  C12 UNL     1      28.396  -1.883  52.831  1.00  0.00     0.019 A 
HETATM   17  C13 UNL     1      28.500  -0.643  53.377  1.00  0.00     0.013 A 
HETATM   18 BR1  UNL     1      30.208   0.043  53.832  1.00  0.00    -0.051 Br
HETATM   19  C14 UNL     1      27.371   0.101  53.593  1.00  0.00     0.048 A 
ENDBRANCH  11  13
ENDBRANCH   8  11
BRANCH   1  20
HETATM   20  N1  UNL     1      23.106   2.561  49.247  1.00  0.00    -0.281 N 
HETATM   21  H4  UNL     1      23.071   2.043  48.333  1.00  0.00     0.179 HD
BRANCH  20  22
HETATM   22  S1  UNL     1      23.726   4.153  49.496  1.00  0.00     0.252 S 
HETATM   23  O1  UNL     1      23.277   4.992  48.336  1.00  0.00    -0.201 OA
HETATM   24  O2  UNL     1      23.139   4.683  50.755  1.00  0.00    -0.201 OA
BRANCH  22  25
HETATM   25  C2  UNL     1      25.464   4.183  49.505  1.00  0.00     0.121 C 
HETATM   26  C1  UNL     1      26.173   3.164  49.945  1.00  0.00     0.025 C 
ENDBRANCH  22  25
ENDBRANCH  20  22
ENDBRANCH   1  20
TORSDOF 5
ENDMDL
