MODEL 1
REMARK VINA RESULT:      -8.1      0.000      0.000
REMARK  7 active torsions:
REMARK  status: ('A' for Active; 'I' for Inactive)
REMARK    1  A    between atoms: C5_6  and  C6_7 
REMARK    2  A    between atoms: C6_7  and  O1_8 
REMARK    3  A    between atoms: O1_8  and  C7_9 
REMARK    4  A    between atoms: C10_12  and  N1_13 
REMARK    5  A    between atoms: N1_13  and  N2_14 
REMARK    6  A    between atoms: N2_14  and  C11_15 
REMARK    7  A    between atoms: C12_17  and  C13_18 
ROOT
HETATM    1  C7  UNL     1      24.255   1.546  52.299  1.00  0.00     0.091 A 
HETATM    2  C8  UNL     1      23.079   2.085  52.739  1.00  0.00     0.041 A 
HETATM    3  C9  UNL     1      22.750   3.416  52.663  1.00  0.00     0.033 A 
HETATM    4  C10 UNL     1      23.647   4.304  52.109  1.00  0.00     0.044 A 
HETATM    5  C17 UNL     1      24.852   3.828  51.645  1.00  0.00     0.057 A 
HETATM    6  C18 UNL     1      25.148   2.480  51.739  1.00  0.00     0.069 A 
HETATM    7 CL1  UNL     1      26.755   2.127  51.073  1.00  0.00    -0.081 Cl
ENDROOT
BRANCH   4   8
HETATM    8  N1  UNL     1      23.291   5.679  52.039  1.00  0.00    -0.319 N 
HETATM    9  H8  UNL     1      22.298   5.979  52.120  1.00  0.00     0.181 HD
BRANCH   8  10
HETATM   10  N2  UNL     1      24.283   6.618  51.860  1.00  0.00    -0.209 NA
HETATM   11  H9  UNL     1      25.246   6.249  52.034  1.00  0.00     0.149 HD
BRANCH  10  12
HETATM   12  C11 UNL     1      24.187   7.362  50.642  1.00  0.00     0.251 A 
HETATM   13  N3  UNL     1      23.796   6.883  49.434  1.00  0.00    -0.262 NA
HETATM   14  C12 UNL     1      25.079   6.922  49.528  1.00  0.00     0.082 A 
BRANCH  14  15
HETATM   15  C13 UNL     1      26.433   6.733  49.046  1.00  0.00    -0.001 A 
HETATM   16  C14 UNL     1      26.668   5.407  48.943  1.00  0.00     0.021 A 
HETATM   17  C15 UNL     1      27.965   4.966  48.477  1.00  0.00     0.050 A 
HETATM   18  S1  UNL     1      28.858   6.620  48.184  1.00  0.00    -0.113 SA
HETATM   19  C16 UNL     1      27.461   7.691  48.696  1.00  0.00     0.063 A 
ENDBRANCH  14  15
ENDBRANCH  10  12
ENDBRANCH   8  10
ENDBRANCH   4   8
BRANCH   1  20
HETATM   20  O1  UNL     1      24.838   0.322  52.242  1.00  0.00    -0.345 OA
BRANCH  20  21
HETATM   21  C6  UNL     1      25.220  -0.558  53.225  1.00  0.00     0.214 C 
BRANCH  21  22
HETATM   22  C5  UNL     1      26.672  -0.760  53.333  1.00  0.00    -0.031 A 
HETATM   23  C4  UNL     1      27.528  -1.711  52.843  1.00  0.00     0.009 A 
HETATM   24  C3  UNL     1      28.876  -1.690  53.102  1.00  0.00     0.004 A 
HETATM   25  C2  UNL     1      29.452  -0.717  53.865  1.00  0.00     0.042 A 
HETATM   26  C1  UNL     1      28.626   0.266  54.383  1.00  0.00     0.117 A 
HETATM   27  F1  UNL     1      29.230   1.212  55.133  1.00  0.00    -0.206 F 
HETATM   28  C19 UNL     1      27.267   0.239  54.119  1.00  0.00     0.051 A 
ENDBRANCH  21  22
ENDBRANCH  20  21
ENDBRANCH   1  20
TORSDOF 7
ENDMDL
MODEL 2
REMARK VINA RESULT:      -7.7      3.549      5.407
REMARK  7 active torsions:
REMARK  status: ('A' for Active; 'I' for Inactive)
REMARK    1  A    between atoms: C5_6  and  C6_7 
REMARK    2  A    between atoms: C6_7  and  O1_8 
REMARK    3  A    between atoms: O1_8  and  C7_9 
REMARK    4  A    between atoms: C10_12  and  N1_13 
REMARK    5  A    between atoms: N1_13  and  N2_14 
REMARK    6  A    between atoms: N2_14  and  C11_15 
REMARK    7  A    between atoms: C12_17  and  C13_18 
ROOT
HETATM    1  C7  UNL     1      25.647   2.727  52.187  1.00  0.00     0.091 A 
HETATM    2  C8  UNL     1      24.585   2.910  53.029  1.00  0.00     0.041 A 
HETATM    3  C9  UNL     1      23.379   3.454  52.661  1.00  0.00     0.033 A 
HETATM    4  C10 UNL     1      23.189   3.857  51.356  1.00  0.00     0.044 A 
HETATM    5  C17 UNL     1      24.218   3.702  50.456  1.00  0.00     0.057 A 
HETATM    6  C18 UNL     1      25.418   3.149  50.864  1.00  0.00     0.069 A 
HETATM    7 CL1  UNL     1      26.573   3.059  49.519  1.00  0.00    -0.081 Cl
ENDROOT
BRANCH   4   8
HETATM    8  N1  UNL     1      21.934   4.420  50.992  1.00  0.00    -0.319 N 
HETATM    9  H8  UNL     1      21.882   5.269  50.394  1.00  0.00     0.181 HD
BRANCH   8  10
HETATM   10  N2  UNL     1      20.777   3.823  51.444  1.00  0.00    -0.209 NA
HETATM   11  H9  UNL     1      19.946   4.458  51.433  1.00  0.00     0.149 HD
BRANCH  10  12
HETATM   12  C11 UNL     1      20.504   2.542  50.871  1.00  0.00     0.251 A 
HETATM   13  N3  UNL     1      19.394   1.788  51.072  1.00  0.00    -0.262 NA
HETATM   14  C12 UNL     1      20.362   1.406  51.830  1.00  0.00     0.082 A 
BRANCH  14  15
HETATM   15  C13 UNL     1      20.981   0.574  52.842  1.00  0.00    -0.001 A 
HETATM   16  C14 UNL     1      22.116   0.051  52.329  1.00  0.00     0.021 A 
HETATM   17  C15 UNL     1      22.915  -0.822  53.161  1.00  0.00     0.050 A 
HETATM   18  S1  UNL     1      21.911  -0.850  54.777  1.00  0.00    -0.113 SA
HETATM   19  C16 UNL     1      20.576   0.265  54.197  1.00  0.00     0.063 A 
ENDBRANCH  14  15
ENDBRANCH  10  12
ENDBRANCH   8  10
ENDBRANCH   4   8
BRANCH   1  20
HETATM   20  O1  UNL     1      26.910   2.236  52.259  1.00  0.00    -0.345 OA
BRANCH  20  21
HETATM   21  C6  UNL     1      27.758   2.040  53.322  1.00  0.00     0.214 C 
BRANCH  21  22
HETATM   22  C5  UNL     1      28.387   0.711  53.363  1.00  0.00    -0.031 A 
HETATM   23  C4  UNL     1      29.641   0.276  53.700  1.00  0.00     0.009 A 
HETATM   24  C3  UNL     1      29.999  -1.049  53.641  1.00  0.00     0.004 A 
HETATM   25  C2  UNL     1      29.125  -2.018  53.244  1.00  0.00     0.042 A 
HETATM   26  C1  UNL     1      27.845  -1.625  52.893  1.00  0.00     0.117 A 
HETATM   27  F1  UNL     1      27.009  -2.611  52.505  1.00  0.00    -0.206 F 
HETATM   28  C19 UNL     1      27.491  -0.288  52.954  1.00  0.00     0.051 A 
ENDBRANCH  21  22
ENDBRANCH  20  21
ENDBRANCH   1  20
TORSDOF 7
ENDMDL
MODEL 3
REMARK VINA RESULT:      -7.7      6.440      8.624
REMARK  7 active torsions:
REMARK  status: ('A' for Active; 'I' for Inactive)
REMARK    1  A    between atoms: C5_6  and  C6_7 
REMARK    2  A    between atoms: C6_7  and  O1_8 
REMARK    3  A    between atoms: O1_8  and  C7_9 
REMARK    4  A    between atoms: C10_12  and  N1_13 
REMARK    5  A    between atoms: N1_13  and  N2_14 
REMARK    6  A    between atoms: N2_14  and  C11_15 
REMARK    7  A    between atoms: C12_17  and  C13_18 
ROOT
HETATM    1  C7  UNL     1      22.614   0.417  53.406  1.00  0.00     0.091 A 
HETATM    2  C8  UNL     1      22.552  -0.777  54.069  1.00  0.00     0.041 A 
HETATM    3  C9  UNL     1      21.405  -1.507  54.261  1.00  0.00     0.033 A 
HETATM    4  C10 UNL     1      20.210  -1.032  53.764  1.00  0.00     0.044 A 
HETATM    5  C17 UNL     1      20.201   0.165  53.086  1.00  0.00     0.057 A 
HETATM    6  C18 UNL     1      21.377   0.872  52.912  1.00  0.00     0.069 A 
HETATM    7 CL1  UNL     1      21.095   2.375  52.010  1.00  0.00    -0.081 Cl
ENDROOT
BRANCH   4   8
HETATM    8  N1  UNL     1      19.031  -1.801  53.973  1.00  0.00    -0.319 N 
HETATM    9  H8  UNL     1      19.080  -2.832  54.102  1.00  0.00     0.181 HD
BRANCH   8  10
HETATM   10  N2  UNL     1      17.811  -1.159  54.002  1.00  0.00    -0.209 NA
HETATM   11  H9  UNL     1      17.882  -0.135  54.203  1.00  0.00     0.149 HD
BRANCH  10  12
HETATM   12  C11 UNL     1      16.959  -1.450  52.892  1.00  0.00     0.251 A 
HETATM   13  N3  UNL     1      16.924  -0.789  51.707  1.00  0.00    -0.262 NA
HETATM   14  C12 UNL     1      15.997  -0.376  52.500  1.00  0.00     0.082 A 
BRANCH  14  15
HETATM   15  C13 UNL     1      14.863   0.447  52.871  1.00  0.00    -0.001 A 
HETATM   16  C14 UNL     1      15.107   1.714  52.472  1.00  0.00     0.021 A 
HETATM   17  C15 UNL     1      14.109   2.728  52.734  1.00  0.00     0.050 A 
HETATM   18  S1  UNL     1      12.754   1.725  53.614  1.00  0.00    -0.113 SA
HETATM   19  C16 UNL     1      13.627   0.115  53.547  1.00  0.00     0.063 A 
ENDBRANCH  14  15
ENDBRANCH  10  12
ENDBRANCH   8  10
ENDBRANCH   4   8
BRANCH   1  20
HETATM   20  O1  UNL     1      23.561   1.329  53.072  1.00  0.00    -0.345 OA
BRANCH  20  21
HETATM   21  C6  UNL     1      24.514   1.342  52.083  1.00  0.00     0.214 C 
BRANCH  21  22
HETATM   22  C5  UNL     1      25.846   0.890  52.513  1.00  0.00    -0.031 A 
HETATM   23  C4  UNL     1      26.432  -0.345  52.612  1.00  0.00     0.009 A 
HETATM   24  C3  UNL     1      27.716  -0.513  53.067  1.00  0.00     0.004 A 
HETATM   25  C2  UNL     1      28.494   0.541  53.450  1.00  0.00     0.042 A 
HETATM   26  C1  UNL     1      27.943   1.808  53.367  1.00  0.00     0.117 A 
HETATM   27  F1  UNL     1      28.740   2.825  53.754  1.00  0.00    -0.206 F 
HETATM   28  C19 UNL     1      26.647   1.971  52.908  1.00  0.00     0.051 A 
ENDBRANCH  21  22
ENDBRANCH  20  21
ENDBRANCH   1  20
TORSDOF 7
ENDMDL
MODEL 4
REMARK VINA RESULT:      -7.7      4.854      5.632
REMARK  7 active torsions:
REMARK  status: ('A' for Active; 'I' for Inactive)
REMARK    1  A    between atoms: C5_6  and  C6_7 
REMARK    2  A    between atoms: C6_7  and  O1_8 
REMARK    3  A    between atoms: O1_8  and  C7_9 
REMARK    4  A    between atoms: C10_12  and  N1_13 
REMARK    5  A    between atoms: N1_13  and  N2_14 
REMARK    6  A    between atoms: N2_14  and  C11_15 
REMARK    7  A    between atoms: C12_17  and  C13_18 
ROOT
HETATM    1  C7  UNL     1      23.684  -0.509  53.901  1.00  0.00     0.091 A 
HETATM    2  C8  UNL     1      22.836  -1.225  54.699  1.00  0.00     0.041 A 
HETATM    3  C9  UNL     1      21.466  -1.200  54.607  1.00  0.00     0.033 A 
HETATM    4  C10 UNL     1      20.867  -0.407  53.652  1.00  0.00     0.044 A 
HETATM    5  C17 UNL     1      21.663   0.341  52.815  1.00  0.00     0.057 A 
HETATM    6  C18 UNL     1      23.039   0.290  52.938  1.00  0.00     0.069 A 
HETATM    7 CL1  UNL     1      23.830   1.340  51.745  1.00  0.00    -0.081 Cl
ENDROOT
BRANCH   4   8
HETATM    8  N1  UNL     1      19.446  -0.392  53.571  1.00  0.00    -0.319 N 
HETATM    9  H8  UNL     1      18.865  -0.208  54.414  1.00  0.00     0.181 HD
BRANCH   8  10
HETATM   10  N2  UNL     1      18.844  -0.625  52.354  1.00  0.00    -0.209 NA
HETATM   11  H9  UNL     1      18.283  -1.508  52.327  1.00  0.00     0.149 HD
BRANCH  10  12
HETATM   12  C11 UNL     1      18.140   0.496  51.813  1.00  0.00     0.251 A 
HETATM   13  N3  UNL     1      17.610   0.590  50.568  1.00  0.00    -0.262 NA
HETATM   14  C12 UNL     1      18.764   1.158  50.629  1.00  0.00     0.082 A 
BRANCH  14  15
HETATM   15  C13 UNL     1      19.893   1.888  50.089  1.00  0.00    -0.001 A 
HETATM   16  C14 UNL     1      20.638   1.037  49.350  1.00  0.00     0.021 A 
HETATM   17  C15 UNL     1      21.829   1.541  48.703  1.00  0.00     0.050 A 
HETATM   18  S1  UNL     1      21.819   3.368  49.231  1.00  0.00    -0.113 SA
HETATM   19  C16 UNL     1      20.283   3.276  50.227  1.00  0.00     0.063 A 
ENDBRANCH  14  15
ENDBRANCH  10  12
ENDBRANCH   8  10
ENDBRANCH   4   8
BRANCH   1  20
HETATM   20  O1  UNL     1      25.023  -0.337  53.761  1.00  0.00    -0.345 OA
BRANCH  20  21
HETATM   21  C6  UNL     1      25.963  -1.019  53.027  1.00  0.00     0.214 C 
BRANCH  21  22
HETATM   22  C5  UNL     1      27.346  -0.569  53.239  1.00  0.00    -0.031 A 
HETATM   23  C4  UNL     1      28.545  -1.227  53.324  1.00  0.00     0.009 A 
HETATM   24  C3  UNL     1      29.729  -0.568  53.549  1.00  0.00     0.004 A 
HETATM   25  C2  UNL     1      29.788   0.786  53.700  1.00  0.00     0.042 A 
HETATM   26  C1  UNL     1      28.601   1.493  53.623  1.00  0.00     0.117 A 
HETATM   27  F1  UNL     1      28.697   2.830  53.777  1.00  0.00    -0.206 F 
HETATM   28  C19 UNL     1      27.410   0.824  53.397  1.00  0.00     0.051 A 
ENDBRANCH  21  22
ENDBRANCH  20  21
ENDBRANCH   1  20
TORSDOF 7
ENDMDL
MODEL 5
REMARK VINA RESULT:      -7.7      5.401      6.610
REMARK  7 active torsions:
REMARK  status: ('A' for Active; 'I' for Inactive)
REMARK    1  A    between atoms: C5_6  and  C6_7 
REMARK    2  A    between atoms: C6_7  and  O1_8 
REMARK    3  A    between atoms: O1_8  and  C7_9 
REMARK    4  A    between atoms: C10_12  and  N1_13 
REMARK    5  A    between atoms: N1_13  and  N2_14 
REMARK    6  A    between atoms: N2_14  and  C11_15 
REMARK    7  A    between atoms: C12_17  and  C13_18 
ROOT
HETATM    1  C7  UNL     1      23.970   0.003  53.621  1.00  0.00     0.091 A 
HETATM    2  C8  UNL     1      23.645  -0.905  54.589  1.00  0.00     0.041 A 
HETATM    3  C9  UNL     1      22.374  -1.361  54.840  1.00  0.00     0.033 A 
HETATM    4  C10 UNL     1      21.325  -0.892  54.079  1.00  0.00     0.044 A 
HETATM    5  C17 UNL     1      21.582   0.025  53.086  1.00  0.00     0.057 A 
HETATM    6  C18 UNL     1      22.876   0.461  52.863  1.00  0.00     0.069 A 
HETATM    7 CL1  UNL     1      22.938   1.636  51.533  1.00  0.00    -0.081 Cl
ENDROOT
BRANCH   4   8
HETATM    8  N1  UNL     1      20.014  -1.374  54.352  1.00  0.00    -0.319 N 
HETATM    9  H8  UNL     1      19.668  -1.456  55.330  1.00  0.00     0.181 HD
BRANCH   8  10
HETATM   10  N2  UNL     1      19.201  -1.734  53.300  1.00  0.00    -0.209 NA
HETATM   11  H9  UNL     1      18.987  -2.757  53.267  1.00  0.00     0.149 HD
BRANCH  10  12
HETATM   12  C11 UNL     1      18.038  -0.918  53.140  1.00  0.00     0.251 A 
HETATM   13  N3  UNL     1      17.181  -0.933  52.087  1.00  0.00    -0.262 NA
HETATM   14  C12 UNL     1      18.042   0.018  51.976  1.00  0.00     0.082 A 
BRANCH  14  15
HETATM   15  C13 UNL     1      18.658   1.157  51.324  1.00  0.00    -0.001 A 
HETATM   16  C14 UNL     1      19.287   0.721  50.211  1.00  0.00     0.021 A 
HETATM   17  C15 UNL     1      19.981   1.685  49.385  1.00  0.00     0.050 A 
HETATM   18  S1  UNL     1      19.668   3.307  50.328  1.00  0.00    -0.113 SA
HETATM   19  C16 UNL     1      18.680   2.560  51.680  1.00  0.00     0.063 A 
ENDBRANCH  14  15
ENDBRANCH  10  12
ENDBRANCH   8  10
ENDBRANCH   4   8
BRANCH   1  20
HETATM   20  O1  UNL     1      25.088   0.616  53.157  1.00  0.00    -0.345 OA
BRANCH  20  21
HETATM   21  C6  UNL     1      26.026   0.234  52.228  1.00  0.00     0.214 C 
BRANCH  21  22
HETATM   22  C5  UNL     1      27.375   0.025  52.774  1.00  0.00    -0.031 A 
HETATM   23  C4  UNL     1      28.365   0.879  53.183  1.00  0.00     0.009 A 
HETATM   24  C3  UNL     1      29.575   0.428  53.652  1.00  0.00     0.004 A 
HETATM   25  C2  UNL     1      29.868  -0.901  53.742  1.00  0.00     0.042 A 
HETATM   26  C1  UNL     1      28.897  -1.801  53.339  1.00  0.00     0.117 A 
HETATM   27  F1  UNL     1      29.222  -3.107  53.441  1.00  0.00    -0.206 F 
HETATM   28  C19 UNL     1      27.680  -1.342  52.866  1.00  0.00     0.051 A 
ENDBRANCH  21  22
ENDBRANCH  20  21
ENDBRANCH   1  20
TORSDOF 7
ENDMDL
MODEL 6
REMARK VINA RESULT:      -7.6      3.606      5.173
REMARK  7 active torsions:
REMARK  status: ('A' for Active; 'I' for Inactive)
REMARK    1  A    between atoms: C5_6  and  C6_7 
REMARK    2  A    between atoms: C6_7  and  O1_8 
REMARK    3  A    between atoms: O1_8  and  C7_9 
REMARK    4  A    between atoms: C10_12  and  N1_13 
REMARK    5  A    between atoms: N1_13  and  N2_14 
REMARK    6  A    between atoms: N2_14  and  C11_15 
REMARK    7  A    between atoms: C12_17  and  C13_18 
ROOT
HETATM    1  C7  UNL     1      24.470   2.864  50.773  1.00  0.00     0.091 A 
HETATM    2  C8  UNL     1      24.169   3.972  50.032  1.00  0.00     0.041 A 
HETATM    3  C9  UNL     1      25.092   4.756  49.384  1.00  0.00     0.033 A 
HETATM    4  C10 UNL     1      26.430   4.432  49.465  1.00  0.00     0.044 A 
HETATM    5  C17 UNL     1      26.802   3.327  50.196  1.00  0.00     0.057 A 
HETATM    6  C18 UNL     1      25.843   2.561  50.834  1.00  0.00     0.069 A 
HETATM    7 CL1  UNL     1      26.581   1.201  51.703  1.00  0.00    -0.081 Cl
ENDROOT
BRANCH   4   8
HETATM    8  N1  UNL     1      27.373   5.255  48.789  1.00  0.00    -0.319 N 
HETATM    9  H8  UNL     1      27.060   6.007  48.143  1.00  0.00     0.181 HD
BRANCH   8  10
HETATM   10  N2  UNL     1      28.718   5.042  49.001  1.00  0.00    -0.209 NA
HETATM   11  H9  UNL     1      29.046   4.097  48.696  1.00  0.00     0.149 HD
BRANCH  10  12
HETATM   12  C11 UNL     1      29.567   6.098  48.543  1.00  0.00     0.251 A 
HETATM   13  N3  UNL     1      29.814   6.430  47.251  1.00  0.00    -0.262 NA
HETATM   14  C12 UNL     1      30.750   5.687  47.729  1.00  0.00     0.082 A 
BRANCH  14  15
HETATM   15  C13 UNL     1      32.000   4.955  47.669  1.00  0.00    -0.001 A 
HETATM   16  C14 UNL     1      31.814   3.857  46.905  1.00  0.00     0.021 A 
HETATM   17  C15 UNL     1      32.931   2.961  46.695  1.00  0.00     0.050 A 
HETATM   18  S1  UNL     1      34.309   3.814  47.690  1.00  0.00    -0.113 SA
HETATM   19  C16 UNL     1      33.291   5.227  48.264  1.00  0.00     0.063 A 
ENDBRANCH  14  15
ENDBRANCH  10  12
ENDBRANCH   8  10
ENDBRANCH   4   8
BRANCH   1  20
HETATM   20  O1  UNL     1      23.802   1.930  51.496  1.00  0.00    -0.345 OA
BRANCH  20  21
HETATM   21  C6  UNL     1      22.599   1.300  51.292  1.00  0.00     0.214 C 
BRANCH  21  22
HETATM   22  C5  UNL     1      22.189   0.400  52.381  1.00  0.00    -0.031 A 
HETATM   23  C4  UNL     1      20.980  -0.114  52.769  1.00  0.00     0.009 A 
HETATM   24  C3  UNL     1      20.850  -0.941  53.858  1.00  0.00     0.004 A 
HETATM   25  C2  UNL     1      21.918  -1.307  54.622  1.00  0.00     0.042 A 
HETATM   26  C1  UNL     1      23.161  -0.811  54.267  1.00  0.00     0.117 A 
HETATM   27  F1  UNL     1      24.195  -1.193  55.046  1.00  0.00    -0.206 F 
HETATM   28  C19 UNL     1      23.286   0.024  53.170  1.00  0.00     0.051 A 
ENDBRANCH  21  22
ENDBRANCH  20  21
ENDBRANCH   1  20
TORSDOF 7
ENDMDL
MODEL 7
REMARK VINA RESULT:      -7.5      2.796      3.715
REMARK  7 active torsions:
REMARK  status: ('A' for Active; 'I' for Inactive)
REMARK    1  A    between atoms: C5_6  and  C6_7 
REMARK    2  A    between atoms: C6_7  and  O1_8 
REMARK    3  A    between atoms: O1_8  and  C7_9 
REMARK    4  A    between atoms: C10_12  and  N1_13 
REMARK    5  A    between atoms: N1_13  and  N2_14 
REMARK    6  A    between atoms: N2_14  and  C11_15 
REMARK    7  A    between atoms: C12_17  and  C13_18 
ROOT
HETATM    1  C7  UNL     1      23.884  -0.174  53.454  1.00  0.00     0.091 A 
HETATM    2  C8  UNL     1      22.682  -0.801  53.625  1.00  0.00     0.041 A 
HETATM    3  C9  UNL     1      21.458  -0.223  53.393  1.00  0.00     0.033 A 
HETATM    4  C10 UNL     1      21.398   1.083  52.955  1.00  0.00     0.044 A 
HETATM    5  C17 UNL     1      22.573   1.773  52.762  1.00  0.00     0.057 A 
HETATM    6  C18 UNL     1      23.787   1.157  53.007  1.00  0.00     0.069 A 
HETATM    7 CL1  UNL     1      25.142   2.258  52.682  1.00  0.00    -0.081 Cl
ENDROOT
BRANCH   4   8
HETATM    8  N1  UNL     1      20.122   1.667  52.720  1.00  0.00    -0.319 N 
HETATM    9  H8  UNL     1      19.286   1.072  52.548  1.00  0.00     0.181 HD
BRANCH   8  10
HETATM   10  N2  UNL     1      20.004   3.039  52.722  1.00  0.00    -0.209 NA
HETATM   11  H9  UNL     1      20.802   3.527  53.191  1.00  0.00     0.149 HD
BRANCH  10  12
HETATM   12  C11 UNL     1      19.674   3.611  51.454  1.00  0.00     0.251 A 
HETATM   13  N3  UNL     1      20.157   3.226  50.246  1.00  0.00    -0.262 NA
HETATM   14  C12 UNL     1      20.798   4.245  50.702  1.00  0.00     0.082 A 
BRANCH  14  15
HETATM   15  C13 UNL     1      21.808   5.283  50.657  1.00  0.00    -0.001 A 
HETATM   16  C14 UNL     1      22.952   4.745  50.180  1.00  0.00     0.021 A 
HETATM   17  C15 UNL     1      24.114   5.595  50.042  1.00  0.00     0.050 A 
HETATM   18  S1  UNL     1      23.450   7.268  50.656  1.00  0.00    -0.113 SA
HETATM   19  C16 UNL     1      21.751   6.683  51.022  1.00  0.00     0.063 A 
ENDBRANCH  14  15
ENDBRANCH  10  12
ENDBRANCH   8  10
ENDBRANCH   4   8
BRANCH   1  20
HETATM   20  O1  UNL     1      25.200  -0.474  53.596  1.00  0.00    -0.345 OA
BRANCH  20  21
HETATM   21  C6  UNL     1      26.054  -1.237  52.837  1.00  0.00     0.214 C 
BRANCH  21  22
HETATM   22  C5  UNL     1      27.481  -1.012  53.111  1.00  0.00    -0.031 A 
HETATM   23  C4  UNL     1      28.586  -1.820  53.058  1.00  0.00     0.009 A 
HETATM   24  C3  UNL     1      29.841  -1.369  53.386  1.00  0.00     0.004 A 
HETATM   25  C2  UNL     1      30.069  -0.084  53.784  1.00  0.00     0.042 A 
HETATM   26  C1  UNL     1      28.980   0.769  53.853  1.00  0.00     0.117 A 
HETATM   27  F1  UNL     1      29.243   2.031  54.251  1.00  0.00    -0.206 F 
HETATM   28  C19 UNL     1      27.718   0.308  53.523  1.00  0.00     0.051 A 
ENDBRANCH  21  22
ENDBRANCH  20  21
ENDBRANCH   1  20
TORSDOF 7
ENDMDL
MODEL 8
REMARK VINA RESULT:      -7.5      2.204      2.960
REMARK  7 active torsions:
REMARK  status: ('A' for Active; 'I' for Inactive)
REMARK    1  A    between atoms: C5_6  and  C6_7 
REMARK    2  A    between atoms: C6_7  and  O1_8 
REMARK    3  A    between atoms: O1_8  and  C7_9 
REMARK    4  A    between atoms: C10_12  and  N1_13 
REMARK    5  A    between atoms: N1_13  and  N2_14 
REMARK    6  A    between atoms: N2_14  and  C11_15 
REMARK    7  A    between atoms: C12_17  and  C13_18 
ROOT
HETATM    1  C7  UNL     1      25.252   1.307  51.915  1.00  0.00     0.091 A 
HETATM    2  C8  UNL     1      26.388   1.662  51.243  1.00  0.00     0.041 A 
HETATM    3  C9  UNL     1      26.530   2.803  50.493  1.00  0.00     0.033 A 
HETATM    4  C10 UNL     1      25.471   3.679  50.386  1.00  0.00     0.044 A 
HETATM    5  C17 UNL     1      24.296   3.382  51.038  1.00  0.00     0.057 A 
HETATM    6  C18 UNL     1      24.190   2.223  51.785  1.00  0.00     0.069 A 
HETATM    7 CL1  UNL     1      22.581   2.076  52.519  1.00  0.00    -0.081 Cl
ENDROOT
BRANCH   4   8
HETATM    8  N1  UNL     1      25.635   4.856  49.604  1.00  0.00    -0.319 N 
HETATM    9  H8  UNL     1      24.852   5.227  49.027  1.00  0.00     0.181 HD
BRANCH   8  10
HETATM   10  N2  UNL     1      26.851   5.503  49.617  1.00  0.00    -0.209 NA
HETATM   11  H9  UNL     1      27.391   5.361  50.501  1.00  0.00     0.149 HD
BRANCH  10  12
HETATM   12  C11 UNL     1      27.644   5.304  48.444  1.00  0.00     0.251 A 
HETATM   13  N3  UNL     1      28.970   5.019  48.407  1.00  0.00    -0.262 NA
HETATM   14  C12 UNL     1      28.758   6.276  48.229  1.00  0.00     0.082 A 
BRANCH  14  15
HETATM   15  C13 UNL     1      29.156   7.650  47.996  1.00  0.00    -0.001 A 
HETATM   16  C14 UNL     1      29.010   7.919  46.680  1.00  0.00     0.021 A 
HETATM   17  C15 UNL     1      29.348   9.241  46.201  1.00  0.00     0.050 A 
HETATM   18  S1  UNL     1      29.905  10.107  47.800  1.00  0.00    -0.113 SA
HETATM   19  C16 UNL     1      29.641   8.667  48.904  1.00  0.00     0.063 A 
ENDBRANCH  14  15
ENDBRANCH  10  12
ENDBRANCH   8  10
ENDBRANCH   4   8
BRANCH   1  20
HETATM   20  O1  UNL     1      24.832   0.287  52.705  1.00  0.00    -0.345 OA
BRANCH  20  21
HETATM   21  C6  UNL     1      25.405  -0.328  53.791  1.00  0.00     0.214 C 
BRANCH  21  22
HETATM   22  C5  UNL     1      26.863  -0.494  53.700  1.00  0.00    -0.031 A 
HETATM   23  C4  UNL     1      27.666  -1.426  53.097  1.00  0.00     0.009 A 
HETATM   24  C3  UNL     1      29.036  -1.370  53.170  1.00  0.00     0.004 A 
HETATM   25  C2  UNL     1      29.687  -0.381  53.846  1.00  0.00     0.042 A 
HETATM   26  C1  UNL     1      28.916   0.584  54.472  1.00  0.00     0.117 A 
HETATM   27  F1  UNL     1      29.593   1.547  55.131  1.00  0.00    -0.206 F 
HETATM   28  C19 UNL     1      27.535   0.522  54.396  1.00  0.00     0.051 A 
ENDBRANCH  21  22
ENDBRANCH  20  21
ENDBRANCH   1  20
TORSDOF 7
ENDMDL
MODEL 9
REMARK VINA RESULT:      -7.5      3.885      5.314
REMARK  7 active torsions:
REMARK  status: ('A' for Active; 'I' for Inactive)
REMARK    1  A    between atoms: C5_6  and  C6_7 
REMARK    2  A    between atoms: C6_7  and  O1_8 
REMARK    3  A    between atoms: O1_8  and  C7_9 
REMARK    4  A    between atoms: C10_12  and  N1_13 
REMARK    5  A    between atoms: N1_13  and  N2_14 
REMARK    6  A    between atoms: N2_14  and  C11_15 
REMARK    7  A    between atoms: C12_17  and  C13_18 
ROOT
HETATM    1  C7  UNL     1      24.683   3.962  50.526  1.00  0.00     0.091 A 
HETATM    2  C8  UNL     1      25.775   3.326  50.006  1.00  0.00     0.041 A 
HETATM    3  C9  UNL     1      26.827   3.955  49.386  1.00  0.00     0.033 A 
HETATM    4  C10 UNL     1      26.814   5.328  49.260  1.00  0.00     0.044 A 
HETATM    5  C17 UNL     1      25.743   6.031  49.761  1.00  0.00     0.057 A 
HETATM    6  C18 UNL     1      24.702   5.362  50.380  1.00  0.00     0.069 A 
HETATM    7 CL1  UNL     1      23.452   6.493  50.936  1.00  0.00    -0.081 Cl
ENDROOT
BRANCH   4   8
HETATM    8  N1  UNL     1      27.910   5.964  48.614  1.00  0.00    -0.319 N 
HETATM    9  H8  UNL     1      27.766   6.809  48.023  1.00  0.00     0.181 HD
BRANCH   8  10
HETATM   10  N2  UNL     1      29.176   5.445  48.779  1.00  0.00    -0.209 NA
HETATM   11  H9  UNL     1      29.313   4.519  48.313  1.00  0.00     0.149 HD
BRANCH  10  12
HETATM   12  C11 UNL     1      30.237   6.365  48.508  1.00  0.00     0.251 A 
HETATM   13  N3  UNL     1      30.643   6.789  47.285  1.00  0.00    -0.262 NA
HETATM   14  C12 UNL     1      31.387   5.832  47.718  1.00  0.00     0.082 A 
BRANCH  14  15
HETATM   15  C13 UNL     1      32.483   4.887  47.637  1.00  0.00    -0.001 A 
HETATM   16  C14 UNL     1      32.029   3.756  47.054  1.00  0.00     0.021 A 
HETATM   17  C15 UNL     1      32.950   2.657  46.862  1.00  0.00     0.050 A 
HETATM   18  S1  UNL     1      34.560   3.364  47.589  1.00  0.00    -0.113 SA
HETATM   19  C16 UNL     1      33.864   4.994  48.059  1.00  0.00     0.063 A 
ENDBRANCH  14  15
ENDBRANCH  10  12
ENDBRANCH   8  10
ENDBRANCH   4   8
BRANCH   1  20
HETATM   20  O1  UNL     1      23.537   3.623  51.169  1.00  0.00    -0.345 OA
BRANCH  20  21
HETATM   21  C6  UNL     1      23.281   3.306  52.481  1.00  0.00     0.214 C 
BRANCH  21  22
HETATM   22  C5  UNL     1      23.958   2.092  52.959  1.00  0.00    -0.031 A 
HETATM   23  C4  UNL     1      25.218   1.846  53.440  1.00  0.00     0.009 A 
HETATM   24  C3  UNL     1      25.627   0.591  53.816  1.00  0.00     0.004 A 
HETATM   25  C2  UNL     1      24.804  -0.495  53.738  1.00  0.00     0.042 A 
HETATM   26  C1  UNL     1      23.522  -0.294  53.257  1.00  0.00     0.117 A 
HETATM   27  F1  UNL     1      22.736  -1.390  53.193  1.00  0.00    -0.206 F 
HETATM   28  C19 UNL     1      23.115   0.973  52.878  1.00  0.00     0.051 A 
ENDBRANCH  21  22
ENDBRANCH  20  21
ENDBRANCH   1  20
TORSDOF 7
ENDMDL
