MODEL 1
REMARK VINA RESULT:      -8.3      0.000      0.000
REMARK  3 active torsions:
REMARK  status: ('A' for Active; 'I' for Inactive)
REMARK    1  A    between atoms: C11_16  and  O1_17 
REMARK    2  A    between atoms: C14_20  and  O2_21 
REMARK    3  A    between atoms: O2_21  and  C15_22 
ROOT
HETATM    1  C1  UNL     1      22.159  -1.710  53.623  1.00  0.00     0.179 C 
HETATM    2  N1  UNL     1      22.237  -0.298  53.328  1.00  0.00    -0.277 NA
HETATM    3  C2  UNL     1      23.425   0.197  53.083  1.00  0.00     0.138 C 
HETATM    4  N2  UNL     1      24.579  -0.633  53.110  1.00  0.00    -0.339 N 
HETATM    5  C3  UNL     1      25.952  -0.276  53.200  1.00  0.00     0.062 A 
HETATM    6  C4  UNL     1      26.757  -1.404  53.237  1.00  0.00     0.035 A 
HETATM    7  C5  UNL     1      28.128  -1.270  53.324  1.00  0.00     0.046 A 
HETATM    8  C6  UNL     1      28.647   0.018  53.372  1.00  0.00     0.140 A 
HETATM    9  F1  UNL     1      30.009   0.119  53.460  1.00  0.00    -0.204 F 
HETATM   10  C7  UNL     1      27.833   1.148  53.335  1.00  0.00     0.101 A 
HETATM   11 CL1  UNL     1      28.552   2.739  53.400  1.00  0.00    -0.079 Cl
HETATM   12  C8  UNL     1      26.466   1.002  53.249  1.00  0.00     0.084 A 
HETATM   13  N3  UNL     1      25.788   2.245  53.222  1.00  0.00    -0.352 N 
HETATM   14  C9  UNL     1      24.420   2.505  52.882  1.00  0.00     0.052 A 
HETATM   15  C10 UNL     1      24.304   3.852  52.614  1.00  0.00     0.067 A 
HETATM   16  C11 UNL     1      23.066   4.305  52.267  1.00  0.00     0.073 A 
HETATM   17  C13 UNL     1      21.973   3.476  52.183  1.00  0.00     0.074 A 
HETATM   18  C14 UNL     1      22.059   2.127  52.443  1.00  0.00     0.088 A 
HETATM   19  C19 UNL     1      23.326   1.645  52.802  1.00  0.00     0.070 A 
HETATM   20  H4  UNL     1      24.333  -1.642  53.053  1.00  0.00     0.167 HD
HETATM   21  H7  UNL     1      26.360   3.081  53.483  1.00  0.00     0.166 HD
ENDROOT
BRANCH  18  22
HETATM   22  O2  UNL     1      21.140   1.102  52.431  1.00  0.00    -0.343 OA
BRANCH  22  23
HETATM   23  C15 UNL     1      19.894   1.285  51.854  1.00  0.00     0.154 C 
HETATM   24  C16 UNL     1      19.890   1.007  50.356  1.00  0.00     0.061 C 
HETATM   25  C17 UNL     1      18.422   0.704  50.146  1.00  0.00     0.170 C 
HETATM   26  O3  UNL     1      17.855   0.464  51.371  1.00  0.00    -0.389 OA
HETATM   27  C18 UNL     1      18.899   0.191  52.275  1.00  0.00     0.200 C 
ENDBRANCH  22  23
ENDBRANCH  18  22
BRANCH  16  28
HETATM   28  O1  UNL     1      22.748   5.639  51.960  1.00  0.00    -0.356 OA
HETATM   29  C12 UNL     1      21.577   5.917  51.214  1.00  0.00     0.210 C 
ENDBRANCH  16  28
TORSDOF 3
ENDMDL
MODEL 2
REMARK VINA RESULT:      -8.3      4.106      6.934
REMARK  3 active torsions:
REMARK  status: ('A' for Active; 'I' for Inactive)
REMARK    1  A    between atoms: C11_16  and  O1_17 
REMARK    2  A    between atoms: C14_20  and  O2_21 
REMARK    3  A    between atoms: O2_21  and  C15_22 
ROOT
HETATM    1  C1  UNL     1      24.639  -1.200  54.892  1.00  0.00     0.179 C 
HETATM    2  N1  UNL     1      24.820  -0.237  53.831  1.00  0.00    -0.277 NA
HETATM    3  C2  UNL     1      23.739   0.217  53.245  1.00  0.00     0.138 C 
HETATM    4  N2  UNL     1      22.451  -0.229  53.648  1.00  0.00    -0.339 N 
HETATM    5  C3  UNL     1      21.204  -0.135  52.971  1.00  0.00     0.062 A 
HETATM    6  C4  UNL     1      20.195  -0.737  53.705  1.00  0.00     0.035 A 
HETATM    7  C5  UNL     1      18.904  -0.752  53.216  1.00  0.00     0.046 A 
HETATM    8  C6  UNL     1      18.674  -0.150  51.985  1.00  0.00     0.140 A 
HETATM    9  F1  UNL     1      17.385  -0.183  51.527  1.00  0.00    -0.204 F 
HETATM   10  C7  UNL     1      19.693   0.453  51.252  1.00  0.00     0.101 A 
HETATM   11 CL1  UNL     1      19.335   1.191  49.710  1.00  0.00    -0.079 Cl
HETATM   12  C8  UNL     1      20.979   0.462  51.749  1.00  0.00     0.084 A 
HETATM   13  N3  UNL     1      21.890   1.113  50.884  1.00  0.00    -0.352 N 
HETATM   14  C9  UNL     1      23.228   1.544  51.163  1.00  0.00     0.052 A 
HETATM   15  C10 UNL     1      23.587   2.453  50.190  1.00  0.00     0.067 A 
HETATM   16  C11 UNL     1      24.838   2.987  50.280  1.00  0.00     0.073 A 
HETATM   17  C13 UNL     1      25.715   2.649  51.283  1.00  0.00     0.074 A 
HETATM   18  C14 UNL     1      25.385   1.747  52.268  1.00  0.00     0.088 A 
HETATM   19  C19 UNL     1      24.101   1.188  52.191  1.00  0.00     0.070 A 
HETATM   20  H4  UNL     1      22.473  -0.685  54.583  1.00  0.00     0.167 HD
HETATM   21  H7  UNL     1      21.543   1.303  49.916  1.00  0.00     0.166 HD
ENDROOT
BRANCH  18  22
HETATM   22  O2  UNL     1      26.061   1.248  53.358  1.00  0.00    -0.343 OA
BRANCH  22  23
HETATM   23  C15 UNL     1      27.443   1.155  53.342  1.00  0.00     0.154 C 
HETATM   24  C16 UNL     1      28.127   2.452  53.757  1.00  0.00     0.061 C 
HETATM   25  C17 UNL     1      29.467   1.912  54.209  1.00  0.00     0.170 C 
HETATM   26  O3  UNL     1      29.346   0.559  54.385  1.00  0.00    -0.389 OA
HETATM   27  C18 UNL     1      27.973   0.264  54.477  1.00  0.00     0.200 C 
ENDBRANCH  22  23
ENDBRANCH  18  22
BRANCH  16  28
HETATM   28  O1  UNL     1      25.384   3.923  49.386  1.00  0.00    -0.356 OA
HETATM   29  C12 UNL     1      26.790   4.082  49.323  1.00  0.00     0.210 C 
ENDBRANCH  16  28
TORSDOF 3
ENDMDL
MODEL 3
REMARK VINA RESULT:      -8.2      3.564      5.790
REMARK  3 active torsions:
REMARK  status: ('A' for Active; 'I' for Inactive)
REMARK    1  A    between atoms: C11_16  and  O1_17 
REMARK    2  A    between atoms: C14_20  and  O2_21 
REMARK    3  A    between atoms: O2_21  and  C15_22 
ROOT
HETATM    1  C1  UNL     1      20.941   2.856  51.284  1.00  0.00     0.179 C 
HETATM    2  N1  UNL     1      22.218   2.272  51.623  1.00  0.00    -0.277 NA
HETATM    3  C2  UNL     1      23.291   2.941  51.277  1.00  0.00     0.138 C 
HETATM    4  N2  UNL     1      23.186   4.185  50.598  1.00  0.00    -0.339 N 
HETATM    5  C3  UNL     1      24.166   4.902  49.858  1.00  0.00     0.062 A 
HETATM    6  C4  UNL     1      23.632   6.063  49.321  1.00  0.00     0.035 A 
HETATM    7  C5  UNL     1      24.427   6.901  48.566  1.00  0.00     0.046 A 
HETATM    8  C6  UNL     1      25.753   6.533  48.376  1.00  0.00     0.140 A 
HETATM    9  F1  UNL     1      26.515   7.384  47.622  1.00  0.00    -0.204 F 
HETATM   10  C7  UNL     1      26.284   5.365  48.918  1.00  0.00     0.101 A 
HETATM   11 CL1  UNL     1      27.961   4.962  48.640  1.00  0.00    -0.079 Cl
HETATM   12  C8  UNL     1      25.482   4.535  49.670  1.00  0.00     0.084 A 
HETATM   13  N3  UNL     1      26.174   3.395  50.145  1.00  0.00    -0.352 N 
HETATM   14  C9  UNL     1      25.763   2.460  51.151  1.00  0.00     0.052 A 
HETATM   15  C10 UNL     1      26.882   1.765  51.558  1.00  0.00     0.067 A 
HETATM   16  C11 UNL     1      26.699   0.817  52.521  1.00  0.00     0.073 A 
HETATM   17  C13 UNL     1      25.468   0.552  53.072  1.00  0.00     0.074 A 
HETATM   18  C14 UNL     1      24.335   1.230  52.686  1.00  0.00     0.088 A 
HETATM   19  C19 UNL     1      24.505   2.209  51.696  1.00  0.00     0.070 A 
HETATM   20  H4  UNL     1      22.233   4.594  50.682  1.00  0.00     0.167 HD
HETATM   21  H7  UNL     1      27.105   3.212  49.705  1.00  0.00     0.166 HD
ENDROOT
BRANCH  18  22
HETATM   22  O2  UNL     1      23.014   1.160  53.070  1.00  0.00    -0.343 OA
BRANCH  22  23
HETATM   23  C15 UNL     1      22.566   0.101  53.843  1.00  0.00     0.154 C 
HETATM   24  C16 UNL     1      21.099   0.234  54.234  1.00  0.00     0.061 C 
HETATM   25  C17 UNL     1      20.763  -1.217  54.502  1.00  0.00     0.170 C 
HETATM   26  O3  UNL     1      21.750  -1.994  53.954  1.00  0.00    -0.389 OA
HETATM   27  C18 UNL     1      22.451  -1.197  53.028  1.00  0.00     0.200 C 
ENDBRANCH  22  23
ENDBRANCH  18  22
BRANCH  16  28
HETATM   28  O1  UNL     1      27.712   0.008  53.063  1.00  0.00    -0.356 OA
HETATM   29  C12 UNL     1      28.012   0.106  54.443  1.00  0.00     0.210 C 
ENDBRANCH  16  28
TORSDOF 3
ENDMDL
MODEL 4
REMARK VINA RESULT:      -8.2      3.807      6.914
REMARK  3 active torsions:
REMARK  status: ('A' for Active; 'I' for Inactive)
REMARK    1  A    between atoms: C11_16  and  O1_17 
REMARK    2  A    between atoms: C14_20  and  O2_21 
REMARK    3  A    between atoms: O2_21  and  C15_22 
ROOT
HETATM    1  C1  UNL     1      28.519   2.684  53.130  1.00  0.00     0.179 C 
HETATM    2  N1  UNL     1      27.268   1.965  53.200  1.00  0.00    -0.277 NA
HETATM    3  C2  UNL     1      26.366   2.246  52.292  1.00  0.00     0.138 C 
HETATM    4  N2  UNL     1      26.622   3.218  51.287  1.00  0.00    -0.339 N 
HETATM    5  C3  UNL     1      25.715   3.903  50.432  1.00  0.00     0.062 A 
HETATM    6  C4  UNL     1      26.383   4.804  49.619  1.00  0.00     0.035 A 
HETATM    7  C5  UNL     1      25.676   5.570  48.714  1.00  0.00     0.046 A 
HETATM    8  C6  UNL     1      24.298   5.396  48.661  1.00  0.00     0.140 A 
HETATM    9  F1  UNL     1      23.625   6.170  47.755  1.00  0.00    -0.204 F 
HETATM   10  C7  UNL     1      23.633   4.488  49.480  1.00  0.00     0.101 A 
HETATM   11 CL1  UNL     1      21.898   4.320  49.362  1.00  0.00    -0.079 Cl
HETATM   12  C8  UNL     1      24.348   3.729  50.381  1.00  0.00     0.084 A 
HETATM   13  N3  UNL     1      23.523   2.860  51.134  1.00  0.00    -0.352 N 
HETATM   14  C9  UNL     1      23.915   1.756  51.961  1.00  0.00     0.052 A 
HETATM   15  C10 UNL     1      22.798   0.977  52.175  1.00  0.00     0.067 A 
HETATM   16  C11 UNL     1      22.964  -0.135  52.947  1.00  0.00     0.073 A 
HETATM   17  C13 UNL     1      24.176  -0.479  53.495  1.00  0.00     0.074 A 
HETATM   18  C14 UNL     1      25.307   0.279  53.299  1.00  0.00     0.088 A 
HETATM   19  C19 UNL     1      25.154   1.426  52.507  1.00  0.00     0.070 A 
HETATM   20  H4  UNL     1      27.637   3.429  51.201  1.00  0.00     0.167 HD
HETATM   21  H7  UNL     1      22.495   3.047  51.080  1.00  0.00     0.166 HD
ENDROOT
BRANCH  18  22
HETATM   22  O2  UNL     1      26.611   0.160  53.725  1.00  0.00    -0.343 OA
BRANCH  22  23
HETATM   23  C15 UNL     1      27.210  -1.087  53.804  1.00  0.00     0.154 C 
HETATM   24  C16 UNL     1      27.001  -1.923  52.548  1.00  0.00     0.061 C 
HETATM   25  C17 UNL     1      28.175  -2.872  52.662  1.00  0.00     0.170 C 
HETATM   26  O3  UNL     1      29.055  -2.356  53.577  1.00  0.00    -0.389 OA
HETATM   27  C18 UNL     1      28.743  -0.993  53.743  1.00  0.00     0.200 C 
ENDBRANCH  22  23
ENDBRANCH  18  22
BRANCH  16  28
HETATM   28  O1  UNL     1      21.950  -1.049  53.277  1.00  0.00    -0.356 OA
HETATM   29  C12 UNL     1      21.700  -1.343  54.640  1.00  0.00     0.210 C 
ENDBRANCH  16  28
TORSDOF 3
ENDMDL
MODEL 5
REMARK VINA RESULT:      -8.2      4.328      7.071
REMARK  3 active torsions:
REMARK  status: ('A' for Active; 'I' for Inactive)
REMARK    1  A    between atoms: C11_16  and  O1_17 
REMARK    2  A    between atoms: C14_20  and  O2_21 
REMARK    3  A    between atoms: O2_21  and  C15_22 
ROOT
HETATM    1  C1  UNL     1      23.146  -0.454  53.436  1.00  0.00     0.179 C 
HETATM    2  N1  UNL     1      23.979   0.384  52.605  1.00  0.00    -0.277 NA
HETATM    3  C2  UNL     1      23.423   1.452  52.086  1.00  0.00     0.138 C 
HETATM    4  N2  UNL     1      22.059   1.759  52.341  1.00  0.00    -0.339 N 
HETATM    5  C3  UNL     1      21.183   2.643  51.653  1.00  0.00     0.062 A 
HETATM    6  C4  UNL     1      19.914   2.616  52.210  1.00  0.00     0.035 A 
HETATM    7  C5  UNL     1      18.914   3.408  51.682  1.00  0.00     0.046 A 
HETATM    8  C6  UNL     1      19.235   4.211  50.594  1.00  0.00     0.140 A 
HETATM    9  F1  UNL     1      18.222   4.984  50.093  1.00  0.00    -0.204 F 
HETATM   10  C7  UNL     1      20.512   4.233  50.040  1.00  0.00     0.101 A 
HETATM   11 CL1  UNL     1      20.847   5.266  48.672  1.00  0.00    -0.079 Cl
HETATM   12  C8  UNL     1      21.503   3.438  50.574  1.00  0.00     0.084 A 
HETATM   13  N3  UNL     1      22.737   3.580  49.895  1.00  0.00    -0.352 N 
HETATM   14  C9  UNL     1      24.034   3.130  50.307  1.00  0.00     0.052 A 
HETATM   15  C10 UNL     1      24.970   3.810  49.556  1.00  0.00     0.067 A 
HETATM   16  C11 UNL     1      26.280   3.521  49.799  1.00  0.00     0.073 A 
HETATM   17  C13 UNL     1      26.670   2.600  50.742  1.00  0.00     0.074 A 
HETATM   18  C14 UNL     1      25.760   1.907  51.506  1.00  0.00     0.088 A 
HETATM   19  C19 UNL     1      24.407   2.193  51.269  1.00  0.00     0.070 A 
HETATM   20  H4  UNL     1      21.690   1.236  53.162  1.00  0.00     0.167 HD
HETATM   21  H7  UNL     1      22.696   4.076  48.976  1.00  0.00     0.166 HD
ENDROOT
BRANCH  18  22
HETATM   22  O2  UNL     1      25.883   0.956  52.494  1.00  0.00    -0.343 OA
BRANCH  22  23
HETATM   23  C15 UNL     1      27.134   0.489  52.862  1.00  0.00     0.154 C 
HETATM   24  C16 UNL     1      27.549   0.944  54.256  1.00  0.00     0.061 C 
HETATM   25  C17 UNL     1      28.563  -0.127  54.595  1.00  0.00     0.170 C 
HETATM   26  O3  UNL     1      28.397  -1.166  53.718  1.00  0.00    -0.389 OA
HETATM   27  C18 UNL     1      27.126  -1.026  53.129  1.00  0.00     0.200 C 
ENDBRANCH  22  23
ENDBRANCH  18  22
BRANCH  16  28
HETATM   28  O1  UNL     1      27.374   4.105  49.140  1.00  0.00    -0.356 OA
HETATM   29  C12 UNL     1      27.253   5.421  48.630  1.00  0.00     0.210 C 
ENDBRANCH  16  28
TORSDOF 3
ENDMDL
MODEL 6
REMARK VINA RESULT:      -8.2      3.907      6.985
REMARK  3 active torsions:
REMARK  status: ('A' for Active; 'I' for Inactive)
REMARK    1  A    between atoms: C11_16  and  O1_17 
REMARK    2  A    between atoms: C14_20  and  O2_21 
REMARK    3  A    between atoms: O2_21  and  C15_22 
ROOT
HETATM    1  C1  UNL     1      21.883   4.501  50.198  1.00  0.00     0.179 C 
HETATM    2  N1  UNL     1      22.975   3.738  50.757  1.00  0.00    -0.277 NA
HETATM    3  C2  UNL     1      22.688   2.559  51.252  1.00  0.00     0.138 C 
HETATM    4  N2  UNL     1      21.355   2.066  51.232  1.00  0.00    -0.339 N 
HETATM    5  C3  UNL     1      20.768   1.005  51.974  1.00  0.00     0.062 A 
HETATM    6  C4  UNL     1      19.420   0.879  51.678  1.00  0.00     0.035 A 
HETATM    7  C5  UNL     1      18.667  -0.098  52.298  1.00  0.00     0.046 A 
HETATM    8  C6  UNL     1      19.311  -0.926  53.209  1.00  0.00     0.140 A 
HETATM    9  F1  UNL     1      18.538  -1.884  53.808  1.00  0.00    -0.204 F 
HETATM   10  C7  UNL     1      20.666  -0.795  53.502  1.00  0.00     0.101 A 
HETATM   11 CL1  UNL     1      21.413  -1.870  54.658  1.00  0.00    -0.079 Cl
HETATM   12  C8  UNL     1      21.408   0.184  52.878  1.00  0.00     0.084 A 
HETATM   13  N3  UNL     1      22.763   0.181  53.287  1.00  0.00    -0.352 N 
HETATM   14  C9  UNL     1      23.875   0.858  52.686  1.00  0.00     0.052 A 
HETATM   15  C10 UNL     1      25.029   0.273  53.164  1.00  0.00     0.067 A 
HETATM   16  C11 UNL     1      26.209   0.781  52.706  1.00  0.00     0.073 A 
HETATM   17  C13 UNL     1      26.268   1.823  51.813  1.00  0.00     0.074 A 
HETATM   18  C14 UNL     1      25.134   2.426  51.319  1.00  0.00     0.088 A 
HETATM   19  C19 UNL     1      23.911   1.916  51.779  1.00  0.00     0.070 A 
HETATM   20  H4  UNL     1      20.757   2.589  50.560  1.00  0.00     0.167 HD
HETATM   21  H7  UNL     1      22.981  -0.388  54.137  1.00  0.00     0.166 HD
ENDROOT
BRANCH  18  22
HETATM   22  O2  UNL     1      24.921   3.461  50.436  1.00  0.00    -0.343 OA
BRANCH  22  23
HETATM   23  C15 UNL     1      25.934   4.364  50.160  1.00  0.00     0.154 C 
HETATM   24  C16 UNL     1      26.918   3.848  49.118  1.00  0.00     0.061 C 
HETATM   25  C17 UNL     1      27.482   5.158  48.612  1.00  0.00     0.170 C 
HETATM   26  O3  UNL     1      26.649   6.168  49.019  1.00  0.00    -0.389 OA
HETATM   27  C18 UNL     1      25.419   5.584  49.378  1.00  0.00     0.200 C 
ENDBRANCH  22  23
ENDBRANCH  18  22
BRANCH  16  28
HETATM   28  O1  UNL     1      27.484   0.322  53.076  1.00  0.00    -0.356 OA
HETATM   29  C12 UNL     1      27.858   0.339  54.441  1.00  0.00     0.210 C 
ENDBRANCH  16  28
TORSDOF 3
ENDMDL
MODEL 7
REMARK VINA RESULT:      -8.1      2.631      5.106
REMARK  3 active torsions:
REMARK  status: ('A' for Active; 'I' for Inactive)
REMARK    1  A    between atoms: C11_16  and  O1_17 
REMARK    2  A    between atoms: C14_20  and  O2_21 
REMARK    3  A    between atoms: O2_21  and  C15_22 
ROOT
HETATM    1  C1  UNL     1      27.082   4.588  49.064  1.00  0.00     0.179 C 
HETATM    2  N1  UNL     1      25.797   4.001  49.364  1.00  0.00    -0.277 NA
HETATM    3  C2  UNL     1      25.703   3.301  50.468  1.00  0.00     0.138 C 
HETATM    4  N2  UNL     1      26.826   3.137  51.323  1.00  0.00    -0.339 N 
HETATM    5  C3  UNL     1      27.048   2.189  52.360  1.00  0.00     0.062 A 
HETATM    6  C4  UNL     1      28.303   2.354  52.924  1.00  0.00     0.035 A 
HETATM    7  C5  UNL     1      28.710   1.528  53.951  1.00  0.00     0.046 A 
HETATM    8  C6  UNL     1      27.823   0.549  54.381  1.00  0.00     0.140 A 
HETATM    9  F1  UNL     1      28.257  -0.256  55.400  1.00  0.00    -0.204 F 
HETATM   10  C7  UNL     1      26.563   0.387  53.810  1.00  0.00     0.101 A 
HETATM   11 CL1  UNL     1      25.497  -0.865  54.398  1.00  0.00    -0.079 Cl
HETATM   12  C8  UNL     1      26.166   1.218  52.785  1.00  0.00     0.084 A 
HETATM   13  N3  UNL     1      24.862   0.921  52.320  1.00  0.00    -0.352 N 
HETATM   14  C9  UNL     1      24.022   1.709  51.466  1.00  0.00     0.052 A 
HETATM   15  C10 UNL     1      22.734   1.235  51.596  1.00  0.00     0.067 A 
HETATM   16  C11 UNL     1      21.773   1.859  50.856  1.00  0.00     0.073 A 
HETATM   17  C13 UNL     1      22.054   2.911  50.017  1.00  0.00     0.074 A 
HETATM   18  C14 UNL     1      23.329   3.406  49.869  1.00  0.00     0.088 A 
HETATM   19  C19 UNL     1      24.330   2.775  50.623  1.00  0.00     0.070 A 
HETATM   20  H4  UNL     1      27.571   3.836  51.125  1.00  0.00     0.167 HD
HETATM   21  H7  UNL     1      24.461   0.010  52.640  1.00  0.00     0.166 HD
ENDROOT
BRANCH  18  22
HETATM   22  O2  UNL     1      23.867   4.424  49.114  1.00  0.00    -0.343 OA
BRANCH  22  23
HETATM   23  C15 UNL     1      23.166   5.606  48.934  1.00  0.00     0.154 C 
HETATM   24  C16 UNL     1      23.195   6.504  50.164  1.00  0.00     0.061 C 
HETATM   25  C17 UNL     1      22.920   7.846  49.520  1.00  0.00     0.170 C 
HETATM   26  O3  UNL     1      23.124   7.723  48.171  1.00  0.00    -0.389 OA
HETATM   27  C18 UNL     1      23.884   6.556  47.961  1.00  0.00     0.200 C 
ENDBRANCH  22  23
ENDBRANCH  18  22
BRANCH  16  28
HETATM   28  O1  UNL     1      20.409   1.522  50.851  1.00  0.00    -0.356 OA
HETATM   29  C12 UNL     1      19.979   0.366  51.546  1.00  0.00     0.210 C 
ENDBRANCH  16  28
TORSDOF 3
ENDMDL
MODEL 8
REMARK VINA RESULT:      -8.0      3.522      5.049
REMARK  3 active torsions:
REMARK  status: ('A' for Active; 'I' for Inactive)
REMARK    1  A    between atoms: C11_16  and  O1_17 
REMARK    2  A    between atoms: C14_20  and  O2_21 
REMARK    3  A    between atoms: O2_21  and  C15_22 
ROOT
HETATM    1  C1  UNL     1      25.844   1.086  53.215  1.00  0.00     0.179 C 
HETATM    2  N1  UNL     1      24.510   1.605  53.020  1.00  0.00    -0.277 NA
HETATM    3  C2  UNL     1      24.335   2.449  52.033  1.00  0.00     0.138 C 
HETATM    4  N2  UNL     1      25.422   2.828  51.199  1.00  0.00    -0.339 N 
HETATM    5  C3  UNL     1      25.543   3.933  50.312  1.00  0.00     0.062 A 
HETATM    6  C4  UNL     1      26.794   3.955  49.715  1.00  0.00     0.035 A 
HETATM    7  C5  UNL     1      27.111   4.954  48.817  1.00  0.00     0.046 A 
HETATM    8  C6  UNL     1      26.139   5.910  48.548  1.00  0.00     0.140 A 
HETATM    9  F1  UNL     1      26.484   6.888  47.654  1.00  0.00    -0.204 F 
HETATM   10  C7  UNL     1      24.884   5.883  49.150  1.00  0.00     0.101 A 
HETATM   11 CL1  UNL     1      23.709   7.117  48.767  1.00  0.00    -0.079 Cl
HETATM   12  C8  UNL     1      24.578   4.881  50.046  1.00  0.00     0.084 A 
HETATM   13  N3  UNL     1      23.267   4.999  50.565  1.00  0.00    -0.352 N 
HETATM   14  C9  UNL     1      22.511   4.029  51.302  1.00  0.00     0.052 A 
HETATM   15  C10 UNL     1      21.187   4.410  51.260  1.00  0.00     0.067 A 
HETATM   16  C11 UNL     1      20.296   3.608  51.910  1.00  0.00     0.073 A 
HETATM   17  C13 UNL     1      20.679   2.471  52.579  1.00  0.00     0.074 A 
HETATM   18  C14 UNL     1      21.992   2.065  52.638  1.00  0.00     0.088 A 
HETATM   19  C19 UNL     1      22.922   2.879  51.975  1.00  0.00     0.070 A 
HETATM   20  H4  UNL     1      26.224   2.171  51.283  1.00  0.00     0.167 HD
HETATM   21  H7  UNL     1      22.787   5.912  50.388  1.00  0.00     0.166 HD
ENDROOT
BRANCH  18  22
HETATM   22  O2  UNL     1      22.626   0.994  53.227  1.00  0.00    -0.343 OA
BRANCH  22  23
HETATM   23  C15 UNL     1      21.928   0.145  54.070  1.00  0.00     0.154 C 
HETATM   24  C16 UNL     1      20.948  -0.753  53.326  1.00  0.00     0.061 C 
HETATM   25  C17 UNL     1      20.813  -1.884  54.324  1.00  0.00     0.170 C 
HETATM   26  O3  UNL     1      21.844  -1.787  55.221  1.00  0.00    -0.389 OA
HETATM   27  C18 UNL     1      22.828  -0.958  54.649  1.00  0.00     0.200 C 
ENDBRANCH  22  23
ENDBRANCH  18  22
BRANCH  16  28
HETATM   28  O1  UNL     1      18.911   3.829  51.981  1.00  0.00    -0.356 OA
HETATM   29  C12 UNL     1      18.026   2.851  51.462  1.00  0.00     0.210 C 
ENDBRANCH  16  28
TORSDOF 3
ENDMDL
MODEL 9
REMARK VINA RESULT:      -7.9      3.587      5.034
REMARK  3 active torsions:
REMARK  status: ('A' for Active; 'I' for Inactive)
REMARK    1  A    between atoms: C11_16  and  O1_17 
REMARK    2  A    between atoms: C14_20  and  O2_21 
REMARK    3  A    between atoms: O2_21  and  C15_22 
ROOT
HETATM    1  C1  UNL     1      19.695   3.447  51.032  1.00  0.00     0.179 C 
HETATM    2  N1  UNL     1      21.110   3.485  50.745  1.00  0.00    -0.277 NA
HETATM    3  C2  UNL     1      21.852   2.541  51.271  1.00  0.00     0.138 C 
HETATM    4  N2  UNL     1      21.275   1.531  52.086  1.00  0.00    -0.339 N 
HETATM    5  C3  UNL     1      21.896   0.633  52.998  1.00  0.00     0.062 A 
HETATM    6  C4  UNL     1      20.955  -0.171  53.622  1.00  0.00     0.035 A 
HETATM    7  C5  UNL     1      21.359  -1.112  54.547  1.00  0.00     0.046 A 
HETATM    8  C6  UNL     1      22.719  -1.211  54.813  1.00  0.00     0.140 A 
HETATM    9  F1  UNL     1      23.088  -2.153  55.735  1.00  0.00    -0.204 F 
HETATM   10  C7  UNL     1      23.659  -0.401  54.183  1.00  0.00     0.101 A 
HETATM   11 CL1  UNL     1      25.355  -0.577  54.565  1.00  0.00    -0.079 Cl
HETATM   12  C8  UNL     1      23.246   0.537  53.261  1.00  0.00     0.084 A 
HETATM   13  N3  UNL     1      24.323   1.275  52.716  1.00  0.00    -0.352 N 
HETATM   14  C9  UNL     1      24.322   2.133  51.568  1.00  0.00     0.052 A 
HETATM   15  C10 UNL     1      25.634   2.320  51.184  1.00  0.00     0.067 A 
HETATM   16  C11 UNL     1      25.848   3.116  50.098  1.00  0.00     0.073 A 
HETATM   17  C13 UNL     1      24.822   3.712  49.405  1.00  0.00     0.074 A 
HETATM   18  C14 UNL     1      23.504   3.543  49.764  1.00  0.00     0.088 A 
HETATM   19  C19 UNL     1      23.266   2.727  50.879  1.00  0.00     0.070 A 
HETATM   20  H4  UNL     1      20.243   1.476  51.964  1.00  0.00     0.167 HD
HETATM   21  H7  UNL     1      25.238   1.181  53.215  1.00  0.00     0.166 HD
ENDROOT
BRANCH  18  22
HETATM   22  O2  UNL     1      22.317   4.016  49.252  1.00  0.00    -0.343 OA
BRANCH  22  23
HETATM   23  C15 UNL     1      22.227   4.382  47.919  1.00  0.00     0.154 C 
HETATM   24  C16 UNL     1      21.990   3.194  46.994  1.00  0.00     0.061 C 
HETATM   25  C17 UNL     1      21.366   3.900  45.810  1.00  0.00     0.170 C 
HETATM   26  O3  UNL     1      20.975   5.150  46.213  1.00  0.00    -0.389 OA
HETATM   27  C18 UNL     1      20.926   5.145  47.620  1.00  0.00     0.200 C 
ENDBRANCH  22  23
ENDBRANCH  18  22
BRANCH  16  28
HETATM   28  O1  UNL     1      27.108   3.425  49.558  1.00  0.00    -0.356 OA
HETATM   29  C12 UNL     1      27.280   4.643  48.856  1.00  0.00     0.210 C 
ENDBRANCH  16  28
TORSDOF 3
ENDMDL
