MODEL 1
REMARK VINA RESULT:      -7.5      0.000      0.000
REMARK  6 active torsions:
REMARK  status: ('A' for Active; 'I' for Inactive)
REMARK    1  A    between atoms: C2_2  and  N1_3 
REMARK    2  A    between atoms: N1_3  and  C3_4 
REMARK    3  A    between atoms: N1_3  and  C5_7 
REMARK    4  A    between atoms: C3_4  and  C4_5 
REMARK    5  A    between atoms: C8_10  and  C9_11 
REMARK       I    between atoms: C9_11  and  N2_13 
REMARK    6  A    between atoms: N2_13  and  C10_14 
ROOT
HETATM    1  C5  UNL     1      20.695  -0.551  53.041  1.00  0.00     0.030 A 
HETATM    2  C6  UNL     1      21.207  -1.063  54.203  1.00  0.00     0.030 A 
HETATM    3  C7  UNL     1      22.555  -1.090  54.473  1.00  0.00     0.019 A 
HETATM    4  C8  UNL     1      23.485  -0.599  53.582  1.00  0.00     0.032 A 
HETATM    5  C16 UNL     1      22.979  -0.074  52.393  1.00  0.00     0.019 A 
HETATM    6  C17 UNL     1      21.607  -0.057  52.141  1.00  0.00     0.030 A 
ENDROOT
BRANCH   4   7
HETATM    7  C9  UNL     1      24.927  -0.581  53.764  1.00  0.00     0.256 C 
HETATM    8  O1  UNL     1      25.484  -0.819  54.868  1.00  0.00    -0.267 OA
HETATM    9  N2  UNL     1      25.820  -0.291  52.697  1.00  0.00    -0.321 N 
HETATM   10  H12 UNL     1      25.477  -0.080  51.742  1.00  0.00     0.169 HD
BRANCH   9  11
HETATM   11  C10 UNL     1      27.207  -0.322  53.077  1.00  0.00     0.056 A 
HETATM   12  C11 UNL     1      27.834  -1.565  52.969  1.00  0.00     0.031 A 
HETATM   13  C12 UNL     1      29.160  -1.759  53.294  1.00  0.00     0.002 A 
HETATM   14  C13 UNL     1      29.882  -0.660  53.744  1.00  0.00     0.002 A 
HETATM   15  C14 UNL     1      29.271   0.575  53.856  1.00  0.00     0.026 A 
HETATM   16  C15 UNL     1      27.948   0.755  53.529  1.00  0.00     0.060 A 
HETATM   17 CL2  UNL     1      27.108   2.292  53.645  1.00  0.00    -0.082 Cl
ENDBRANCH   9  11
ENDBRANCH   4   7
BRANCH   1  18
HETATM   18  N1  UNL     1      19.300  -0.535  52.778  1.00  0.00    -0.380 N 
BRANCH  18  19
HETATM   19  C2  UNL     1      18.262  -0.996  53.646  1.00  0.00     0.118 C 
HETATM   20  C1  UNL     1      17.907  -2.432  53.472  1.00  0.00     0.026 C 
ENDBRANCH  18  19
BRANCH  18  21
HETATM   21  C3  UNL     1      18.655  -0.057  51.598  1.00  0.00     0.138 C 
BRANCH  21  22
HETATM   22  C4  UNL     1      18.353   1.431  51.612  1.00  0.00     0.134 C 
HETATM   23 CL1  UNL     1      16.606   1.730  51.526  1.00  0.00    -0.129 Cl
ENDBRANCH  21  22
ENDBRANCH  18  21
ENDBRANCH   1  18
TORSDOF 6
ENDMDL
MODEL 2
REMARK VINA RESULT:      -7.3      1.748      2.423
REMARK  6 active torsions:
REMARK  status: ('A' for Active; 'I' for Inactive)
REMARK    1  A    between atoms: C2_2  and  N1_3 
REMARK    2  A    between atoms: N1_3  and  C3_4 
REMARK    3  A    between atoms: N1_3  and  C5_7 
REMARK    4  A    between atoms: C3_4  and  C4_5 
REMARK    5  A    between atoms: C8_10  and  C9_11 
REMARK       I    between atoms: C9_11  and  N2_13 
REMARK    6  A    between atoms: N2_13  and  C10_14 
ROOT
HETATM    1  C5  UNL     1      20.283  -0.449  53.080  1.00  0.00     0.030 A 
HETATM    2  C6  UNL     1      20.836  -1.079  54.163  1.00  0.00     0.030 A 
HETATM    3  C7  UNL     1      22.188  -1.075  54.417  1.00  0.00     0.019 A 
HETATM    4  C8  UNL     1      23.081  -0.429  53.587  1.00  0.00     0.032 A 
HETATM    5  C16 UNL     1      22.533   0.217  52.479  1.00  0.00     0.019 A 
HETATM    6  C17 UNL     1      21.158   0.199  52.242  1.00  0.00     0.030 A 
ENDROOT
BRANCH   4   7
HETATM    7  C9  UNL     1      24.523  -0.364  53.758  1.00  0.00     0.256 C 
HETATM    8  O1  UNL     1      25.105  -0.709  54.820  1.00  0.00    -0.267 OA
HETATM    9  N2  UNL     1      25.385   0.097  52.728  1.00  0.00    -0.321 N 
HETATM   10  H12 UNL     1      25.019   0.408  51.809  1.00  0.00     0.169 HD
BRANCH   9  11
HETATM   11  C10 UNL     1      26.778   0.087  53.090  1.00  0.00     0.056 A 
HETATM   12  C11 UNL     1      27.280   1.292  53.585  1.00  0.00     0.031 A 
HETATM   13  C12 UNL     1      28.593   1.445  53.977  1.00  0.00     0.002 A 
HETATM   14  C13 UNL     1      29.432   0.342  53.865  1.00  0.00     0.002 A 
HETATM   15  C14 UNL     1      28.946  -0.856  53.375  1.00  0.00     0.026 A 
HETATM   16  C15 UNL     1      27.634  -0.994  52.989  1.00  0.00     0.060 A 
HETATM   17 CL2  UNL     1      26.948  -2.482  52.359  1.00  0.00    -0.082 Cl
ENDBRANCH   9  11
ENDBRANCH   4   7
BRANCH   1  18
HETATM   18  N1  UNL     1      18.886  -0.468  52.833  1.00  0.00    -0.380 N 
BRANCH  18  19
HETATM   19  C2  UNL     1      18.183   0.285  51.841  1.00  0.00     0.118 C 
HETATM   20  C1  UNL     1      17.090  -0.464  51.161  1.00  0.00     0.026 C 
ENDBRANCH  18  19
BRANCH  18  21
HETATM   21  C3  UNL     1      17.903  -1.241  53.522  1.00  0.00     0.138 C 
BRANCH  21  22
HETATM   22  C4  UNL     1      18.240  -2.717  53.639  1.00  0.00     0.134 C 
HETATM   23 CL1  UNL     1      16.787  -3.720  53.465  1.00  0.00    -0.129 Cl
ENDBRANCH  21  22
ENDBRANCH  18  21
ENDBRANCH   1  18
TORSDOF 6
ENDMDL
MODEL 3
REMARK VINA RESULT:      -6.9      2.011      8.267
REMARK  6 active torsions:
REMARK  status: ('A' for Active; 'I' for Inactive)
REMARK    1  A    between atoms: C2_2  and  N1_3 
REMARK    2  A    between atoms: N1_3  and  C3_4 
REMARK    3  A    between atoms: N1_3  and  C5_7 
REMARK    4  A    between atoms: C3_4  and  C4_5 
REMARK    5  A    between atoms: C8_10  and  C9_11 
REMARK       I    between atoms: C9_11  and  N2_13 
REMARK    6  A    between atoms: N2_13  and  C10_14 
ROOT
HETATM    1  C5  UNL     1      25.487  -0.108  53.639  1.00  0.00     0.030 A 
HETATM    2  C6  UNL     1      24.538  -0.796  54.348  1.00  0.00     0.030 A 
HETATM    3  C7  UNL     1      23.189  -0.612  54.157  1.00  0.00     0.019 A 
HETATM    4  C8  UNL     1      22.701   0.286  53.231  1.00  0.00     0.032 A 
HETATM    5  C16 UNL     1      23.655   0.994  52.500  1.00  0.00     0.019 A 
HETATM    6  C17 UNL     1      25.020   0.791  52.711  1.00  0.00     0.030 A 
ENDROOT
BRANCH   4   7
HETATM    7  C9  UNL     1      21.301   0.560  52.951  1.00  0.00     0.256 C 
HETATM    8  O1  UNL     1      20.425   0.648  53.851  1.00  0.00    -0.267 OA
HETATM    9  N2  UNL     1      20.819   0.752  51.629  1.00  0.00    -0.321 N 
HETATM   10  H12 UNL     1      21.449   0.703  50.806  1.00  0.00     0.169 HD
BRANCH   9  11
HETATM   11  C10 UNL     1      19.406   1.012  51.559  1.00  0.00     0.056 A 
HETATM   12  C11 UNL     1      18.591  -0.116  51.440  1.00  0.00     0.031 A 
HETATM   13  C12 UNL     1      17.217  -0.035  51.363  1.00  0.00     0.002 A 
HETATM   14  C13 UNL     1      16.641   1.229  51.407  1.00  0.00     0.002 A 
HETATM   15  C14 UNL     1      17.438   2.353  51.525  1.00  0.00     0.026 A 
HETATM   16  C15 UNL     1      18.807   2.258  51.601  1.00  0.00     0.060 A 
HETATM   17 CL2  UNL     1      19.880   3.639  51.751  1.00  0.00    -0.082 Cl
ENDBRANCH   9  11
ENDBRANCH   4   7
BRANCH   1  18
HETATM   18  N1  UNL     1      26.875  -0.309  53.852  1.00  0.00    -0.380 N 
BRANCH  18  19
HETATM   19  C2  UNL     1      27.749  -1.133  53.077  1.00  0.00     0.118 C 
HETATM   20  C1  UNL     1      27.072  -2.262  52.380  1.00  0.00     0.026 C 
ENDBRANCH  18  19
BRANCH  18  21
HETATM   21  C3  UNL     1      27.678   0.271  54.881  1.00  0.00     0.138 C 
BRANCH  21  22
HETATM   22  C4  UNL     1      28.965   0.906  54.385  1.00  0.00     0.134 C 
HETATM   23 CL1  UNL     1      28.649   2.469  53.608  1.00  0.00    -0.129 Cl
ENDBRANCH  21  22
ENDBRANCH  18  21
ENDBRANCH   1  18
TORSDOF 6
ENDMDL
MODEL 4
REMARK VINA RESULT:      -6.8      6.921      9.689
REMARK  6 active torsions:
REMARK  status: ('A' for Active; 'I' for Inactive)
REMARK    1  A    between atoms: C2_2  and  N1_3 
REMARK    2  A    between atoms: N1_3  and  C3_4 
REMARK    3  A    between atoms: N1_3  and  C5_7 
REMARK    4  A    between atoms: C3_4  and  C4_5 
REMARK    5  A    between atoms: C8_10  and  C9_11 
REMARK       I    between atoms: C9_11  and  N2_13 
REMARK    6  A    between atoms: N2_13  and  C10_14 
ROOT
HETATM    1  C5  UNL     1      27.376   7.009  47.978  1.00  0.00     0.030 A 
HETATM    2  C6  UNL     1      26.151   7.022  48.592  1.00  0.00     0.030 A 
HETATM    3  C7  UNL     1      25.672   5.957  49.318  1.00  0.00     0.019 A 
HETATM    4  C8  UNL     1      26.401   4.797  49.476  1.00  0.00     0.032 A 
HETATM    5  C16 UNL     1      27.651   4.769  48.857  1.00  0.00     0.019 A 
HETATM    6  C17 UNL     1      28.117   5.861  48.125  1.00  0.00     0.030 A 
ENDROOT
BRANCH   4   7
HETATM    7  C9  UNL     1      25.991   3.616  50.217  1.00  0.00     0.256 C 
HETATM    8  O1  UNL     1      25.054   2.862  49.845  1.00  0.00    -0.267 OA
HETATM    9  N2  UNL     1      26.626   3.224  51.426  1.00  0.00    -0.321 N 
HETATM   10  H12 UNL     1      27.411   3.768  51.830  1.00  0.00     0.169 HD
BRANCH   9  11
HETATM   11  C10 UNL     1      26.077   2.029  52.008  1.00  0.00     0.056 A 
HETATM   12  C11 UNL     1      26.765   0.848  51.722  1.00  0.00     0.031 A 
HETATM   13  C12 UNL     1      26.367  -0.380  52.206  1.00  0.00     0.002 A 
HETATM   14  C13 UNL     1      25.233  -0.421  53.008  1.00  0.00     0.002 A 
HETATM   15  C14 UNL     1      24.544   0.742  53.298  1.00  0.00     0.026 A 
HETATM   16  C15 UNL     1      24.952   1.960  52.809  1.00  0.00     0.060 A 
HETATM   17 CL2  UNL     1      24.128   3.475  53.135  1.00  0.00    -0.082 Cl
ENDBRANCH   9  11
ENDBRANCH   4   7
BRANCH   1  18
HETATM   18  N1  UNL     1      27.852   8.116  47.229  1.00  0.00    -0.380 N 
BRANCH  18  19
HETATM   19  C2  UNL     1      27.126   8.859  46.247  1.00  0.00     0.118 C 
HETATM   20  C1  UNL     1      27.491   8.537  44.839  1.00  0.00     0.026 C 
ENDBRANCH  18  19
BRANCH  18  21
HETATM   21  C3  UNL     1      29.148   8.710  47.306  1.00  0.00     0.138 C 
BRANCH  21  22
HETATM   22  C4  UNL     1      29.546   9.162  48.700  1.00  0.00     0.134 C 
HETATM   23 CL1  UNL     1      30.908   8.208  49.317  1.00  0.00    -0.129 Cl
ENDBRANCH  21  22
ENDBRANCH  18  21
ENDBRANCH   1  18
TORSDOF 6
ENDMDL
MODEL 5
REMARK VINA RESULT:      -6.6      6.981      9.559
REMARK  6 active torsions:
REMARK  status: ('A' for Active; 'I' for Inactive)
REMARK    1  A    between atoms: C2_2  and  N1_3 
REMARK    2  A    between atoms: N1_3  and  C3_4 
REMARK    3  A    between atoms: N1_3  and  C5_7 
REMARK    4  A    between atoms: C3_4  and  C4_5 
REMARK    5  A    between atoms: C8_10  and  C9_11 
REMARK       I    between atoms: C9_11  and  N2_13 
REMARK    6  A    between atoms: N2_13  and  C10_14 
ROOT
HETATM    1  C5  UNL     1      27.110   7.061  48.217  1.00  0.00     0.030 A 
HETATM    2  C6  UNL     1      27.900   5.945  48.135  1.00  0.00     0.030 A 
HETATM    3  C7  UNL     1      27.604   4.774  48.793  1.00  0.00     0.019 A 
HETATM    4  C8  UNL     1      26.482   4.649  49.585  1.00  0.00     0.032 A 
HETATM    5  C16 UNL     1      25.668   5.777  49.678  1.00  0.00     0.019 A 
HETATM    6  C17 UNL     1      25.988   6.955  49.002  1.00  0.00     0.030 A 
ENDROOT
BRANCH   4   7
HETATM    7  C9  UNL     1      26.077   3.465  50.324  1.00  0.00     0.256 C 
HETATM    8  O1  UNL     1      25.121   2.727  49.970  1.00  0.00    -0.267 OA
HETATM    9  N2  UNL     1      26.741   3.051  51.511  1.00  0.00    -0.321 N 
HETATM   10  H12 UNL     1      27.544   3.581  51.899  1.00  0.00     0.169 HD
BRANCH   9  11
HETATM   11  C10 UNL     1      26.193   1.857  52.095  1.00  0.00     0.056 A 
HETATM   12  C11 UNL     1      26.863   0.672  51.785  1.00  0.00     0.031 A 
HETATM   13  C12 UNL     1      26.463  -0.556  52.267  1.00  0.00     0.002 A 
HETATM   14  C13 UNL     1      25.346  -0.593  53.093  1.00  0.00     0.002 A 
HETATM   15  C14 UNL     1      24.674   0.574  53.406  1.00  0.00     0.026 A 
HETATM   16  C15 UNL     1      25.083   1.792  52.919  1.00  0.00     0.060 A 
HETATM   17 CL2  UNL     1      24.281   3.312  53.274  1.00  0.00    -0.082 Cl
ENDBRANCH   9  11
ENDBRANCH   4   7
BRANCH   1  18
HETATM   18  N1  UNL     1      27.434   8.261  47.534  1.00  0.00    -0.380 N 
BRANCH  18  19
HETATM   19  C2  UNL     1      27.874   9.488  48.122  1.00  0.00     0.118 C 
HETATM   20  C1  UNL     1      28.818   9.319  49.263  1.00  0.00     0.026 C 
ENDBRANCH  18  19
BRANCH  18  21
HETATM   21  C3  UNL     1      27.387   8.486  46.125  1.00  0.00     0.138 C 
BRANCH  21  22
HETATM   22  C4  UNL     1      28.543   9.311  45.585  1.00  0.00     0.134 C 
HETATM   23 CL1  UNL     1      29.886   8.271  45.075  1.00  0.00    -0.129 Cl
ENDBRANCH  21  22
ENDBRANCH  18  21
ENDBRANCH   1  18
TORSDOF 6
ENDMDL
MODEL 6
REMARK VINA RESULT:      -6.6      5.793      8.588
REMARK  6 active torsions:
REMARK  status: ('A' for Active; 'I' for Inactive)
REMARK    1  A    between atoms: C2_2  and  N1_3 
REMARK    2  A    between atoms: N1_3  and  C3_4 
REMARK    3  A    between atoms: N1_3  and  C5_7 
REMARK    4  A    between atoms: C3_4  and  C4_5 
REMARK    5  A    between atoms: C8_10  and  C9_11 
REMARK       I    between atoms: C9_11  and  N2_13 
REMARK    6  A    between atoms: N2_13  and  C10_14 
ROOT
HETATM    1  C5  UNL     1      26.106   1.249  52.748  1.00  0.00     0.030 A 
HETATM    2  C6  UNL     1      25.018   2.005  53.096  1.00  0.00     0.030 A 
HETATM    3  C7  UNL     1      24.607   3.097  52.369  1.00  0.00     0.019 A 
HETATM    4  C8  UNL     1      25.270   3.504  51.231  1.00  0.00     0.032 A 
HETATM    5  C16 UNL     1      26.381   2.744  50.863  1.00  0.00     0.019 A 
HETATM    6  C17 UNL     1      26.779   1.640  51.616  1.00  0.00     0.030 A 
ENDROOT
BRANCH   4   7
HETATM    7  C9  UNL     1      24.925   4.640  50.392  1.00  0.00     0.256 C 
HETATM    8  O1  UNL     1      24.213   4.540  49.359  1.00  0.00    -0.267 OA
HETATM    9  N2  UNL     1      25.370   5.957  50.684  1.00  0.00    -0.321 N 
HETATM   10  H12 UNL     1      25.963   6.162  51.510  1.00  0.00     0.169 HD
BRANCH   9  11
HETATM   11  C10 UNL     1      24.924   6.943  49.736  1.00  0.00     0.056 A 
HETATM   12  C11 UNL     1      23.735   7.599  50.063  1.00  0.00     0.031 A 
HETATM   13  C12 UNL     1      23.176   8.570  49.260  1.00  0.00     0.002 A 
HETATM   14  C13 UNL     1      23.839   8.893  48.082  1.00  0.00     0.002 A 
HETATM   15  C14 UNL     1      25.016   8.250  47.747  1.00  0.00     0.026 A 
HETATM   16  C15 UNL     1      25.562   7.283  48.557  1.00  0.00     0.060 A 
HETATM   17 CL2  UNL     1      27.051   6.426  48.197  1.00  0.00    -0.082 Cl
ENDBRANCH   9  11
ENDBRANCH   4   7
BRANCH   1  18
HETATM   18  N1  UNL     1      26.517   0.128  53.513  1.00  0.00    -0.380 N 
BRANCH  18  19
HETATM   19  C2  UNL     1      26.091  -1.226  53.343  1.00  0.00     0.118 C 
HETATM   20  C1  UNL     1      26.861  -1.990  52.322  1.00  0.00     0.026 C 
ENDBRANCH  18  19
BRANCH  18  21
HETATM   21  C3  UNL     1      27.438   0.125  54.604  1.00  0.00     0.138 C 
BRANCH  21  22
HETATM   22  C4  UNL     1      28.838   0.587  54.240  1.00  0.00     0.134 C 
HETATM   23 CL1  UNL     1      29.877  -0.789  53.825  1.00  0.00    -0.129 Cl
ENDBRANCH  21  22
ENDBRANCH  18  21
ENDBRANCH   1  18
TORSDOF 6
ENDMDL
MODEL 7
REMARK VINA RESULT:      -6.6      7.416      8.755
REMARK  6 active torsions:
REMARK  status: ('A' for Active; 'I' for Inactive)
REMARK    1  A    between atoms: C2_2  and  N1_3 
REMARK    2  A    between atoms: N1_3  and  C3_4 
REMARK    3  A    between atoms: N1_3  and  C5_7 
REMARK    4  A    between atoms: C3_4  and  C4_5 
REMARK    5  A    between atoms: C8_10  and  C9_11 
REMARK       I    between atoms: C9_11  and  N2_13 
REMARK    6  A    between atoms: N2_13  and  C10_14 
ROOT
HETATM    1  C5  UNL     1      24.781   4.376  49.430  1.00  0.00     0.030 A 
HETATM    2  C6  UNL     1      24.827   5.669  48.982  1.00  0.00     0.030 A 
HETATM    3  C7  UNL     1      25.997   6.283  48.599  1.00  0.00     0.019 A 
HETATM    4  C8  UNL     1      27.209   5.627  48.644  1.00  0.00     0.032 A 
HETATM    5  C16 UNL     1      27.178   4.309  49.098  1.00  0.00     0.019 A 
HETATM    6  C17 UNL     1      25.979   3.707  49.481  1.00  0.00     0.030 A 
ENDROOT
BRANCH   4   7
HETATM    7  C9  UNL     1      28.501   6.178  48.267  1.00  0.00     0.256 C 
HETATM    8  O1  UNL     1      28.679   6.861  47.225  1.00  0.00    -0.267 OA
HETATM    9  N2  UNL     1      29.664   5.984  49.059  1.00  0.00    -0.321 N 
HETATM   10  H12 UNL     1      29.639   5.438  49.940  1.00  0.00     0.169 HD
BRANCH   9  11
HETATM   11  C10 UNL     1      30.843   6.607  48.519  1.00  0.00     0.056 A 
HETATM   12  C11 UNL     1      31.040   7.941  48.882  1.00  0.00     0.031 A 
HETATM   13  C12 UNL     1      32.121   8.678  48.449  1.00  0.00     0.002 A 
HETATM   14  C13 UNL     1      33.041   8.047  47.618  1.00  0.00     0.002 A 
HETATM   15  C14 UNL     1      32.856   6.727  47.252  1.00  0.00     0.026 A 
HETATM   16  C15 UNL     1      31.773   6.004  47.691  1.00  0.00     0.060 A 
HETATM   17 CL2  UNL     1      31.475   4.327  47.268  1.00  0.00    -0.082 Cl
ENDBRANCH   9  11
ENDBRANCH   4   7
BRANCH   1  18
HETATM   18  N1  UNL     1      23.564   3.761  49.824  1.00  0.00    -0.380 N 
BRANCH  18  19
HETATM   19  C2  UNL     1      22.945   2.625  49.217  1.00  0.00     0.118 C 
HETATM   20  C1  UNL     1      22.431   2.866  47.840  1.00  0.00     0.026 C 
ENDBRANCH  18  19
BRANCH  18  21
HETATM   21  C3  UNL     1      22.716   4.152  50.903  1.00  0.00     0.138 C 
BRANCH  21  22
HETATM   22  C4  UNL     1      22.691   3.173  52.064  1.00  0.00     0.134 C 
HETATM   23 CL1  UNL     1      24.170   3.296  53.036  1.00  0.00    -0.129 Cl
ENDBRANCH  21  22
ENDBRANCH  18  21
ENDBRANCH   1  18
TORSDOF 6
ENDMDL
MODEL 8
REMARK VINA RESULT:      -6.6      6.889     10.232
REMARK  6 active torsions:
REMARK  status: ('A' for Active; 'I' for Inactive)
REMARK    1  A    between atoms: C2_2  and  N1_3 
REMARK    2  A    between atoms: N1_3  and  C3_4 
REMARK    3  A    between atoms: N1_3  and  C5_7 
REMARK    4  A    between atoms: C3_4  and  C4_5 
REMARK    5  A    between atoms: C8_10  and  C9_11 
REMARK       I    between atoms: C9_11  and  N2_13 
REMARK    6  A    between atoms: N2_13  and  C10_14 
ROOT
HETATM    1  C5  UNL     1      27.905   6.844  48.139  1.00  0.00     0.030 A 
HETATM    2  C6  UNL     1      28.336   5.550  48.254  1.00  0.00     0.030 A 
HETATM    3  C7  UNL     1      27.579   4.562  48.839  1.00  0.00     0.019 A 
HETATM    4  C8  UNL     1      26.324   4.816  49.352  1.00  0.00     0.032 A 
HETATM    5  C16 UNL     1      25.870   6.131  49.242  1.00  0.00     0.019 A 
HETATM    6  C17 UNL     1      26.657   7.116  48.645  1.00  0.00     0.030 A 
ENDROOT
BRANCH   4   7
HETATM    7  C9  UNL     1      25.443   3.853  49.991  1.00  0.00     0.256 C 
HETATM    8  O1  UNL     1      24.654   3.111  49.349  1.00  0.00    -0.267 OA
HETATM    9  N2  UNL     1      25.412   3.676  51.400  1.00  0.00    -0.321 N 
HETATM   10  H12 UNL     1      26.018   4.231  52.033  1.00  0.00     0.169 HD
BRANCH   9  11
HETATM   11  C10 UNL     1      24.475   2.676  51.839  1.00  0.00     0.056 A 
HETATM   12  C11 UNL     1      23.165   3.120  52.029  1.00  0.00     0.031 A 
HETATM   13  C12 UNL     1      22.151   2.285  52.445  1.00  0.00     0.002 A 
HETATM   14  C13 UNL     1      22.467   0.952  52.680  1.00  0.00     0.002 A 
HETATM   15  C14 UNL     1      23.761   0.502  52.496  1.00  0.00     0.026 A 
HETATM   16  C15 UNL     1      24.763   1.345  52.080  1.00  0.00     0.060 A 
HETATM   17 CL2  UNL     1      26.426   0.844  51.826  1.00  0.00    -0.082 Cl
ENDBRANCH   9  11
ENDBRANCH   4   7
BRANCH   1  18
HETATM   18  N1  UNL     1      28.702   7.851  47.535  1.00  0.00    -0.380 N 
BRANCH  18  19
HETATM   19  C2  UNL     1      29.202   7.857  46.196  1.00  0.00     0.118 C 
HETATM   20  C1  UNL     1      28.254   8.409  45.188  1.00  0.00     0.026 C 
ENDBRANCH  18  19
BRANCH  18  21
HETATM   21  C3  UNL     1      29.166   9.057  48.142  1.00  0.00     0.138 C 
BRANCH  21  22
HETATM   22  C4  UNL     1      30.671   9.122  48.332  1.00  0.00     0.134 C 
HETATM   23 CL1  UNL     1      31.248   7.778  49.336  1.00  0.00    -0.129 Cl
ENDBRANCH  21  22
ENDBRANCH  18  21
ENDBRANCH   1  18
TORSDOF 6
ENDMDL
MODEL 9
REMARK VINA RESULT:      -6.5      7.335      8.529
REMARK  6 active torsions:
REMARK  status: ('A' for Active; 'I' for Inactive)
REMARK    1  A    between atoms: C2_2  and  N1_3 
REMARK    2  A    between atoms: N1_3  and  C3_4 
REMARK    3  A    between atoms: N1_3  and  C5_7 
REMARK    4  A    between atoms: C3_4  and  C4_5 
REMARK    5  A    between atoms: C8_10  and  C9_11 
REMARK       I    between atoms: C9_11  and  N2_13 
REMARK    6  A    between atoms: N2_13  and  C10_14 
ROOT
HETATM    1  C5  UNL     1      24.581   4.153  49.594  1.00  0.00     0.030 A 
HETATM    2  C6  UNL     1      25.680   3.341  49.671  1.00  0.00     0.030 A 
HETATM    3  C7  UNL     1      26.944   3.765  49.334  1.00  0.00     0.019 A 
HETATM    4  C8  UNL     1      27.186   5.049  48.892  1.00  0.00     0.032 A 
HETATM    5  C16 UNL     1      26.075   5.889  48.808  1.00  0.00     0.019 A 
HETATM    6  C17 UNL     1      24.802   5.436  49.156  1.00  0.00     0.030 A 
ENDROOT
BRANCH   4   7
HETATM    7  C9  UNL     1      28.475   5.599  48.508  1.00  0.00     0.256 C 
HETATM    8  O1  UNL     1      29.380   4.914  47.964  1.00  0.00    -0.267 OA
HETATM    9  N2  UNL     1      28.807   6.964  48.719  1.00  0.00    -0.321 N 
HETATM   10  H12 UNL     1      28.140   7.626  49.159  1.00  0.00     0.169 HD
BRANCH   9  11
HETATM   11  C10 UNL     1      30.128   7.316  48.271  1.00  0.00     0.056 A 
HETATM   12  C11 UNL     1      31.146   7.154  49.213  1.00  0.00     0.031 A 
HETATM   13  C12 UNL     1      32.465   7.446  48.939  1.00  0.00     0.002 A 
HETATM   14  C13 UNL     1      32.771   7.918  47.669  1.00  0.00     0.002 A 
HETATM   15  C14 UNL     1      31.771   8.083  46.728  1.00  0.00     0.026 A 
HETATM   16  C15 UNL     1      30.460   7.788  47.015  1.00  0.00     0.060 A 
HETATM   17 CL2  UNL     1      29.140   7.972  45.873  1.00  0.00    -0.082 Cl
ENDBRANCH   9  11
ENDBRANCH   4   7
BRANCH   1  18
HETATM   18  N1  UNL     1      23.284   3.695  49.943  1.00  0.00    -0.380 N 
BRANCH  18  19
HETATM   19  C2  UNL     1      22.538   2.663  49.294  1.00  0.00     0.118 C 
HETATM   20  C1  UNL     1      22.285   1.462  50.139  1.00  0.00     0.026 C 
ENDBRANCH  18  19
BRANCH  18  21
HETATM   21  C3  UNL     1      22.464   4.172  51.011  1.00  0.00     0.138 C 
BRANCH  21  22
HETATM   22  C4  UNL     1      23.220   4.468  52.294  1.00  0.00     0.134 C 
HETATM   23 CL1  UNL     1      24.028   3.013  52.910  1.00  0.00    -0.129 Cl
ENDBRANCH  21  22
ENDBRANCH  18  21
ENDBRANCH   1  18
TORSDOF 6
ENDMDL
