MODEL 1
REMARK VINA RESULT:      -7.7      0.000      0.000
REMARK  5 active torsions:
REMARK  status: ('A' for Active; 'I' for Inactive)
REMARK    1  A    between atoms: N1_2  and  C3_4 
REMARK    2  A    between atoms: C8_9  and  C9_10 
REMARK    3  A    between atoms: C9_10  and  S1_12 
REMARK    4  A    between atoms: S1_12  and  N2_14 
REMARK    5  A    between atoms: N2_14  and  C10_15 
ROOT
HETATM    1  C10 UNL     1      28.935  -0.111  53.861  1.00  0.00     0.226 C 
HETATM    2  C11 UNL     1      29.007   1.335  54.085  1.00  0.00     0.074 C 
HETATM    3  N3  UNL     1      29.065   2.476  54.280  1.00  0.00    -0.196 NA
ENDROOT
BRANCH   1   4
HETATM    4  N2  UNL     1      27.755  -0.619  54.575  1.00  0.00    -0.223 NA
HETATM    5  H10 UNL     1      27.980  -1.543  55.004  1.00  0.00     0.138 HD
BRANCH   4   6
HETATM    6  S1  UNL     1      26.505  -0.741  53.339  1.00  0.00     0.168 S 
HETATM    7  O2  UNL     1      27.062  -0.604  51.947  1.00  0.00    -0.233 OA
BRANCH   6   8
HETATM    8  C9  UNL     1      25.235   0.435  53.702  1.00  0.00     0.264 C 
HETATM    9  O1  UNL     1      25.861   0.770  54.729  1.00  0.00    -0.276 OA
BRANCH   8  10
HETATM   10  C8  UNL     1      24.057   0.650  52.884  1.00  0.00     0.036 A 
HETATM   11  C7  UNL     1      22.854   0.098  53.205  1.00  0.00    -0.009 A 
HETATM   12  C6  UNL     1      22.682  -0.703  54.307  1.00  0.00     0.013 A 
HETATM   13  C15 UNL     1      21.756   0.311  52.425  1.00  0.00     0.002 A 
HETATM   14  C5  UNL     1      21.451  -1.244  54.577  1.00  0.00     0.003 A 
HETATM   15  C4  UNL     1      20.391  -0.981  53.744  1.00  0.00     0.030 A 
HETATM   16  C3  UNL     1      20.488  -0.186  52.619  1.00  0.00     0.040 A 
HETATM   17  C14 UNL     1      21.936   1.104  51.312  1.00  0.00     0.014 A 
HETATM   18  C13 UNL     1      23.150   1.663  50.986  1.00  0.00     0.002 A 
HETATM   19  C12 UNL     1      24.261   1.444  51.781  1.00  0.00     0.017 A 
BRANCH  16  20
HETATM   20  N1  UNL     1      19.303   0.051  51.875  1.00  0.00    -0.389 N 
HETATM   21  C1  UNL     1      18.087  -0.595  52.411  1.00  0.00     0.149 C 
HETATM   22  C2  UNL     1      18.974   0.837  50.702  1.00  0.00     0.149 C 
ENDBRANCH  16  20
ENDBRANCH   8  10
ENDBRANCH   6   8
ENDBRANCH   4   6
ENDBRANCH   1   4
TORSDOF 5
ENDMDL
MODEL 2
REMARK VINA RESULT:      -7.6      1.875      3.633
REMARK  5 active torsions:
REMARK  status: ('A' for Active; 'I' for Inactive)
REMARK    1  A    between atoms: N1_2  and  C3_4 
REMARK    2  A    between atoms: C8_9  and  C9_10 
REMARK    3  A    between atoms: C9_10  and  S1_12 
REMARK    4  A    between atoms: S1_12  and  N2_14 
REMARK    5  A    between atoms: N2_14  and  C10_15 
ROOT
HETATM    1  C10 UNL     1      28.876  -0.156  53.939  1.00  0.00     0.226 C 
HETATM    2  C11 UNL     1      28.986   1.296  54.103  1.00  0.00     0.074 C 
HETATM    3  N3  UNL     1      29.074   2.442  54.251  1.00  0.00    -0.196 NA
ENDROOT
BRANCH   1   4
HETATM    4  N2  UNL     1      27.675  -0.601  54.660  1.00  0.00    -0.223 NA
HETATM    5  H10 UNL     1      27.877  -1.498  55.152  1.00  0.00     0.138 HD
BRANCH   4   6
HETATM    6  S1  UNL     1      26.447  -0.783  53.409  1.00  0.00     0.168 S 
HETATM    7  O2  UNL     1      27.038  -0.793  52.025  1.00  0.00    -0.233 OA
BRANCH   6   8
HETATM    8  C9  UNL     1      25.219   0.469  53.636  1.00  0.00     0.264 C 
HETATM    9  O1  UNL     1      25.750   0.771  54.724  1.00  0.00    -0.276 OA
BRANCH   8  10
HETATM   10  C8  UNL     1      24.150   0.749  52.697  1.00  0.00     0.036 A 
HETATM   11  C7  UNL     1      24.314   1.628  51.669  1.00  0.00    -0.009 A 
HETATM   12  C6  UNL     1      25.488   2.311  51.464  1.00  0.00     0.013 A 
HETATM   13  C15 UNL     1      23.299   1.880  50.794  1.00  0.00     0.002 A 
HETATM   14  C5  UNL     1      25.595   3.194  50.420  1.00  0.00     0.003 A 
HETATM   15  C4  UNL     1      24.527   3.393  49.580  1.00  0.00     0.030 A 
HETATM   16  C3  UNL     1      23.317   2.743  49.723  1.00  0.00     0.040 A 
HETATM   17  C14 UNL     1      22.118   1.204  51.011  1.00  0.00     0.014 A 
HETATM   18  C13 UNL     1      21.949   0.315  52.048  1.00  0.00     0.002 A 
HETATM   19  C12 UNL     1      22.984   0.063  52.933  1.00  0.00     0.017 A 
BRANCH  16  20
HETATM   20  N1  UNL     1      22.314   2.996  48.752  1.00  0.00    -0.389 N 
HETATM   21  C1  UNL     1      22.395   2.162  47.536  1.00  0.00     0.149 C 
HETATM   22  C2  UNL     1      21.162   3.875  48.678  1.00  0.00     0.149 C 
ENDBRANCH  16  20
ENDBRANCH   8  10
ENDBRANCH   6   8
ENDBRANCH   4   6
ENDBRANCH   1   4
TORSDOF 5
ENDMDL
MODEL 3
REMARK VINA RESULT:      -7.2      1.549      3.229
REMARK  5 active torsions:
REMARK  status: ('A' for Active; 'I' for Inactive)
REMARK    1  A    between atoms: N1_2  and  C3_4 
REMARK    2  A    between atoms: C8_9  and  C9_10 
REMARK    3  A    between atoms: C9_10  and  S1_12 
REMARK    4  A    between atoms: S1_12  and  N2_14 
REMARK    5  A    between atoms: N2_14  and  C10_15 
ROOT
HETATM    1  C10 UNL     1      29.162   0.543  54.218  1.00  0.00     0.226 C 
HETATM    2  C11 UNL     1      29.246  -0.861  53.806  1.00  0.00     0.074 C 
HETATM    3  N3  UNL     1      29.321  -1.966  53.465  1.00  0.00    -0.196 NA
ENDROOT
BRANCH   1   4
HETATM    4  N2  UNL     1      28.522   1.295  53.129  1.00  0.00    -0.223 NA
HETATM    5  H10 UNL     1      28.995   2.218  53.019  1.00  0.00     0.138 HD
BRANCH   4   6
HETATM    6  S1  UNL     1      26.841   1.458  53.630  1.00  0.00     0.168 S 
HETATM    7  O2  UNL     1      26.619   0.999  55.046  1.00  0.00    -0.233 OA
BRANCH   6   8
HETATM    8  C9  UNL     1      25.817   0.620  52.455  1.00  0.00     0.264 C 
HETATM    9  O1  UNL     1      26.845   0.222  51.869  1.00  0.00    -0.276 OA
BRANCH   8  10
HETATM   10  C8  UNL     1      24.368   0.622  52.482  1.00  0.00     0.036 A 
HETATM   11  C7  UNL     1      23.639   1.425  51.658  1.00  0.00    -0.009 A 
HETATM   12  C6  UNL     1      24.224   2.290  50.765  1.00  0.00     0.013 A 
HETATM   13  C15 UNL     1      22.276   1.413  51.695  1.00  0.00     0.002 A 
HETATM   14  C5  UNL     1      23.442   3.086  49.967  1.00  0.00     0.003 A 
HETATM   15  C4  UNL     1      22.074   3.015  50.062  1.00  0.00     0.030 A 
HETATM   16  C3  UNL     1      21.415   2.171  50.935  1.00  0.00     0.040 A 
HETATM   17  C14 UNL     1      21.692   0.555  52.601  1.00  0.00     0.014 A 
HETATM   18  C13 UNL     1      22.426  -0.258  53.435  1.00  0.00     0.002 A 
HETATM   19  C12 UNL     1      23.809  -0.242  53.392  1.00  0.00     0.017 A 
BRANCH  16  20
HETATM   20  N1  UNL     1      19.997   2.155  50.892  1.00  0.00    -0.389 N 
HETATM   21  C1  UNL     1      19.413   1.464  49.723  1.00  0.00     0.149 C 
HETATM   22  C2  UNL     1      18.943   2.628  51.768  1.00  0.00     0.149 C 
ENDBRANCH  16  20
ENDBRANCH   8  10
ENDBRANCH   6   8
ENDBRANCH   4   6
ENDBRANCH   1   4
TORSDOF 5
ENDMDL
MODEL 4
REMARK VINA RESULT:      -7.2      3.823      6.773
REMARK  5 active torsions:
REMARK  status: ('A' for Active; 'I' for Inactive)
REMARK    1  A    between atoms: N1_2  and  C3_4 
REMARK    2  A    between atoms: C8_9  and  C9_10 
REMARK    3  A    between atoms: C9_10  and  S1_12 
REMARK    4  A    between atoms: S1_12  and  N2_14 
REMARK    5  A    between atoms: N2_14  and  C10_15 
ROOT
HETATM    1  C10 UNL     1      23.020   5.545  51.509  1.00  0.00     0.226 C 
HETATM    2  C11 UNL     1      22.064   6.536  51.008  1.00  0.00     0.074 C 
HETATM    3  N3  UNL     1      21.306   7.326  50.629  1.00  0.00    -0.196 NA
ENDROOT
BRANCH   1   4
HETATM    4  N2  UNL     1      22.335   4.730  52.522  1.00  0.00    -0.223 NA
HETATM    5  H10 UNL     1      23.030   4.121  53.006  1.00  0.00     0.138 HD
BRANCH   4   6
HETATM    6  S1  UNL     1      21.145   3.801  51.614  1.00  0.00     0.168 S 
HETATM    7  O2  UNL     1      19.873   3.586  52.390  1.00  0.00    -0.233 OA
BRANCH   6   8
HETATM    8  C9  UNL     1      21.897   2.294  51.074  1.00  0.00     0.264 C 
HETATM    9  O1  UNL     1      21.355   2.443  49.959  1.00  0.00    -0.276 OA
BRANCH   8  10
HETATM   10  C8  UNL     1      22.757   1.466  51.895  1.00  0.00     0.036 A 
HETATM   11  C7  UNL     1      24.115   1.559  51.828  1.00  0.00    -0.009 A 
HETATM   12  C6  UNL     1      24.753   2.426  50.976  1.00  0.00     0.013 A 
HETATM   13  C15 UNL     1      24.910   0.773  52.609  1.00  0.00     0.002 A 
HETATM   14  C5  UNL     1      26.123   2.471  50.940  1.00  0.00     0.003 A 
HETATM   15  C4  UNL     1      26.855   1.647  51.759  1.00  0.00     0.030 A 
HETATM   16  C3  UNL     1      26.284   0.751  52.642  1.00  0.00     0.040 A 
HETATM   17  C14 UNL     1      24.267  -0.106  53.453  1.00  0.00     0.014 A 
HETATM   18  C13 UNL     1      22.896  -0.202  53.523  1.00  0.00     0.002 A 
HETATM   19  C12 UNL     1      22.094   0.599  52.729  1.00  0.00     0.017 A 
BRANCH  16  20
HETATM   20  N1  UNL     1      27.155  -0.000  53.472  1.00  0.00    -0.389 N 
HETATM   21  C1  UNL     1      27.587  -1.299  52.916  1.00  0.00     0.149 C 
HETATM   22  C2  UNL     1      27.782   0.223  54.761  1.00  0.00     0.149 C 
ENDBRANCH  16  20
ENDBRANCH   8  10
ENDBRANCH   6   8
ENDBRANCH   4   6
ENDBRANCH   1   4
TORSDOF 5
ENDMDL
MODEL 5
REMARK VINA RESULT:      -7.2      3.507      6.664
REMARK  5 active torsions:
REMARK  status: ('A' for Active; 'I' for Inactive)
REMARK    1  A    between atoms: N1_2  and  C3_4 
REMARK    2  A    between atoms: C8_9  and  C9_10 
REMARK    3  A    between atoms: C9_10  and  S1_12 
REMARK    4  A    between atoms: S1_12  and  N2_14 
REMARK    5  A    between atoms: N2_14  and  C10_15 
ROOT
HETATM    1  C10 UNL     1      20.956   1.098  49.324  1.00  0.00     0.226 C 
HETATM    2  C11 UNL     1      21.978   1.869  48.610  1.00  0.00     0.074 C 
HETATM    3  N3  UNL     1      22.789   2.488  48.060  1.00  0.00    -0.196 NA
ENDROOT
BRANCH   1   4
HETATM    4  N2  UNL     1      19.924   2.037  49.784  1.00  0.00    -0.223 NA
HETATM    5  H10 UNL     1      20.341   2.987  49.892  1.00  0.00     0.138 HD
BRANCH   4   6
HETATM    6  S1  UNL     1      19.370   1.370  51.319  1.00  0.00     0.168 S 
HETATM    7  O2  UNL     1      17.945   1.748  51.625  1.00  0.00    -0.233 OA
BRANCH   6   8
HETATM    8  C9  UNL     1      20.507   1.847  52.586  1.00  0.00     0.264 C 
HETATM    9  O1  UNL     1      19.906   2.936  52.694  1.00  0.00    -0.276 OA
BRANCH   8  10
HETATM   10  C8  UNL     1      21.602   1.022  53.059  1.00  0.00     0.036 A 
HETATM   11  C7  UNL     1      22.896   1.295  52.730  1.00  0.00    -0.009 A 
HETATM   12  C6  UNL     1      23.245   2.353  51.926  1.00  0.00     0.013 A 
HETATM   13  C15 UNL     1      23.914   0.510  53.184  1.00  0.00     0.002 A 
HETATM   14  C5  UNL     1      24.562   2.575  51.617  1.00  0.00     0.003 A 
HETATM   15  C4  UNL     1      25.531   1.740  52.114  1.00  0.00     0.030 A 
HETATM   16  C3  UNL     1      25.257   0.658  52.929  1.00  0.00     0.040 A 
HETATM   17  C14 UNL     1      23.560  -0.558  53.980  1.00  0.00     0.014 A 
HETATM   18  C13 UNL     1      22.254  -0.836  54.313  1.00  0.00     0.002 A 
HETATM   19  C12 UNL     1      21.224  -0.035  53.850  1.00  0.00     0.017 A 
BRANCH  16  20
HETATM   20  N1  UNL     1      26.357  -0.091  53.421  1.00  0.00    -0.389 N 
HETATM   21  C1  UNL     1      26.772  -1.227  52.573  1.00  0.00     0.149 C 
HETATM   22  C2  UNL     1      27.232   0.017  54.573  1.00  0.00     0.149 C 
ENDBRANCH  16  20
ENDBRANCH   8  10
ENDBRANCH   6   8
ENDBRANCH   4   6
ENDBRANCH   1   4
TORSDOF 5
ENDMDL
MODEL 6
REMARK VINA RESULT:      -7.0      2.762      7.193
REMARK  5 active torsions:
REMARK  status: ('A' for Active; 'I' for Inactive)
REMARK    1  A    between atoms: N1_2  and  C3_4 
REMARK    2  A    between atoms: C8_9  and  C9_10 
REMARK    3  A    between atoms: C9_10  and  S1_12 
REMARK    4  A    between atoms: S1_12  and  N2_14 
REMARK    5  A    between atoms: N2_14  and  C10_15 
ROOT
HETATM    1  C10 UNL     1      18.536   1.687  50.428  1.00  0.00     0.226 C 
HETATM    2  C11 UNL     1      18.122   2.837  51.236  1.00  0.00     0.074 C 
HETATM    3  N3  UNL     1      17.812   3.753  51.875  1.00  0.00    -0.196 NA
ENDROOT
BRANCH   1   4
HETATM    4  N2  UNL     1      19.573   0.962  51.175  1.00  0.00    -0.223 NA
HETATM    5  H10 UNL     1      19.388   1.047  52.198  1.00  0.00     0.138 HD
BRANCH   4   6
HETATM    6  S1  UNL     1      21.084   1.736  50.701  1.00  0.00     0.168 S 
HETATM    7  O2  UNL     1      21.841   0.933  49.676  1.00  0.00    -0.233 OA
BRANCH   6   8
HETATM    8  C9  UNL     1      22.027   2.076  52.158  1.00  0.00     0.264 C 
HETATM    9  O1  UNL     1      21.434   3.169  52.267  1.00  0.00    -0.276 OA
BRANCH   8  10
HETATM   10  C8  UNL     1      23.024   1.184  52.716  1.00  0.00     0.036 A 
HETATM   11  C7  UNL     1      24.353   1.354  52.470  1.00  0.00    -0.009 A 
HETATM   12  C6  UNL     1      24.831   2.365  51.671  1.00  0.00     0.013 A 
HETATM   13  C15 UNL     1      25.279   0.507  53.004  1.00  0.00     0.002 A 
HETATM   14  C5  UNL     1      26.178   2.483  51.446  1.00  0.00     0.003 A 
HETATM   15  C4  UNL     1      27.049   1.591  52.021  1.00  0.00     0.030 A 
HETATM   16  C3  UNL     1      26.643   0.551  52.835  1.00  0.00     0.040 A 
HETATM   17  C14 UNL     1      24.795  -0.514  53.793  1.00  0.00     0.014 A 
HETATM   18  C13 UNL     1      23.454  -0.688  54.044  1.00  0.00     0.002 A 
HETATM   19  C12 UNL     1      22.519   0.176  53.500  1.00  0.00     0.017 A 
BRANCH  16  20
HETATM   20  N1  UNL     1      27.650  -0.265  53.413  1.00  0.00    -0.389 N 
HETATM   21  C1  UNL     1      28.221   0.244  54.676  1.00  0.00     0.149 C 
HETATM   22  C2  UNL     1      28.244  -1.545  53.077  1.00  0.00     0.149 C 
ENDBRANCH  16  20
ENDBRANCH   8  10
ENDBRANCH   6   8
ENDBRANCH   4   6
ENDBRANCH   1   4
TORSDOF 5
ENDMDL
MODEL 7
REMARK VINA RESULT:      -7.0      2.717      6.836
REMARK  5 active torsions:
REMARK  status: ('A' for Active; 'I' for Inactive)
REMARK    1  A    between atoms: N1_2  and  C3_4 
REMARK    2  A    between atoms: C8_9  and  C9_10 
REMARK    3  A    between atoms: C9_10  and  S1_12 
REMARK    4  A    between atoms: S1_12  and  N2_14 
REMARK    5  A    between atoms: N2_14  and  C10_15 
ROOT
HETATM    1  C10 UNL     1      20.411   0.859  53.024  1.00  0.00     0.226 C 
HETATM    2  C11 UNL     1      19.338  -0.139  52.971  1.00  0.00     0.074 C 
HETATM    3  N3  UNL     1      18.494  -0.931  52.912  1.00  0.00    -0.196 NA
ENDROOT
BRANCH   1   4
HETATM    4  N2  UNL     1      20.164   1.841  51.959  1.00  0.00    -0.223 NA
HETATM    5  H10 UNL     1      19.990   1.342  51.059  1.00  0.00     0.138 HD
BRANCH   4   6
HETATM    6  S1  UNL     1      21.629   2.820  51.910  1.00  0.00     0.168 S 
HETATM    7  O2  UNL     1      21.370   4.212  51.400  1.00  0.00    -0.233 OA
BRANCH   6   8
HETATM    8  C9  UNL     1      22.858   1.952  50.980  1.00  0.00     0.264 C 
HETATM    9  O1  UNL     1      21.968   1.566  50.194  1.00  0.00    -0.276 OA
BRANCH   8  10
HETATM   10  C8  UNL     1      24.270   1.925  51.309  1.00  0.00     0.036 A 
HETATM   11  C7  UNL     1      24.765   1.090  52.265  1.00  0.00    -0.009 A 
HETATM   12  C6  UNL     1      23.964   0.235  52.983  1.00  0.00     0.013 A 
HETATM   13  C15 UNL     1      26.095   1.076  52.562  1.00  0.00     0.002 A 
HETATM   14  C5  UNL     1      24.513  -0.577  53.942  1.00  0.00     0.003 A 
HETATM   15  C4  UNL     1      25.865  -0.534  54.183  1.00  0.00     0.030 A 
HETATM   16  C3  UNL     1      26.731   0.299  53.501  1.00  0.00     0.040 A 
HETATM   17  C14 UNL     1      26.894   1.945  51.850  1.00  0.00     0.014 A 
HETATM   18  C13 UNL     1      26.396   2.790  50.884  1.00  0.00     0.002 A 
HETATM   19  C12 UNL     1      25.044   2.798  50.586  1.00  0.00     0.017 A 
BRANCH  16  20
HETATM   20  N1  UNL     1      28.113   0.203  53.807  1.00  0.00    -0.389 N 
HETATM   21  C1  UNL     1      28.778  -1.026  53.327  1.00  0.00     0.149 C 
HETATM   22  C2  UNL     1      29.077   1.068  54.461  1.00  0.00     0.149 C 
ENDBRANCH  16  20
ENDBRANCH   8  10
ENDBRANCH   6   8
ENDBRANCH   4   6
ENDBRANCH   1   4
TORSDOF 5
ENDMDL
MODEL 8
REMARK VINA RESULT:      -6.9      3.272      7.579
REMARK  5 active torsions:
REMARK  status: ('A' for Active; 'I' for Inactive)
REMARK    1  A    between atoms: N1_2  and  C3_4 
REMARK    2  A    between atoms: C8_9  and  C9_10 
REMARK    3  A    between atoms: C9_10  and  S1_12 
REMARK    4  A    between atoms: S1_12  and  N2_14 
REMARK    5  A    between atoms: N2_14  and  C10_15 
ROOT
HETATM    1  C10 UNL     1      17.068   1.636  50.910  1.00  0.00     0.226 C 
HETATM    2  C11 UNL     1      16.721   1.923  49.515  1.00  0.00     0.074 C 
HETATM    3  N3  UNL     1      16.462   2.142  48.407  1.00  0.00    -0.196 NA
ENDROOT
BRANCH   1   4
HETATM    4  N2  UNL     1      18.382   2.237  51.180  1.00  0.00    -0.223 NA
HETATM    5  H10 UNL     1      18.741   2.692  50.312  1.00  0.00     0.138 HD
BRANCH   4   6
HETATM    6  S1  UNL     1      19.390   0.887  51.694  1.00  0.00     0.168 S 
HETATM    7  O2  UNL     1      18.577  -0.269  52.213  1.00  0.00    -0.233 OA
BRANCH   6   8
HETATM    8  C9  UNL     1      20.581   1.482  52.859  1.00  0.00     0.264 C 
HETATM    9  O1  UNL     1      19.952   2.558  52.927  1.00  0.00    -0.276 OA
BRANCH   8  10
HETATM   10  C8  UNL     1      21.726   0.723  53.323  1.00  0.00     0.036 A 
HETATM   11  C7  UNL     1      22.975   0.938  52.825  1.00  0.00    -0.009 A 
HETATM   12  C6  UNL     1      23.229   1.870  51.848  1.00  0.00     0.013 A 
HETATM   13  C15 UNL     1      24.041   0.216  53.273  1.00  0.00     0.002 A 
HETATM   14  C5  UNL     1      24.504   2.037  51.373  1.00  0.00     0.003 A 
HETATM   15  C4  UNL     1      25.527   1.272  51.877  1.00  0.00     0.030 A 
HETATM   16  C3  UNL     1      25.349   0.316  52.858  1.00  0.00     0.040 A 
HETATM   17  C14 UNL     1      23.781  -0.728  54.243  1.00  0.00     0.014 A 
HETATM   18  C13 UNL     1      22.520  -0.947  54.748  1.00  0.00     0.002 A 
HETATM   19  C12 UNL     1      21.442  -0.211  54.290  1.00  0.00     0.017 A 
BRANCH  16  20
HETATM   20  N1  UNL     1      26.500  -0.365  53.331  1.00  0.00    -0.389 N 
HETATM   21  C1  UNL     1      27.104   0.199  54.556  1.00  0.00     0.149 C 
HETATM   22  C2  UNL     1      27.229  -1.549  52.916  1.00  0.00     0.149 C 
ENDBRANCH  16  20
ENDBRANCH   8  10
ENDBRANCH   6   8
ENDBRANCH   4   6
ENDBRANCH   1   4
TORSDOF 5
ENDMDL
MODEL 9
REMARK VINA RESULT:      -6.9      4.165      7.216
REMARK  5 active torsions:
REMARK  status: ('A' for Active; 'I' for Inactive)
REMARK    1  A    between atoms: N1_2  and  C3_4 
REMARK    2  A    between atoms: C8_9  and  C9_10 
REMARK    3  A    between atoms: C9_10  and  S1_12 
REMARK    4  A    between atoms: S1_12  and  N2_14 
REMARK    5  A    between atoms: N2_14  and  C10_15 
ROOT
HETATM    1  C10 UNL     1      22.099   3.725  47.225  1.00  0.00     0.226 C 
HETATM    2  C11 UNL     1      21.856   3.657  45.782  1.00  0.00     0.074 C 
HETATM    3  N3  UNL     1      21.651   3.591  44.643  1.00  0.00    -0.196 NA
ENDROOT
BRANCH   1   4
HETATM    4  N2  UNL     1      22.530   2.393  47.672  1.00  0.00    -0.223 NA
HETATM    5  H10 UNL     1      22.605   1.757  46.848  1.00  0.00     0.138 HD
BRANCH   4   6
HETATM    6  S1  UNL     1      21.280   1.878  48.803  1.00  0.00     0.168 S 
HETATM    7  O2  UNL     1      19.916   2.386  48.418  1.00  0.00    -0.233 OA
BRANCH   6   8
HETATM    8  C9  UNL     1      21.766   2.350  50.436  1.00  0.00     0.264 C 
HETATM    9  O1  UNL     1      21.197   3.449  50.271  1.00  0.00    -0.276 OA
BRANCH   8  10
HETATM   10  C8  UNL     1      22.533   1.513  51.339  1.00  0.00     0.036 A 
HETATM   11  C7  UNL     1      23.886   1.633  51.448  1.00  0.00    -0.009 A 
HETATM   12  C6  UNL     1      24.608   2.537  50.707  1.00  0.00     0.013 A 
HETATM   13  C15 UNL     1      24.592   0.838  52.302  1.00  0.00     0.002 A 
HETATM   14  C5  UNL     1      25.970   2.607  50.848  1.00  0.00     0.003 A 
HETATM   15  C4  UNL     1      26.610   1.773  51.731  1.00  0.00     0.030 A 
HETATM   16  C3  UNL     1      25.952   0.840  52.509  1.00  0.00     0.040 A 
HETATM   17  C14 UNL     1      23.867  -0.077  53.033  1.00  0.00     0.014 A 
HETATM   18  C13 UNL     1      22.500  -0.200  52.925  1.00  0.00     0.002 A 
HETATM   19  C12 UNL     1      21.788   0.610  52.057  1.00  0.00     0.017 A 
BRANCH  16  20
HETATM   20  N1  UNL     1      26.726   0.080  53.423  1.00  0.00    -0.389 N 
HETATM   21  C1  UNL     1      27.255  -1.193  52.890  1.00  0.00     0.149 C 
HETATM   22  C2  UNL     1      27.179   0.276  54.787  1.00  0.00     0.149 C 
ENDBRANCH  16  20
ENDBRANCH   8  10
ENDBRANCH   6   8
ENDBRANCH   4   6
ENDBRANCH   1   4
TORSDOF 5
ENDMDL
