MODEL 1
REMARK VINA RESULT:      -6.2      0.000      0.000
REMARK  7 active torsions:
REMARK  status: ('A' for Active; 'I' for Inactive)
REMARK    1  A    between atoms: C2_2  and  C3_3 
REMARK    2  A    between atoms: C2_2  and  P1_6 
REMARK    3  A    between atoms: C3_3  and  O1_4 
REMARK    4  A    between atoms: P1_6  and  C5_7 
REMARK    5  A    between atoms: C5_7  and  C6_8 
REMARK    6  A    between atoms: C6_8  and  C7_9 
REMARK    7  A    between atoms: C11_15  and  O2_16 
ROOT
HETATM    1  C7  UNL     1      24.932   2.252  51.992  1.00  0.00     0.038 A 
HETATM    2  C8  UNL     1      26.090   2.799  51.482  1.00  0.00     0.141 A 
HETATM    3  N1  UNL     1      27.134   1.989  51.701  1.00  0.00    -0.224 NA
HETATM    4  C9  UNL     1      26.928   0.802  52.355  1.00  0.00     0.235 A 
HETATM    5  N2  UNL     1      25.741   0.318  52.829  1.00  0.00    -0.242 NA
HETATM    6  C10 UNL     1      24.633   1.047  52.660  1.00  0.00     0.089 A 
HETATM    7  C11 UNL     1      23.123   0.904  52.798  1.00  0.00     0.237 C 
HETATM    8  C12 UNL     1      22.723   1.211  51.416  1.00  0.00    -0.138 C 
HETATM    9  C13 UNL     1      22.411   1.474  50.257  1.00  0.00     0.024 C 
HETATM   10  C14 UNL     1      22.064   1.797  48.880  1.00  0.00     0.087 C 
HETATM   11  C15 UNL     1      23.085   2.653  48.721  1.00  0.00    -0.018 C 
HETATM   12  C16 UNL     1      24.238   3.351  49.178  1.00  0.00     0.013 C 
HETATM   13  C17 UNL     1      25.284   4.026  49.491  1.00  0.00     0.089 C 
HETATM   14  N3  UNL     1      25.951   4.009  50.764  1.00  0.00    -0.350 N 
HETATM   15  H18 UNL     1      26.419   4.605  51.442  1.00  0.00     0.166 HD
ENDROOT
BRANCH   1  16
HETATM   16  C6  UNL     1      23.856   3.280  52.043  1.00  0.00     0.018 C 
BRANCH  16  17
HETATM   17  C5  UNL     1      23.072   4.310  52.007  1.00  0.00     0.009 C 
BRANCH  17  18
HETATM   18  P1  UNL     1      22.038   5.702  51.521  1.00  0.00    -0.075 P 
HETATM   19  H8  UNL     1      20.769   5.240  50.954  1.00  0.00     0.066 HD
BRANCH  18  20
HETATM   20  C2  UNL     1      22.893   6.810  50.327  1.00  0.00    -0.038 C 
HETATM   21  C1  UNL     1      22.334   6.625  49.140  1.00  0.00     0.022 C 
BRANCH  20  22
HETATM   22  C3  UNL     1      23.978   7.685  50.820  1.00  0.00     0.205 C 
BRANCH  22  23
HETATM   23  O1  UNL     1      25.234   7.137  50.834  1.00  0.00    -0.391 OA
HETATM   24  C4  UNL     1      26.096   7.694  49.915  1.00  0.00     0.201 C 
ENDBRANCH  22  23
ENDBRANCH  20  22
ENDBRANCH  18  20
ENDBRANCH  17  18
ENDBRANCH  16  17
ENDBRANCH   1  16
BRANCH   7  25
HETATM   25  O2  UNL     1      22.812  -0.366  53.152  1.00  0.00    -0.378 OA
HETATM   26  H13 UNL     1      23.064  -0.538  54.094  1.00  0.00     0.211 HD
ENDBRANCH   7  25
TORSDOF 7
ENDMDL
MODEL 2
REMARK VINA RESULT:      -6.2      2.872      4.302
REMARK  7 active torsions:
REMARK  status: ('A' for Active; 'I' for Inactive)
REMARK    1  A    between atoms: C2_2  and  C3_3 
REMARK    2  A    between atoms: C2_2  and  P1_6 
REMARK    3  A    between atoms: C3_3  and  O1_4 
REMARK    4  A    between atoms: P1_6  and  C5_7 
REMARK    5  A    between atoms: C5_7  and  C6_8 
REMARK    6  A    between atoms: C6_8  and  C7_9 
REMARK    7  A    between atoms: C11_15  and  O2_16 
ROOT
HETATM    1  C7  UNL     1      22.003   0.723  52.606  1.00  0.00     0.038 A 
HETATM    2  C8  UNL     1      20.648   0.700  52.859  1.00  0.00     0.141 A 
HETATM    3  N1  UNL     1      20.380  -0.045  53.939  1.00  0.00    -0.224 NA
HETATM    4  C9  UNL     1      21.416  -0.643  54.607  1.00  0.00     0.235 A 
HETATM    5  N2  UNL     1      22.746  -0.569  54.302  1.00  0.00    -0.242 NA
HETATM    6  C10 UNL     1      23.125   0.153  53.242  1.00  0.00     0.089 A 
HETATM    7  C11 UNL     1      24.398   0.704  52.615  1.00  0.00     0.237 C 
HETATM    8  C12 UNL     1      24.074   2.139  52.627  1.00  0.00    -0.138 C 
HETATM    9  C13 UNL     1      23.781   3.332  52.643  1.00  0.00     0.024 C 
HETATM   10  C14 UNL     1      23.409   4.740  52.664  1.00  0.00     0.087 C 
HETATM   11  C15 UNL     1      22.101   4.498  52.484  1.00  0.00    -0.018 C 
HETATM   12  C16 UNL     1      20.986   3.635  52.296  1.00  0.00     0.013 C 
HETATM   13  C17 UNL     1      19.917   2.946  52.123  1.00  0.00     0.089 C 
HETATM   14  N3  UNL     1      19.840   1.513  52.032  1.00  0.00    -0.350 N 
HETATM   15  H18 UNL     1      19.375   0.757  51.536  1.00  0.00     0.166 HD
ENDROOT
BRANCH   1  16
HETATM   16  C6  UNL     1      22.263   1.264  51.243  1.00  0.00     0.018 C 
BRANCH  16  17
HETATM   17  C5  UNL     1      22.338   1.591  49.992  1.00  0.00     0.009 C 
BRANCH  17  18
HETATM   18  P1  UNL     1      22.572   2.434  48.418  1.00  0.00    -0.075 P 
HETATM   19  H8  UNL     1      23.529   1.715  47.575  1.00  0.00     0.066 HD
BRANCH  18  20
HETATM   20  C2  UNL     1      23.120   4.176  48.646  1.00  0.00    -0.038 C 
HETATM   21  C1  UNL     1      22.100   4.960  48.329  1.00  0.00     0.022 C 
BRANCH  20  22
HETATM   22  C3  UNL     1      24.495   4.432  49.125  1.00  0.00     0.205 C 
BRANCH  22  23
HETATM   23  O1  UNL     1      25.263   3.323  49.373  1.00  0.00    -0.391 OA
HETATM   24  C4  UNL     1      26.460   3.600  49.996  1.00  0.00     0.201 C 
ENDBRANCH  22  23
ENDBRANCH  20  22
ENDBRANCH  18  20
ENDBRANCH  17  18
ENDBRANCH  16  17
ENDBRANCH   1  16
BRANCH   7  25
HETATM   25  O2  UNL     1      25.462   0.412  53.401  1.00  0.00    -0.378 OA
HETATM   26  H13 UNL     1      25.333   0.777  54.313  1.00  0.00     0.211 HD
ENDBRANCH   7  25
TORSDOF 7
ENDMDL
MODEL 3
REMARK VINA RESULT:      -6.1      1.838      2.636
REMARK  7 active torsions:
REMARK  status: ('A' for Active; 'I' for Inactive)
REMARK    1  A    between atoms: C2_2  and  C3_3 
REMARK    2  A    between atoms: C2_2  and  P1_6 
REMARK    3  A    between atoms: C3_3  and  O1_4 
REMARK    4  A    between atoms: P1_6  and  C5_7 
REMARK    5  A    between atoms: C5_7  and  C6_8 
REMARK    6  A    between atoms: C6_8  and  C7_9 
REMARK    7  A    between atoms: C11_15  and  O2_16 
ROOT
HETATM    1  C7  UNL     1      24.952   2.029  51.965  1.00  0.00     0.038 A 
HETATM    2  C8  UNL     1      26.144   2.544  51.505  1.00  0.00     0.141 A 
HETATM    3  N1  UNL     1      27.141   1.668  51.687  1.00  0.00    -0.224 NA
HETATM    4  C9  UNL     1      26.863   0.457  52.263  1.00  0.00     0.235 A 
HETATM    5  N2  UNL     1      25.645   0.007  52.690  1.00  0.00    -0.242 NA
HETATM    6  C10 UNL     1      24.580   0.803  52.553  1.00  0.00     0.089 A 
HETATM    7  C11 UNL     1      23.062   0.731  52.661  1.00  0.00     0.237 C 
HETATM    8  C12 UNL     1      22.701   1.143  51.296  1.00  0.00    -0.138 C 
HETATM    9  C13 UNL     1      22.422   1.494  50.152  1.00  0.00     0.024 C 
HETATM   10  C14 UNL     1      22.115   1.919  48.793  1.00  0.00     0.087 C 
HETATM   11  C15 UNL     1      23.182   2.728  48.701  1.00  0.00    -0.018 C 
HETATM   12  C16 UNL     1      24.361   3.334  49.215  1.00  0.00     0.013 C 
HETATM   13  C17 UNL     1      25.436   3.932  49.584  1.00  0.00     0.089 C 
HETATM   14  N3  UNL     1      26.081   3.802  50.863  1.00  0.00    -0.350 N 
HETATM   15  H18 UNL     1      26.567   4.330  51.582  1.00  0.00     0.166 HD
ENDROOT
BRANCH   1  16
HETATM   16  C6  UNL     1      23.930   3.108  52.066  1.00  0.00     0.018 C 
BRANCH  16  17
HETATM   17  C5  UNL     1      23.211   4.183  52.144  1.00  0.00     0.009 C 
BRANCH  17  18
HETATM   18  P1  UNL     1      22.091   5.560  51.845  1.00  0.00    -0.075 P 
HETATM   19  H8  UNL     1      21.370   5.926  53.066  1.00  0.00     0.066 HD
BRANCH  18  20
HETATM   20  C2  UNL     1      20.896   5.194  50.495  1.00  0.00    -0.038 C 
HETATM   21  C1  UNL     1      21.294   5.856  49.419  1.00  0.00     0.022 C 
BRANCH  20  22
HETATM   22  C3  UNL     1      19.768   4.279  50.772  1.00  0.00     0.205 C 
BRANCH  22  23
HETATM   23  O1  UNL     1      19.722   3.746  52.035  1.00  0.00    -0.391 OA
HETATM   24  C4  UNL     1      19.374   2.413  52.066  1.00  0.00     0.201 C 
ENDBRANCH  22  23
ENDBRANCH  20  22
ENDBRANCH  18  20
ENDBRANCH  17  18
ENDBRANCH  16  17
ENDBRANCH   1  16
BRANCH   7  25
HETATM   25  O2  UNL     1      22.679  -0.540  52.931  1.00  0.00    -0.378 OA
HETATM   26  H13 UNL     1      23.460  -1.094  53.185  1.00  0.00     0.211 HD
ENDBRANCH   7  25
TORSDOF 7
ENDMDL
MODEL 4
REMARK VINA RESULT:      -6.0      3.074      4.933
REMARK  7 active torsions:
REMARK  status: ('A' for Active; 'I' for Inactive)
REMARK    1  A    between atoms: C2_2  and  C3_3 
REMARK    2  A    between atoms: C2_2  and  P1_6 
REMARK    3  A    between atoms: C3_3  and  O1_4 
REMARK    4  A    between atoms: P1_6  and  C5_7 
REMARK    5  A    between atoms: C5_7  and  C6_8 
REMARK    6  A    between atoms: C6_8  and  C7_9 
REMARK    7  A    between atoms: C11_15  and  O2_16 
ROOT
HETATM    1  C7  UNL     1      25.107   2.898  50.923  1.00  0.00     0.038 A 
HETATM    2  C8  UNL     1      24.451   2.291  51.971  1.00  0.00     0.141 A 
HETATM    3  N1  UNL     1      25.325   1.814  52.867  1.00  0.00    -0.224 NA
HETATM    4  C9  UNL     1      26.666   1.985  52.641  1.00  0.00     0.235 A 
HETATM    5  N2  UNL     1      27.249   2.610  51.574  1.00  0.00    -0.242 NA
HETATM    6  C10 UNL     1      26.466   3.125  50.622  1.00  0.00     0.089 A 
HETATM    7  C11 UNL     1      26.570   4.041  49.409  1.00  0.00     0.237 C 
HETATM    8  C12 UNL     1      25.621   5.089  49.813  1.00  0.00    -0.138 C 
HETATM    9  C13 UNL     1      24.820   5.951  50.168  1.00  0.00     0.024 C 
HETATM   10  C14 UNL     1      23.861   6.956  50.606  1.00  0.00     0.087 C 
HETATM   11  C15 UNL     1      23.093   6.076  51.266  1.00  0.00    -0.018 C 
HETATM   12  C16 UNL     1      22.764   4.768  51.715  1.00  0.00     0.013 C 
HETATM   13  C17 UNL     1      22.381   3.630  52.171  1.00  0.00     0.089 C 
HETATM   14  N3  UNL     1      23.039   2.369  51.961  1.00  0.00    -0.350 N 
HETATM   15  H18 UNL     1      22.865   1.385  51.778  1.00  0.00     0.166 HD
ENDROOT
BRANCH   1  16
HETATM   16  C6  UNL     1      24.167   3.127  49.791  1.00  0.00     0.018 C 
BRANCH  16  17
HETATM   17  C5  UNL     1      23.345   3.109  48.790  1.00  0.00     0.009 C 
BRANCH  17  18
HETATM   18  P1  UNL     1      22.053   2.719  47.598  1.00  0.00    -0.075 P 
HETATM   19  H8  UNL     1      22.428   1.567  46.775  1.00  0.00     0.066 HD
BRANCH  18  20
HETATM   20  C2  UNL     1      21.654   4.156  46.521  1.00  0.00    -0.038 C 
HETATM   21  C1  UNL     1      22.360   5.189  46.957  1.00  0.00     0.022 C 
BRANCH  20  22
HETATM   22  C3  UNL     1      20.699   3.969  45.408  1.00  0.00     0.205 C 
BRANCH  22  23
HETATM   23  O1  UNL     1      21.245   3.629  44.198  1.00  0.00    -0.391 OA
HETATM   24  C4  UNL     1      20.475   3.998  43.116  1.00  0.00     0.201 C 
ENDBRANCH  22  23
ENDBRANCH  20  22
ENDBRANCH  18  20
ENDBRANCH  17  18
ENDBRANCH  16  17
ENDBRANCH   1  16
BRANCH   7  25
HETATM   25  O2  UNL     1      27.835   4.511  49.295  1.00  0.00    -0.378 OA
HETATM   26  H13 UNL     1      27.837   5.420  48.901  1.00  0.00     0.211 HD
ENDBRANCH   7  25
TORSDOF 7
ENDMDL
MODEL 5
REMARK VINA RESULT:      -5.9      2.162      5.001
REMARK  7 active torsions:
REMARK  status: ('A' for Active; 'I' for Inactive)
REMARK    1  A    between atoms: C2_2  and  C3_3 
REMARK    2  A    between atoms: C2_2  and  P1_6 
REMARK    3  A    between atoms: C3_3  and  O1_4 
REMARK    4  A    between atoms: P1_6  and  C5_7 
REMARK    5  A    between atoms: C5_7  and  C6_8 
REMARK    6  A    between atoms: C6_8  and  C7_9 
REMARK    7  A    between atoms: C11_15  and  O2_16 
ROOT
HETATM    1  C7  UNL     1      25.113   3.043  50.869  1.00  0.00     0.038 A 
HETATM    2  C8  UNL     1      24.445   2.466  51.926  1.00  0.00     0.141 A 
HETATM    3  N1  UNL     1      25.309   1.936  52.802  1.00  0.00    -0.224 NA
HETATM    4  C9  UNL     1      26.652   2.034  52.550  1.00  0.00     0.235 A 
HETATM    5  N2  UNL     1      27.248   2.633  51.476  1.00  0.00    -0.242 NA
HETATM    6  C10 UNL     1      26.476   3.197  50.541  1.00  0.00     0.089 A 
HETATM    7  C11 UNL     1      26.607   4.113  49.331  1.00  0.00     0.237 C 
HETATM    8  C12 UNL     1      25.725   5.209  49.759  1.00  0.00    -0.138 C 
HETATM    9  C13 UNL     1      24.980   6.111  50.135  1.00  0.00     0.024 C 
HETATM   10  C14 UNL     1      24.087   7.165  50.597  1.00  0.00     0.087 C 
HETATM   11  C15 UNL     1      23.284   6.325  51.267  1.00  0.00    -0.018 C 
HETATM   12  C16 UNL     1      22.892   5.033  51.717  1.00  0.00     0.013 C 
HETATM   13  C17 UNL     1      22.456   3.915  52.174  1.00  0.00     0.089 C 
HETATM   14  N3  UNL     1      23.040   2.622  51.944  1.00  0.00    -0.350 N 
HETATM   15  H18 UNL     1      22.808   1.650  51.760  1.00  0.00     0.166 HD
ENDROOT
BRANCH   1  16
HETATM   16  C6  UNL     1      24.165   3.330  49.756  1.00  0.00     0.018 C 
BRANCH  16  17
HETATM   17  C5  UNL     1      23.305   3.365  48.789  1.00  0.00     0.009 C 
BRANCH  17  18
HETATM   18  P1  UNL     1      22.025   3.000  47.576  1.00  0.00    -0.075 P 
HETATM   19  H8  UNL     1      21.692   4.189  46.789  1.00  0.00     0.066 HD
BRANCH  18  20
HETATM   20  C2  UNL     1      20.506   2.322  48.362  1.00  0.00    -0.038 C 
HETATM   21  C1  UNL     1      19.472   2.994  47.878  1.00  0.00     0.022 C 
BRANCH  20  22
HETATM   22  C3  UNL     1      20.640   1.209  49.327  1.00  0.00     0.205 C 
BRANCH  22  23
HETATM   23  O1  UNL     1      20.400   1.519  50.640  1.00  0.00    -0.391 OA
HETATM   24  C4  UNL     1      20.183   0.420  51.443  1.00  0.00     0.201 C 
ENDBRANCH  22  23
ENDBRANCH  20  22
ENDBRANCH  18  20
ENDBRANCH  17  18
ENDBRANCH  16  17
ENDBRANCH   1  16
BRANCH   7  25
HETATM   25  O2  UNL     1      27.894   4.513  49.195  1.00  0.00    -0.378 OA
HETATM   26  H13 UNL     1      27.962   5.499  49.259  1.00  0.00     0.211 HD
ENDBRANCH   7  25
TORSDOF 7
ENDMDL
MODEL 6
REMARK VINA RESULT:      -5.9      3.080      4.589
REMARK  7 active torsions:
REMARK  status: ('A' for Active; 'I' for Inactive)
REMARK    1  A    between atoms: C2_2  and  C3_3 
REMARK    2  A    between atoms: C2_2  and  P1_6 
REMARK    3  A    between atoms: C3_3  and  O1_4 
REMARK    4  A    between atoms: P1_6  and  C5_7 
REMARK    5  A    between atoms: C5_7  and  C6_8 
REMARK    6  A    between atoms: C6_8  and  C7_9 
REMARK    7  A    between atoms: C11_15  and  O2_16 
ROOT
HETATM    1  C7  UNL     1      21.931   0.773  52.586  1.00  0.00     0.038 A 
HETATM    2  C8  UNL     1      20.585   0.792  52.881  1.00  0.00     0.141 A 
HETATM    3  N1  UNL     1      20.327   0.061  53.974  1.00  0.00    -0.224 NA
HETATM    4  C9  UNL     1      21.365  -0.564  54.613  1.00  0.00     0.235 A 
HETATM    5  N2  UNL     1      22.687  -0.532  54.266  1.00  0.00    -0.242 NA
HETATM    6  C10 UNL     1      23.054   0.173  53.191  1.00  0.00     0.089 A 
HETATM    7  C11 UNL     1      24.324   0.682  52.521  1.00  0.00     0.237 C 
HETATM    8  C12 UNL     1      24.043   2.126  52.534  1.00  0.00    -0.138 C 
HETATM    9  C13 UNL     1      23.786   3.328  52.552  1.00  0.00     0.024 C 
HETATM   10  C14 UNL     1      23.457   4.746  52.577  1.00  0.00     0.087 C 
HETATM   11  C15 UNL     1      22.138   4.542  52.439  1.00  0.00    -0.018 C 
HETATM   12  C16 UNL     1      20.992   3.713  52.290  1.00  0.00     0.013 C 
HETATM   13  C17 UNL     1      19.898   3.054  52.155  1.00  0.00     0.089 C 
HETATM   14  N3  UNL     1      19.775   1.624  52.075  1.00  0.00    -0.350 N 
HETATM   15  H18 UNL     1      19.273   0.880  51.598  1.00  0.00     0.166 HD
ENDROOT
BRANCH   1  16
HETATM   16  C6  UNL     1      22.164   1.298  51.213  1.00  0.00     0.018 C 
BRANCH  16  17
HETATM   17  C5  UNL     1      22.251   1.583  49.952  1.00  0.00     0.009 C 
BRANCH  17  18
HETATM   18  P1  UNL     1      22.567   2.345  48.351  1.00  0.00    -0.075 P 
HETATM   19  H8  UNL     1      23.836   1.878  47.789  1.00  0.00     0.066 HD
BRANCH  18  20
HETATM   20  C2  UNL     1      22.562   4.182  48.451  1.00  0.00    -0.038 C 
HETATM   21  C1  UNL     1      23.762   4.563  48.864  1.00  0.00     0.022 C 
BRANCH  20  22
HETATM   22  C3  UNL     1      21.333   4.912  48.074  1.00  0.00     0.205 C 
BRANCH  22  23
HETATM   23  O1  UNL     1      20.234   4.687  48.862  1.00  0.00    -0.391 OA
HETATM   24  C4  UNL     1      19.785   5.808  49.527  1.00  0.00     0.201 C 
ENDBRANCH  22  23
ENDBRANCH  20  22
ENDBRANCH  18  20
ENDBRANCH  17  18
ENDBRANCH  16  17
ENDBRANCH   1  16
BRANCH   7  25
HETATM   25  O2  UNL     1      25.402   0.363  53.276  1.00  0.00    -0.378 OA
HETATM   26  H13 UNL     1      25.684   1.135  53.828  1.00  0.00     0.211 HD
ENDBRANCH   7  25
TORSDOF 7
ENDMDL
MODEL 7
REMARK VINA RESULT:      -5.9      8.733     11.257
REMARK  7 active torsions:
REMARK  status: ('A' for Active; 'I' for Inactive)
REMARK    1  A    between atoms: C2_2  and  C3_3 
REMARK    2  A    between atoms: C2_2  and  P1_6 
REMARK    3  A    between atoms: C3_3  and  O1_4 
REMARK    4  A    between atoms: P1_6  and  C5_7 
REMARK    5  A    between atoms: C5_7  and  C6_8 
REMARK    6  A    between atoms: C6_8  and  C7_9 
REMARK    7  A    between atoms: C11_15  and  O2_16 
ROOT
HETATM    1  C7  UNL     1      31.690   8.516  47.694  1.00  0.00     0.038 A 
HETATM    2  C8  UNL     1      31.930   9.848  47.435  1.00  0.00     0.141 A 
HETATM    3  N1  UNL     1      31.187  10.628  48.232  1.00  0.00    -0.224 NA
HETATM    4  C9  UNL     1      30.347  10.039  49.140  1.00  0.00     0.235 A 
HETATM    5  N2  UNL     1      30.165   8.701  49.349  1.00  0.00    -0.242 NA
HETATM    6  C10 UNL     1      30.861   7.833  48.608  1.00  0.00     0.089 A 
HETATM    7  C11 UNL     1      31.179   6.344  48.565  1.00  0.00     0.237 C 
HETATM    8  C12 UNL     1      32.646   6.405  48.657  1.00  0.00    -0.138 C 
HETATM    9  C13 UNL     1      33.871   6.480  48.730  1.00  0.00     0.024 C 
HETATM   10  C14 UNL     1      35.320   6.593  48.809  1.00  0.00     0.087 C 
HETATM   11  C15 UNL     1      35.364   7.754  48.138  1.00  0.00    -0.018 C 
HETATM   12  C16 UNL     1      34.763   8.840  47.442  1.00  0.00     0.013 C 
HETATM   13  C17 UNL     1      34.321   9.861  46.802  1.00  0.00     0.089 C 
HETATM   14  N3  UNL     1      32.944  10.134  46.492  1.00  0.00    -0.350 N 
HETATM   15  H18 UNL     1      32.334  10.493  45.763  1.00  0.00     0.166 HD
ENDROOT
BRANCH   1  16
HETATM   16  C6  UNL     1      32.254   7.671  46.606  1.00  0.00     0.018 C 
BRANCH  16  17
HETATM   17  C5  UNL     1      32.536   6.894  45.608  1.00  0.00     0.009 C 
BRANCH  17  18
HETATM   18  P1  UNL     1      33.083   5.552  44.539  1.00  0.00    -0.075 P 
HETATM   19  H8  UNL     1      32.039   5.186  43.580  1.00  0.00     0.066 HD
BRANCH  18  20
HETATM   20  C2  UNL     1      33.598   4.072  45.504  1.00  0.00    -0.038 C 
HETATM   21  C1  UNL     1      34.914   3.962  45.394  1.00  0.00     0.022 C 
BRANCH  20  22
HETATM   22  C3  UNL     1      32.564   3.292  46.217  1.00  0.00     0.205 C 
BRANCH  22  23
HETATM   23  O1  UNL     1      32.723   3.181  47.574  1.00  0.00    -0.391 OA
HETATM   24  C4  UNL     1      33.164   1.941  47.983  1.00  0.00     0.201 C 
ENDBRANCH  22  23
ENDBRANCH  20  22
ENDBRANCH  18  20
ENDBRANCH  17  18
ENDBRANCH  16  17
ENDBRANCH   1  16
BRANCH   7  25
HETATM   25  O2  UNL     1      30.624   5.724  49.634  1.00  0.00    -0.378 OA
HETATM   26  H13 UNL     1      30.803   4.750  49.606  1.00  0.00     0.211 HD
ENDBRANCH   7  25
TORSDOF 7
ENDMDL
MODEL 8
REMARK VINA RESULT:      -5.7      2.474      4.127
REMARK  7 active torsions:
REMARK  status: ('A' for Active; 'I' for Inactive)
REMARK    1  A    between atoms: C2_2  and  C3_3 
REMARK    2  A    between atoms: C2_2  and  P1_6 
REMARK    3  A    between atoms: C3_3  and  O1_4 
REMARK    4  A    between atoms: P1_6  and  C5_7 
REMARK    5  A    between atoms: C5_7  and  C6_8 
REMARK    6  A    between atoms: C6_8  and  C7_9 
REMARK    7  A    between atoms: C11_15  and  O2_16 
ROOT
HETATM    1  C7  UNL     1      25.090   2.761  50.939  1.00  0.00     0.038 A 
HETATM    2  C8  UNL     1      24.457   2.092  51.964  1.00  0.00     0.141 A 
HETATM    3  N1  UNL     1      25.350   1.613  52.840  1.00  0.00    -0.224 NA
HETATM    4  C9  UNL     1      26.684   1.839  52.619  1.00  0.00     0.235 A 
HETATM    5  N2  UNL     1      27.242   2.524  51.576  1.00  0.00    -0.242 NA
HETATM    6  C10 UNL     1      26.439   3.047  50.645  1.00  0.00     0.089 A 
HETATM    7  C11 UNL     1      26.508   4.011  49.467  1.00  0.00     0.237 C 
HETATM    8  C12 UNL     1      25.523   5.009  49.911  1.00  0.00    -0.138 C 
HETATM    9  C13 UNL     1      24.694   5.828  50.300  1.00  0.00     0.024 C 
HETATM   10  C14 UNL     1      23.701   6.782  50.776  1.00  0.00     0.087 C 
HETATM   11  C15 UNL     1      22.966   5.851  51.403  1.00  0.00    -0.018 C 
HETATM   12  C16 UNL     1      22.684   4.515  51.803  1.00  0.00     0.013 C 
HETATM   13  C17 UNL     1      22.342   3.348  52.216  1.00  0.00     0.089 C 
HETATM   14  N3  UNL     1      23.044   2.121  51.958  1.00  0.00    -0.350 N 
HETATM   15  H18 UNL     1      22.904   1.139  51.738  1.00  0.00     0.166 HD
ENDROOT
BRANCH   1  16
HETATM   16  C6  UNL     1      24.140   2.999  49.816  1.00  0.00     0.018 C 
BRANCH  16  17
HETATM   17  C5  UNL     1      23.323   2.990  48.811  1.00  0.00     0.009 C 
BRANCH  17  18
HETATM   18  P1  UNL     1      21.934   3.216  47.687  1.00  0.00    -0.075 P 
HETATM   19  H8  UNL     1      21.758   2.043  46.829  1.00  0.00     0.066 HD
BRANCH  18  20
HETATM   20  C2  UNL     1      22.125   4.727  46.654  1.00  0.00    -0.038 C 
HETATM   21  C1  UNL     1      21.871   4.386  45.399  1.00  0.00     0.022 C 
BRANCH  20  22
HETATM   22  C3  UNL     1      22.485   6.000  47.315  1.00  0.00     0.205 C 
BRANCH  22  23
HETATM   23  O1  UNL     1      23.060   6.952  46.513  1.00  0.00    -0.391 OA
HETATM   24  C4  UNL     1      24.199   7.515  47.044  1.00  0.00     0.201 C 
ENDBRANCH  22  23
ENDBRANCH  20  22
ENDBRANCH  18  20
ENDBRANCH  17  18
ENDBRANCH  16  17
ENDBRANCH   1  16
BRANCH   7  25
HETATM   25  O2  UNL     1      27.756   4.529  49.370  1.00  0.00    -0.378 OA
HETATM   26  H13 UNL     1      28.054   4.890  50.243  1.00  0.00     0.211 HD
ENDBRANCH   7  25
TORSDOF 7
ENDMDL
MODEL 9
REMARK VINA RESULT:      -5.6      2.649      5.329
REMARK  7 active torsions:
REMARK  status: ('A' for Active; 'I' for Inactive)
REMARK    1  A    between atoms: C2_2  and  C3_3 
REMARK    2  A    between atoms: C2_2  and  P1_6 
REMARK    3  A    between atoms: C3_3  and  O1_4 
REMARK    4  A    between atoms: P1_6  and  C5_7 
REMARK    5  A    between atoms: C5_7  and  C6_8 
REMARK    6  A    between atoms: C6_8  and  C7_9 
REMARK    7  A    between atoms: C11_15  and  O2_16 
ROOT
HETATM    1  C7  UNL     1      24.579   5.785  49.768  1.00  0.00     0.038 A 
HETATM    2  C8  UNL     1      25.892   5.741  49.353  1.00  0.00     0.141 A 
HETATM    3  N1  UNL     1      26.487   6.927  49.536  1.00  0.00    -0.224 NA
HETATM    4  C9  UNL     1      25.763   7.957  50.077  1.00  0.00     0.235 A 
HETATM    5  N2  UNL     1      24.456   7.925  50.476  1.00  0.00    -0.242 NA
HETATM    6  C10 UNL     1      23.768   6.787  50.341  1.00  0.00     0.089 A 
HETATM    7  C11 UNL     1      22.443   6.178  50.779  1.00  0.00     0.237 C 
HETATM    8  C12 UNL     1      22.944   4.999  51.502  1.00  0.00    -0.138 C 
HETATM    9  C13 UNL     1      23.384   4.017  52.097  1.00  0.00     0.024 C 
HETATM   10  C14 UNL     1      23.928   2.857  52.789  1.00  0.00     0.087 C 
HETATM   11  C15 UNL     1      24.983   2.740  51.968  1.00  0.00    -0.018 C 
HETATM   12  C16 UNL     1      25.773   3.138  50.854  1.00  0.00     0.013 C 
HETATM   13  C17 UNL     1      26.553   3.415  49.873  1.00  0.00     0.089 C 
HETATM   14  N3  UNL     1      26.376   4.484  48.927  1.00  0.00    -0.350 N 
HETATM   15  H18 UNL     1      26.470   4.717  47.942  1.00  0.00     0.166 HD
ENDROOT
BRANCH   1  16
HETATM   16  C6  UNL     1      23.841   4.592  49.267  1.00  0.00     0.018 C 
BRANCH  16  17
HETATM   17  C5  UNL     1      23.135   3.686  48.669  1.00  0.00     0.009 C 
BRANCH  17  18
HETATM   18  P1  UNL     1      22.253   2.188  48.197  1.00  0.00    -0.075 P 
HETATM   19  H8  UNL     1      21.569   2.364  46.914  1.00  0.00     0.066 HD
BRANCH  18  20
HETATM   20  C2  UNL     1      21.047   1.666  49.485  1.00  0.00    -0.038 C 
HETATM   21  C1  UNL     1      21.709   0.956  50.387  1.00  0.00     0.022 C 
BRANCH  20  22
HETATM   22  C3  UNL     1      19.636   2.089  49.352  1.00  0.00     0.205 C 
BRANCH  22  23
HETATM   23  O1  UNL     1      19.431   3.402  49.018  1.00  0.00    -0.391 OA
HETATM   24  C4  UNL     1      19.337   4.246  50.103  1.00  0.00     0.201 C 
ENDBRANCH  22  23
ENDBRANCH  20  22
ENDBRANCH  18  20
ENDBRANCH  17  18
ENDBRANCH  16  17
ENDBRANCH   1  16
BRANCH   7  25
HETATM   25  O2  UNL     1      21.789   7.039  51.595  1.00  0.00    -0.378 OA
HETATM   26  H13 UNL     1      21.344   6.552  52.334  1.00  0.00     0.211 HD
ENDBRANCH   7  25
TORSDOF 7
ENDMDL
