MODEL 1
REMARK VINA RESULT:      -8.2      0.000      0.000
REMARK  6 active torsions:
REMARK  status: ('A' for Active; 'I' for Inactive)
REMARK    1  A    between atoms: N1_2  and  C3_4 
REMARK    2  A    between atoms: C3_4  and  C4_5 
REMARK    3  A    between atoms: C5_6  and  C6_7 
REMARK       I    between atoms: C6_7  and  N2_9 
REMARK    4  A    between atoms: N2_9  and  C7_10 
REMARK    5  A    between atoms: C13_19  and  N6_20 
REMARK    6  A    between atoms: N6_20  and  C14_21 
ROOT
HETATM    1  C7  UNL     1      24.024   3.202  49.709  1.00  0.00     0.053 A 
HETATM    2  C8  UNL     1      23.078   2.867  48.741  1.00  0.00     0.148 A 
HETATM    3  N3  UNL     1      22.071   1.993  49.008  1.00  0.00    -0.238 NA
HETATM    4  C9  UNL     1      21.945   1.416  50.213  1.00  0.00     0.161 A 
HETATM    5  N4  UNL     1      20.983   0.543  50.562  1.00  0.00    -0.239 NA
HETATM    6  C10 UNL     1      20.910  -0.005  51.793  1.00  0.00     0.144 A 
HETATM    7  C11 UNL     1      21.816   0.282  52.803  1.00  0.00     0.089 A 
HETATM    8  C12 UNL     1      21.715  -0.311  54.096  1.00  0.00     0.103 C 
HETATM    9  N5  UNL     1      21.621  -0.776  55.139  1.00  0.00    -0.191 NA
HETATM   10  C13 UNL     1      22.830   1.188  52.475  1.00  0.00     0.069 A 
HETATM   11  C19 UNL     1      22.868   1.732  51.189  1.00  0.00     0.042 A 
HETATM   12  C20 UNL     1      23.894   2.612  50.940  1.00  0.00     0.048 A 
ENDROOT
BRANCH  10  13
HETATM   13  N6  UNL     1      23.799   1.544  53.440  1.00  0.00    -0.353 N 
HETATM   14  H14 UNL     1      23.661   2.213  54.213  1.00  0.00     0.166 HD
BRANCH  13  15
HETATM   15  C14 UNL     1      25.081   0.940  53.357  1.00  0.00     0.046 A 
HETATM   16  C15 UNL     1      26.272   1.655  53.536  1.00  0.00     0.050 A 
HETATM   17  C16 UNL     1      27.530   1.150  53.471  1.00  0.00     0.013 A 
HETATM   18 BR1  UNL     1      28.990   2.373  53.763  1.00  0.00    -0.051 Br
HETATM   19  C17 UNL     1      27.905  -0.153  53.220  1.00  0.00     0.021 A 
HETATM   20  C18 UNL     1      26.996  -1.186  52.985  1.00  0.00     0.019 A 
HETATM   21  P1  UNL     1      25.311  -0.748  53.024  1.00  0.00    -0.004 P 
ENDBRANCH  13  15
ENDBRANCH  10  13
BRANCH   1  22
HETATM   22  N2  UNL     1      24.986   4.124  49.227  1.00  0.00    -0.322 N 
HETATM   23  C6  UNL     1      26.386   4.209  49.434  1.00  0.00     0.245 C 
HETATM   24  O1  UNL     1      27.191   3.508  50.091  1.00  0.00    -0.268 OA
HETATM   25  H11 UNL     1      24.467   4.806  48.638  1.00  0.00     0.169 HD
BRANCH  23  26
HETATM   26  C5  UNL     1      27.044   5.308  48.768  1.00  0.00     0.072 C 
HETATM   27  C4  UNL     1      26.943   6.580  48.527  1.00  0.00    -0.002 C 
BRANCH  27  28
HETATM   28  C3  UNL     1      27.383   7.849  47.953  1.00  0.00     0.143 C 
BRANCH  28  29
HETATM   29  N1  UNL     1      27.979   8.779  48.853  1.00  0.00    -0.418 N 
HETATM   30  C1  UNL     1      27.251   9.036  50.055  1.00  0.00     0.142 C 
HETATM   31  C2  UNL     1      29.397   8.719  48.981  1.00  0.00     0.142 C 
ENDBRANCH  28  29
ENDBRANCH  27  28
ENDBRANCH  23  26
ENDBRANCH   1  22
TORSDOF 6
ENDMDL
MODEL 2
REMARK VINA RESULT:      -8.1      2.449      4.350
REMARK  6 active torsions:
REMARK  status: ('A' for Active; 'I' for Inactive)
REMARK    1  A    between atoms: N1_2  and  C3_4 
REMARK    2  A    between atoms: C3_4  and  C4_5 
REMARK    3  A    between atoms: C5_6  and  C6_7 
REMARK       I    between atoms: C6_7  and  N2_9 
REMARK    4  A    between atoms: N2_9  and  C7_10 
REMARK    5  A    between atoms: C13_19  and  N6_20 
REMARK    6  A    between atoms: N6_20  and  C14_21 
ROOT
HETATM    1  C7  UNL     1      26.688   2.228  52.059  1.00  0.00     0.053 A 
HETATM    2  C8  UNL     1      27.650   2.104  53.060  1.00  0.00     0.148 A 
HETATM    3  N3  UNL     1      27.441   1.318  54.150  1.00  0.00    -0.238 NA
HETATM    4  C9  UNL     1      26.301   0.626  54.307  1.00  0.00     0.161 A 
HETATM    5  N4  UNL     1      26.011  -0.172  55.349  1.00  0.00    -0.239 NA
HETATM    6  C10 UNL     1      24.843  -0.841  55.451  1.00  0.00     0.144 A 
HETATM    7  C11 UNL     1      23.843  -0.765  54.493  1.00  0.00     0.089 A 
HETATM    8  C12 UNL     1      22.618  -1.483  54.625  1.00  0.00     0.103 C 
HETATM    9  N5  UNL     1      21.643  -2.075  54.726  1.00  0.00    -0.191 NA
HETATM   10  C13 UNL     1      24.112   0.057  53.393  1.00  0.00     0.069 A 
HETATM   11  C19 UNL     1      25.333   0.731  53.329  1.00  0.00     0.042 A 
HETATM   12  C20 UNL     1      25.524   1.521  52.220  1.00  0.00     0.048 A 
ENDROOT
BRANCH  10  13
HETATM   13  N6  UNL     1      23.153   0.196  52.365  1.00  0.00    -0.353 N 
HETATM   14  H14 UNL     1      22.968  -0.490  51.618  1.00  0.00     0.166 HD
BRANCH  13  15
HETATM   15  C14 UNL     1      22.364   1.377  52.338  1.00  0.00     0.046 A 
HETATM   16  C15 UNL     1      22.892   2.637  52.031  1.00  0.00     0.050 A 
HETATM   17  C16 UNL     1      22.204   3.807  51.986  1.00  0.00     0.013 A 
HETATM   18 BR1  UNL     1      23.192   5.396  51.528  1.00  0.00    -0.051 Br
HETATM   19  C17 UNL     1      20.861   4.007  52.230  1.00  0.00     0.021 A 
HETATM   20  C18 UNL     1      19.978   2.982  52.574  1.00  0.00     0.019 A 
HETATM   21  P1  UNL     1      20.664   1.386  52.687  1.00  0.00    -0.004 P 
ENDBRANCH  13  15
ENDBRANCH  10  13
BRANCH   1  22
HETATM   22  N2  UNL     1      27.103   3.094  51.017  1.00  0.00    -0.322 N 
HETATM   23  C6  UNL     1      26.438   3.527  49.842  1.00  0.00     0.245 C 
HETATM   24  O1  UNL     1      25.302   3.286  49.371  1.00  0.00    -0.268 OA
HETATM   25  H11 UNL     1      28.067   3.400  51.258  1.00  0.00     0.169 HD
BRANCH  23  26
HETATM   26  C5  UNL     1      27.192   4.426  49.001  1.00  0.00     0.072 C 
HETATM   27  C4  UNL     1      27.294   5.673  48.651  1.00  0.00    -0.002 C 
BRANCH  27  28
HETATM   28  C3  UNL     1      27.878   6.788  47.910  1.00  0.00     0.143 C 
BRANCH  28  29
HETATM   29  N1  UNL     1      27.950   8.035  48.594  1.00  0.00    -0.418 N 
HETATM   30  C1  UNL     1      26.941   8.264  49.579  1.00  0.00     0.142 C 
HETATM   31  C2  UNL     1      29.255   8.511  48.913  1.00  0.00     0.142 C 
ENDBRANCH  28  29
ENDBRANCH  27  28
ENDBRANCH  23  26
ENDBRANCH   1  22
TORSDOF 6
ENDMDL
MODEL 3
REMARK VINA RESULT:      -7.7      3.832      9.142
REMARK  6 active torsions:
REMARK  status: ('A' for Active; 'I' for Inactive)
REMARK    1  A    between atoms: N1_2  and  C3_4 
REMARK    2  A    between atoms: C3_4  and  C4_5 
REMARK    3  A    between atoms: C5_6  and  C6_7 
REMARK       I    between atoms: C6_7  and  N2_9 
REMARK    4  A    between atoms: N2_9  and  C7_10 
REMARK    5  A    between atoms: C13_19  and  N6_20 
REMARK    6  A    between atoms: N6_20  and  C14_21 
ROOT
HETATM    1  C7  UNL     1      21.295  -0.847  53.628  1.00  0.00     0.053 A 
HETATM    2  C8  UNL     1      21.553  -1.448  54.860  1.00  0.00     0.148 A 
HETATM    3  N3  UNL     1      22.796  -1.427  55.411  1.00  0.00    -0.238 NA
HETATM    4  C9  UNL     1      23.826  -0.826  54.794  1.00  0.00     0.161 A 
HETATM    5  N4  UNL     1      25.084  -0.758  55.266  1.00  0.00    -0.239 NA
HETATM    6  C10 UNL     1      26.079  -0.139  54.596  1.00  0.00     0.144 A 
HETATM    7  C11 UNL     1      25.893   0.479  53.369  1.00  0.00     0.089 A 
HETATM    8  C12 UNL     1      26.963   1.127  52.682  1.00  0.00     0.103 C 
HETATM    9  N5  UNL     1      27.820   1.661  52.142  1.00  0.00    -0.191 NA
HETATM   10  C13 UNL     1      24.596   0.428  52.848  1.00  0.00     0.069 A 
HETATM   11  C19 UNL     1      23.596  -0.223  53.575  1.00  0.00     0.042 A 
HETATM   12  C20 UNL     1      22.347  -0.234  53.000  1.00  0.00     0.048 A 
ENDROOT
BRANCH  10  13
HETATM   13  N6  UNL     1      24.309   1.031  51.603  1.00  0.00    -0.353 N 
HETATM   14  H14 UNL     1      24.153   0.532  50.715  1.00  0.00     0.166 HD
BRANCH  13  15
HETATM   15  C14 UNL     1      24.224   2.447  51.547  1.00  0.00     0.046 A 
HETATM   16  C15 UNL     1      24.953   3.218  50.633  1.00  0.00     0.050 A 
HETATM   17  C16 UNL     1      24.925   4.570  50.520  1.00  0.00     0.013 A 
HETATM   18 BR1  UNL     1      26.035   5.367  49.162  1.00  0.00    -0.051 Br
HETATM   19  C17 UNL     1      24.187   5.465  51.267  1.00  0.00     0.021 A 
HETATM   20  C18 UNL     1      23.323   5.084  52.295  1.00  0.00     0.019 A 
HETATM   21  P1  UNL     1      23.210   3.376  52.607  1.00  0.00    -0.004 P 
ENDBRANCH  13  15
ENDBRANCH  10  13
BRANCH   1  22
HETATM   22  N2  UNL     1      19.941  -0.985  53.235  1.00  0.00    -0.322 N 
HETATM   23  C6  UNL     1      19.100  -0.140  52.468  1.00  0.00     0.245 C 
HETATM   24  O1  UNL     1      19.288   0.967  51.911  1.00  0.00    -0.268 OA
HETATM   25  H11 UNL     1      19.612  -1.890  53.629  1.00  0.00     0.169 HD
BRANCH  23  26
HETATM   26  C5  UNL     1      17.753  -0.621  52.271  1.00  0.00     0.072 C 
HETATM   27  C4  UNL     1      16.960  -1.614  52.541  1.00  0.00    -0.002 C 
BRANCH  27  28
HETATM   28  C3  UNL     1      15.689  -2.332  52.497  1.00  0.00     0.143 C 
BRANCH  28  29
HETATM   29  N1  UNL     1      15.731  -3.717  52.826  1.00  0.00    -0.418 N 
HETATM   30  C1  UNL     1      16.875  -4.146  53.567  1.00  0.00     0.142 C 
HETATM   31  C2  UNL     1      14.492  -4.324  53.182  1.00  0.00     0.142 C 
ENDBRANCH  28  29
ENDBRANCH  27  28
ENDBRANCH  23  26
ENDBRANCH   1  22
TORSDOF 6
ENDMDL
MODEL 4
REMARK VINA RESULT:      -7.5      3.917      8.712
REMARK  6 active torsions:
REMARK  status: ('A' for Active; 'I' for Inactive)
REMARK    1  A    between atoms: N1_2  and  C3_4 
REMARK    2  A    between atoms: C3_4  and  C4_5 
REMARK    3  A    between atoms: C5_6  and  C6_7 
REMARK       I    between atoms: C6_7  and  N2_9 
REMARK    4  A    between atoms: N2_9  and  C7_10 
REMARK    5  A    between atoms: C13_19  and  N6_20 
REMARK    6  A    between atoms: N6_20  and  C14_21 
ROOT
HETATM    1  C7  UNL     1      21.108  -0.840  53.581  1.00  0.00     0.053 A 
HETATM    2  C8  UNL     1      21.390  -1.483  54.786  1.00  0.00     0.148 A 
HETATM    3  N3  UNL     1      22.645  -1.489  55.308  1.00  0.00    -0.238 NA
HETATM    4  C9  UNL     1      23.666  -0.876  54.688  1.00  0.00     0.161 A 
HETATM    5  N4  UNL     1      24.934  -0.832  55.131  1.00  0.00    -0.239 NA
HETATM    6  C10 UNL     1      25.919  -0.199  54.459  1.00  0.00     0.144 A 
HETATM    7  C11 UNL     1      25.710   0.460  53.257  1.00  0.00     0.089 A 
HETATM    8  C12 UNL     1      26.769   1.122  52.567  1.00  0.00     0.103 C 
HETATM    9  N5  UNL     1      27.617   1.668  52.025  1.00  0.00    -0.191 NA
HETATM   10  C13 UNL     1      24.400   0.436  52.766  1.00  0.00     0.069 A 
HETATM   11  C19 UNL     1      23.412  -0.231  53.494  1.00  0.00     0.042 A 
HETATM   12  C20 UNL     1      22.151  -0.214  52.948  1.00  0.00     0.048 A 
ENDROOT
BRANCH  10  13
HETATM   13  N6  UNL     1      24.090   1.081  51.548  1.00  0.00    -0.353 N 
HETATM   14  H14 UNL     1      23.883   0.612  50.654  1.00  0.00     0.166 HD
BRANCH  13  15
HETATM   15  C14 UNL     1      24.055   2.501  51.531  1.00  0.00     0.046 A 
HETATM   16  C15 UNL     1      24.760   3.268  50.596  1.00  0.00     0.050 A 
HETATM   17  C16 UNL     1      24.776   4.623  50.518  1.00  0.00     0.013 A 
HETATM   18 BR1  UNL     1      25.840   5.415  49.119  1.00  0.00    -0.051 Br
HETATM   19  C17 UNL     1      24.115   5.524  51.326  1.00  0.00     0.021 A 
HETATM   20  C18 UNL     1      23.295   5.148  52.392  1.00  0.00     0.019 A 
HETATM   21  P1  UNL     1      23.135   3.437  52.668  1.00  0.00    -0.004 P 
ENDBRANCH  13  15
ENDBRANCH  10  13
BRANCH   1  22
HETATM   22  N2  UNL     1      19.744  -0.956  53.215  1.00  0.00    -0.322 N 
HETATM   23  C6  UNL     1      18.966  -0.236  52.274  1.00  0.00     0.245 C 
HETATM   24  O1  UNL     1      19.235   0.703  51.489  1.00  0.00    -0.268 OA
HETATM   25  H11 UNL     1      19.350  -1.724  53.795  1.00  0.00     0.169 HD
BRANCH  23  26
HETATM   26  C5  UNL     1      17.584  -0.643  52.174  1.00  0.00     0.072 C 
HETATM   27  C4  UNL     1      16.380  -0.309  52.529  1.00  0.00    -0.002 C 
BRANCH  27  28
HETATM   28  C3  UNL     1      14.931  -0.481  52.589  1.00  0.00     0.143 C 
BRANCH  28  29
HETATM   29  N1  UNL     1      14.157   0.705  52.737  1.00  0.00    -0.418 N 
HETATM   30  C1  UNL     1      13.139   0.664  53.739  1.00  0.00     0.142 C 
HETATM   31  C2  UNL     1      14.857   1.941  52.608  1.00  0.00     0.142 C 
ENDBRANCH  28  29
ENDBRANCH  27  28
ENDBRANCH  23  26
ENDBRANCH   1  22
TORSDOF 6
ENDMDL
MODEL 5
REMARK VINA RESULT:      -7.5      3.015      4.607
REMARK  6 active torsions:
REMARK  status: ('A' for Active; 'I' for Inactive)
REMARK    1  A    between atoms: N1_2  and  C3_4 
REMARK    2  A    between atoms: C3_4  and  C4_5 
REMARK    3  A    between atoms: C5_6  and  C6_7 
REMARK       I    between atoms: C6_7  and  N2_9 
REMARK    4  A    between atoms: N2_9  and  C7_10 
REMARK    5  A    between atoms: C13_19  and  N6_20 
REMARK    6  A    between atoms: N6_20  and  C14_21 
ROOT
HETATM    1  C7  UNL     1      25.609   3.167  51.198  1.00  0.00     0.053 A 
HETATM    2  C8  UNL     1      26.793   2.430  51.178  1.00  0.00     0.148 A 
HETATM    3  N3  UNL     1      26.881   1.215  51.782  1.00  0.00    -0.238 NA
HETATM    4  C9  UNL     1      25.832   0.672  52.421  1.00  0.00     0.161 A 
HETATM    5  N4  UNL     1      25.831  -0.519  53.043  1.00  0.00    -0.239 NA
HETATM    6  C10 UNL     1      24.741  -1.011  53.671  1.00  0.00     0.144 A 
HETATM    7  C11 UNL     1      23.533  -0.334  53.729  1.00  0.00     0.089 A 
HETATM    8  C12 UNL     1      22.396  -0.877  54.399  1.00  0.00     0.103 C 
HETATM    9  N5  UNL     1      21.481  -1.324  54.922  1.00  0.00    -0.191 NA
HETATM   10  C13 UNL     1      23.498   0.911  53.090  1.00  0.00     0.069 A 
HETATM   11  C19 UNL     1      24.648   1.381  52.453  1.00  0.00     0.042 A 
HETATM   12  C20 UNL     1      24.539   2.612  51.850  1.00  0.00     0.048 A 
ENDROOT
BRANCH  10  13
HETATM   13  N6  UNL     1      22.310   1.674  53.095  1.00  0.00    -0.353 N 
HETATM   14  H14 UNL     1      22.084   2.432  53.757  1.00  0.00     0.166 HD
BRANCH  13  15
HETATM   15  C14 UNL     1      21.326   1.391  52.111  1.00  0.00     0.046 A 
HETATM   16  C15 UNL     1      20.143   0.697  52.396  1.00  0.00     0.050 A 
HETATM   17  C16 UNL     1      19.160   0.389  51.511  1.00  0.00     0.013 A 
HETATM   18 BR1  UNL     1      17.635  -0.577  52.186  1.00  0.00    -0.051 Br
HETATM   19  C17 UNL     1      19.112   0.685  50.165  1.00  0.00     0.021 A 
HETATM   20  C18 UNL     1      20.118   1.379  49.491  1.00  0.00     0.019 A 
HETATM   21  P1  UNL     1      21.484   1.872  50.451  1.00  0.00    -0.004 P 
ENDBRANCH  13  15
ENDBRANCH  10  13
BRANCH   1  22
HETATM   22  N2  UNL     1      25.732   4.402  50.515  1.00  0.00    -0.322 N 
HETATM   23  C6  UNL     1      24.977   4.962  49.453  1.00  0.00     0.245 C 
HETATM   24  O1  UNL     1      23.988   4.549  48.804  1.00  0.00    -0.268 OA
HETATM   25  H11 UNL     1      26.540   4.895  50.945  1.00  0.00     0.169 HD
BRANCH  23  26
HETATM   26  C5  UNL     1      25.407   6.267  49.010  1.00  0.00     0.072 C 
HETATM   27  C4  UNL     1      26.398   6.895  48.454  1.00  0.00    -0.002 C 
BRANCH  27  28
HETATM   28  C3  UNL     1      27.078   8.075  47.926  1.00  0.00     0.143 C 
BRANCH  28  29
HETATM   29  N1  UNL     1      27.883   8.807  48.846  1.00  0.00    -0.418 N 
HETATM   30  C1  UNL     1      27.281   9.094  50.109  1.00  0.00     0.142 C 
HETATM   31  C2  UNL     1      29.271   8.482  48.874  1.00  0.00     0.142 C 
ENDBRANCH  28  29
ENDBRANCH  27  28
ENDBRANCH  23  26
ENDBRANCH   1  22
TORSDOF 6
ENDMDL
MODEL 6
REMARK VINA RESULT:      -7.5      2.699      4.332
REMARK  6 active torsions:
REMARK  status: ('A' for Active; 'I' for Inactive)
REMARK    1  A    between atoms: N1_2  and  C3_4 
REMARK    2  A    between atoms: C3_4  and  C4_5 
REMARK    3  A    between atoms: C5_6  and  C6_7 
REMARK       I    between atoms: C6_7  and  N2_9 
REMARK    4  A    between atoms: N2_9  and  C7_10 
REMARK    5  A    between atoms: C13_19  and  N6_20 
REMARK    6  A    between atoms: N6_20  and  C14_21 
ROOT
HETATM    1  C7  UNL     1      26.073   2.762  51.196  1.00  0.00     0.053 A 
HETATM    2  C8  UNL     1      26.988   1.766  51.537  1.00  0.00     0.148 A 
HETATM    3  N3  UNL     1      26.614   0.683  52.270  1.00  0.00    -0.238 NA
HETATM    4  C9  UNL     1      25.350   0.526  52.694  1.00  0.00     0.161 A 
HETATM    5  N4  UNL     1      24.895  -0.510  53.421  1.00  0.00    -0.239 NA
HETATM    6  C10 UNL     1      23.609  -0.610  53.819  1.00  0.00     0.144 A 
HETATM    7  C11 UNL     1      22.648   0.341  53.516  1.00  0.00     0.089 A 
HETATM    8  C12 UNL     1      21.295   0.210  53.949  1.00  0.00     0.103 C 
HETATM    9  N5  UNL     1      20.206   0.093  54.284  1.00  0.00    -0.191 NA
HETATM   10  C13 UNL     1      23.086   1.434  52.759  1.00  0.00     0.069 A 
HETATM   11  C19 UNL     1      24.425   1.498  52.368  1.00  0.00     0.042 A 
HETATM   12  C20 UNL     1      24.783   2.600  51.630  1.00  0.00     0.048 A 
ENDROOT
BRANCH  10  13
HETATM   13  N6  UNL     1      22.178   2.454  52.400  1.00  0.00    -0.353 N 
HETATM   14  H14 UNL     1      21.766   3.147  53.043  1.00  0.00     0.166 HD
BRANCH  13  15
HETATM   15  C14 UNL     1      21.784   2.553  51.039  1.00  0.00     0.046 A 
HETATM   16  C15 UNL     1      21.684   3.776  50.363  1.00  0.00     0.050 A 
HETATM   17  C16 UNL     1      21.315   3.950  49.068  1.00  0.00     0.013 A 
HETATM   18 BR1  UNL     1      21.267   5.756  48.398  1.00  0.00    -0.051 Br
HETATM   19  C17 UNL     1      20.964   2.980  48.152  1.00  0.00     0.021 A 
HETATM   20  C18 UNL     1      20.938   1.615  48.445  1.00  0.00     0.019 A 
HETATM   21  P1  UNL     1      21.383   1.171  50.068  1.00  0.00    -0.004 P 
ENDBRANCH  13  15
ENDBRANCH  10  13
BRANCH   1  22
HETATM   22  N2  UNL     1      26.666   3.800  50.435  1.00  0.00    -0.322 N 
HETATM   23  C6  UNL     1      26.126   4.656  49.442  1.00  0.00     0.245 C 
HETATM   24  O1  UNL     1      24.982   4.760  48.941  1.00  0.00    -0.268 OA
HETATM   25  H11 UNL     1      27.660   3.853  50.737  1.00  0.00     0.169 HD
BRANCH  23  26
HETATM   26  C5  UNL     1      27.051   5.609  48.877  1.00  0.00     0.072 C 
HETATM   27  C4  UNL     1      27.177   6.861  48.553  1.00  0.00    -0.002 C 
BRANCH  27  28
HETATM   28  C3  UNL     1      27.895   8.016  48.022  1.00  0.00     0.143 C 
BRANCH  28  29
HETATM   29  N1  UNL     1      28.320   8.989  48.971  1.00  0.00    -0.418 N 
HETATM   30  C1  UNL     1      27.467   9.172  50.101  1.00  0.00     0.142 C 
HETATM   31  C2  UNL     1      29.721   9.057  49.228  1.00  0.00     0.142 C 
ENDBRANCH  28  29
ENDBRANCH  27  28
ENDBRANCH  23  26
ENDBRANCH   1  22
TORSDOF 6
ENDMDL
MODEL 7
REMARK VINA RESULT:      -7.5      4.068      7.824
REMARK  6 active torsions:
REMARK  status: ('A' for Active; 'I' for Inactive)
REMARK    1  A    between atoms: N1_2  and  C3_4 
REMARK    2  A    between atoms: C3_4  and  C4_5 
REMARK    3  A    between atoms: C5_6  and  C6_7 
REMARK       I    between atoms: C6_7  and  N2_9 
REMARK    4  A    between atoms: N2_9  and  C7_10 
REMARK    5  A    between atoms: C13_19  and  N6_20 
REMARK    6  A    between atoms: N6_20  and  C14_21 
ROOT
HETATM    1  C7  UNL     1      21.462   1.035  52.756  1.00  0.00     0.053 A 
HETATM    2  C8  UNL     1      21.536  -0.356  52.823  1.00  0.00     0.148 A 
HETATM    3  N3  UNL     1      22.716  -0.992  53.052  1.00  0.00    -0.238 NA
HETATM    4  C9  UNL     1      23.859  -0.309  53.224  1.00  0.00     0.161 A 
HETATM    5  N4  UNL     1      25.066  -0.855  53.453  1.00  0.00    -0.239 NA
HETATM    6  C10 UNL     1      26.181  -0.113  53.616  1.00  0.00     0.144 A 
HETATM    7  C11 UNL     1      26.181   1.273  53.563  1.00  0.00     0.089 A 
HETATM    8  C12 UNL     1      27.375   2.034  53.739  1.00  0.00     0.103 C 
HETATM    9  N5  UNL     1      28.332   2.642  53.899  1.00  0.00    -0.191 NA
HETATM   10  C13 UNL     1      24.941   1.875  53.326  1.00  0.00     0.069 A 
HETATM   11  C19 UNL     1      23.812   1.069  53.163  1.00  0.00     0.042 A 
HETATM   12  C20 UNL     1      22.630   1.731  52.932  1.00  0.00     0.048 A 
ENDROOT
BRANCH  10  13
HETATM   13  N6  UNL     1      24.841   3.283  53.255  1.00  0.00    -0.353 N 
HETATM   14  H14 UNL     1      24.969   3.935  54.044  1.00  0.00     0.166 HD
BRANCH  13  15
HETATM   15  C14 UNL     1      24.538   3.872  51.999  1.00  0.00     0.046 A 
HETATM   16  C15 UNL     1      23.538   4.838  51.833  1.00  0.00     0.050 A 
HETATM   17  C16 UNL     1      23.192   5.444  50.669  1.00  0.00     0.013 A 
HETATM   18 BR1  UNL     1      21.772   6.745  50.737  1.00  0.00    -0.051 Br
HETATM   19  C17 UNL     1      23.738   5.245  49.418  1.00  0.00     0.021 A 
HETATM   20  C18 UNL     1      24.776   4.346  49.163  1.00  0.00     0.019 A 
HETATM   21  P1  UNL     1      25.374   3.457  50.535  1.00  0.00    -0.004 P 
ENDBRANCH  13  15
ENDBRANCH  10  13
BRANCH   1  22
HETATM   22  N2  UNL     1      20.145   1.493  52.508  1.00  0.00    -0.322 N 
HETATM   23  C6  UNL     1      19.641   2.425  51.566  1.00  0.00     0.245 C 
HETATM   24  O1  UNL     1      20.192   3.115  50.677  1.00  0.00    -0.268 OA
HETATM   25  H11 UNL     1      19.531   1.000  53.188  1.00  0.00     0.169 HD
BRANCH  23  26
HETATM   26  C5  UNL     1      18.215   2.642  51.612  1.00  0.00     0.072 C 
HETATM   27  C4  UNL     1      17.314   3.564  51.769  1.00  0.00    -0.002 C 
BRANCH  27  28
HETATM   28  C3  UNL     1      15.945   4.064  51.862  1.00  0.00     0.143 C 
BRANCH  28  29
HETATM   29  N1  UNL     1      15.132   3.498  52.885  1.00  0.00    -0.418 N 
HETATM   30  C1  UNL     1      14.242   4.400  53.544  1.00  0.00     0.142 C 
HETATM   31  C2  UNL     1      14.627   2.187  52.643  1.00  0.00     0.142 C 
ENDBRANCH  28  29
ENDBRANCH  27  28
ENDBRANCH  23  26
ENDBRANCH   1  22
TORSDOF 6
ENDMDL
MODEL 8
REMARK VINA RESULT:      -7.4      3.300      5.081
REMARK  6 active torsions:
REMARK  status: ('A' for Active; 'I' for Inactive)
REMARK    1  A    between atoms: N1_2  and  C3_4 
REMARK    2  A    between atoms: C3_4  and  C4_5 
REMARK    3  A    between atoms: C5_6  and  C6_7 
REMARK       I    between atoms: C6_7  and  N2_9 
REMARK    4  A    between atoms: N2_9  and  C7_10 
REMARK    5  A    between atoms: C13_19  and  N6_20 
REMARK    6  A    between atoms: N6_20  and  C14_21 
ROOT
HETATM    1  C7  UNL     1      26.150   3.046  50.648  1.00  0.00     0.053 A 
HETATM    2  C8  UNL     1      26.782   2.477  51.752  1.00  0.00     0.148 A 
HETATM    3  N3  UNL     1      26.119   1.636  52.591  1.00  0.00    -0.238 NA
HETATM    4  C9  UNL     1      24.830   1.319  52.392  1.00  0.00     0.161 A 
HETATM    5  N4  UNL     1      24.100   0.500  53.169  1.00  0.00    -0.239 NA
HETATM    6  C10 UNL     1      22.804   0.221  52.916  1.00  0.00     0.144 A 
HETATM    7  C11 UNL     1      22.113   0.751  51.837  1.00  0.00     0.089 A 
HETATM    8  C12 UNL     1      20.743   0.439  51.592  1.00  0.00     0.103 C 
HETATM    9  N5  UNL     1      19.648   0.171  51.389  1.00  0.00    -0.191 NA
HETATM   10  C13 UNL     1      22.843   1.608  51.006  1.00  0.00     0.069 A 
HETATM   11  C19 UNL     1      24.182   1.869  51.305  1.00  0.00     0.042 A 
HETATM   12  C20 UNL     1      24.833   2.722  50.445  1.00  0.00     0.048 A 
ENDROOT
BRANCH  10  13
HETATM   13  N6  UNL     1      22.225   2.196  49.880  1.00  0.00    -0.353 N 
HETATM   14  H14 UNL     1      21.910   1.694  49.036  1.00  0.00     0.166 HD
BRANCH  13  15
HETATM   15  C14 UNL     1      22.009   3.599  49.889  1.00  0.00     0.046 A 
HETATM   16  C15 UNL     1      22.255   4.414  48.778  1.00  0.00     0.050 A 
HETATM   17  C16 UNL     1      22.075   5.758  48.711  1.00  0.00     0.013 A 
HETATM   18 BR1  UNL     1      22.495   6.625  47.042  1.00  0.00    -0.051 Br
HETATM   19  C17 UNL     1      21.618   6.599  49.704  1.00  0.00     0.021 A 
HETATM   20  C18 UNL     1      21.260   6.163  50.981  1.00  0.00     0.019 A 
HETATM   21  P1  UNL     1      21.418   4.455  51.279  1.00  0.00    -0.004 P 
ENDBRANCH  13  15
ENDBRANCH  10  13
BRANCH   1  22
HETATM   22  N2  UNL     1      27.014   3.890  49.908  1.00  0.00    -0.322 N 
HETATM   23  C6  UNL     1      26.741   4.973  49.035  1.00  0.00     0.245 C 
HETATM   24  O1  UNL     1      25.675   5.511  48.656  1.00  0.00    -0.268 OA
HETATM   25  H11 UNL     1      27.982   3.570  50.115  1.00  0.00     0.169 HD
BRANCH  23  26
HETATM   26  C5  UNL     1      27.901   5.605  48.451  1.00  0.00     0.072 C 
HETATM   27  C4  UNL     1      29.168   5.431  48.224  1.00  0.00    -0.002 C 
BRANCH  27  28
HETATM   28  C3  UNL     1      30.480   5.825  47.717  1.00  0.00     0.143 C 
BRANCH  28  29
HETATM   29  N1  UNL     1      31.587   5.610  48.587  1.00  0.00    -0.418 N 
HETATM   30  C1  UNL     1      32.577   4.693  48.120  1.00  0.00     0.142 C 
HETATM   31  C2  UNL     1      32.073   6.751  49.291  1.00  0.00     0.142 C 
ENDBRANCH  28  29
ENDBRANCH  27  28
ENDBRANCH  23  26
ENDBRANCH   1  22
TORSDOF 6
ENDMDL
MODEL 9
REMARK VINA RESULT:      -7.3      4.297      6.580
REMARK  6 active torsions:
REMARK  status: ('A' for Active; 'I' for Inactive)
REMARK    1  A    between atoms: N1_2  and  C3_4 
REMARK    2  A    between atoms: C3_4  and  C4_5 
REMARK    3  A    between atoms: C5_6  and  C6_7 
REMARK       I    between atoms: C6_7  and  N2_9 
REMARK    4  A    between atoms: N2_9  and  C7_10 
REMARK    5  A    between atoms: C13_19  and  N6_20 
REMARK    6  A    between atoms: N6_20  and  C14_21 
ROOT
HETATM    1  C7  UNL     1      22.571  -0.151  52.926  1.00  0.00     0.053 A 
HETATM    2  C8  UNL     1      22.071  -0.771  54.070  1.00  0.00     0.148 A 
HETATM    3  N3  UNL     1      20.742  -1.025  54.215  1.00  0.00    -0.238 NA
HETATM    4  C9  UNL     1      19.857  -0.690  53.262  1.00  0.00     0.161 A 
HETATM    5  N4  UNL     1      18.531  -0.901  53.322  1.00  0.00    -0.239 NA
HETATM    6  C10 UNL     1      17.690  -0.539  52.330  1.00  0.00     0.144 A 
HETATM    7  C11 UNL     1      18.119   0.080  51.166  1.00  0.00     0.089 A 
HETATM    8  C12 UNL     1      17.209   0.452  50.132  1.00  0.00     0.103 C 
HETATM    9  N5  UNL     1      16.478   0.733  49.296  1.00  0.00    -0.191 NA
HETATM   10  C13 UNL     1      19.494   0.315  51.069  1.00  0.00     0.069 A 
HETATM   11  C19 UNL     1      20.328  -0.076  52.119  1.00  0.00     0.042 A 
HETATM   12  C20 UNL     1      21.666   0.190  51.954  1.00  0.00     0.048 A 
ENDROOT
BRANCH  10  13
HETATM   13  N6  UNL     1      20.025   0.940  49.918  1.00  0.00    -0.353 N 
HETATM   14  H14 UNL     1      20.158   0.494  48.999  1.00  0.00     0.166 HD
BRANCH  13  15
HETATM   15  C14 UNL     1      20.415   2.302  50.014  1.00  0.00     0.046 A 
HETATM   16  C15 UNL     1      21.667   2.766  49.592  1.00  0.00     0.050 A 
HETATM   17  C16 UNL     1      22.111   4.048  49.652  1.00  0.00     0.013 A 
HETATM   18 BR1  UNL     1      23.887   4.400  48.992  1.00  0.00    -0.051 Br
HETATM   19  C17 UNL     1      21.440   5.152  50.133  1.00  0.00     0.021 A 
HETATM   20  C18 UNL     1      20.145   5.103  50.653  1.00  0.00     0.019 A 
HETATM   21  P1  UNL     1      19.385   3.537  50.667  1.00  0.00    -0.004 P 
ENDBRANCH  13  15
ENDBRANCH  10  13
BRANCH   1  22
HETATM   22  N2  UNL     1      23.976   0.021  52.977  1.00  0.00    -0.322 N 
HETATM   23  C6  UNL     1      24.834   0.912  52.284  1.00  0.00     0.245 C 
HETATM   24  O1  UNL     1      24.622   1.806  51.432  1.00  0.00    -0.268 OA
HETATM   25  H11 UNL     1      24.331  -0.672  53.666  1.00  0.00     0.169 HD
BRANCH  23  26
HETATM   26  C5  UNL     1      26.237   0.792  52.602  1.00  0.00     0.072 C 
HETATM   27  C4  UNL     1      27.284   1.484  52.938  1.00  0.00    -0.002 C 
BRANCH  27  28
HETATM   28  C3  UNL     1      28.691   1.654  53.293  1.00  0.00     0.143 C 
BRANCH  28  29
HETATM   29  N1  UNL     1      29.277   0.618  54.075  1.00  0.00    -0.418 N 
HETATM   30  C1  UNL     1      28.476   0.119  55.148  1.00  0.00     0.142 C 
HETATM   31  C2  UNL     1      30.052  -0.349  53.371  1.00  0.00     0.142 C 
ENDBRANCH  28  29
ENDBRANCH  27  28
ENDBRANCH  23  26
ENDBRANCH   1  22
TORSDOF 6
ENDMDL
