MODEL 1
REMARK VINA RESULT:      -8.5      0.000      0.000
REMARK  3 active torsions:
REMARK  status: ('A' for Active; 'I' for Inactive)
REMARK    1  A    between atoms: C16_21  and  O1_22 
REMARK    2  A    between atoms: O1_22  and  C17_23 
REMARK    3  A    between atoms: C17_23  and  C18_25 
ROOT
HETATM    1  N1  UNL     1      22.397   1.549  51.805  1.00  0.00    -0.008 N 
HETATM    2  C1  UNL     1      21.616   2.463  52.065  1.00  0.00     0.260 A 
HETATM    3  C2  UNL     1      23.043   2.950  51.987  1.00  0.00     0.213 A 
HETATM    4  C3  UNL     1      23.963   3.399  52.842  1.00  0.00     0.020 C 
HETATM    5  C4  UNL     1      25.372   3.181  52.533  1.00  0.00     0.009 C 
HETATM    6  C5  UNL     1      25.743   2.530  51.394  1.00  0.00    -0.021 C 
HETATM    7  C6  UNL     1      24.975   3.269  50.311  1.00  0.00     0.078 C 
HETATM    8  C7  UNL     1      23.500   2.936  50.475  1.00  0.00    -0.030 C 
HETATM    9  C8  UNL     1      22.778   2.615  49.371  1.00  0.00     0.050 C 
HETATM   10  C9  UNL     1      21.403   2.037  49.471  1.00  0.00     0.123 C 
HETATM   11 CL1  UNL     1      20.685   2.121  47.867  1.00  0.00    -0.063 Cl
HETATM   12  N2  UNL     1      20.582   1.504  50.345  1.00  0.00    -0.241 NA
HETATM   13  C10 UNL     1      21.001   1.176  51.702  1.00  0.00     0.330 A 
HETATM   14  C11 UNL     1      20.141   0.783  52.740  1.00  0.00     0.047 C 
HETATM   15  C12 UNL     1      20.882   0.313  53.793  1.00  0.00     0.117 C 
HETATM   16  N3  UNL     1      22.232   0.159  54.021  1.00  0.00    -0.257 NA
HETATM   17  C13 UNL     1      23.053  -0.820  53.935  1.00  0.00     0.202 C 
HETATM   18  N4  UNL     1      24.485  -0.898  54.198  1.00  0.00    -0.381 N 
HETATM   19  C14 UNL     1      25.618  -0.737  53.353  1.00  0.00     0.150 C 
HETATM   20  C15 UNL     1      26.035   0.499  52.754  1.00  0.00     0.030 C 
HETATM   21  C16 UNL     1      26.587   1.652  52.259  1.00  0.00     0.083 C 
HETATM   22  H1  UNL     1      23.349   1.448  51.674  1.00  0.00     0.286 HD
HETATM   23  H11 UNL     1      24.353  -1.111  55.212  1.00  0.00     0.160 HD
ENDROOT
BRANCH  21  24
HETATM   24  O1  UNL     1      27.899   2.096  52.489  1.00  0.00    -0.277 OA
BRANCH  24  25
HETATM   25  C17 UNL     1      28.696   1.518  53.445  1.00  0.00     0.292 C 
HETATM   26  O2  UNL     1      28.612   2.644  54.049  1.00  0.00    -0.262 OA
BRANCH  25  27
HETATM   27  C18 UNL     1      29.481   0.413  54.033  1.00  0.00     0.333 C 
HETATM   28  F1  UNL     1      28.756   0.005  55.159  1.00  0.00    -0.245 F 
ENDBRANCH  25  27
ENDBRANCH  24  25
ENDBRANCH  21  24
TORSDOF 3
ENDMDL
MODEL 2
REMARK VINA RESULT:      -8.0      4.103      6.803
REMARK  3 active torsions:
REMARK  status: ('A' for Active; 'I' for Inactive)
REMARK    1  A    between atoms: C16_21  and  O1_22 
REMARK    2  A    between atoms: O1_22  and  C17_23 
REMARK    3  A    between atoms: C17_23  and  C18_25 
ROOT
HETATM    1  N1  UNL     1      24.457   1.742  51.369  1.00  0.00    -0.008 N 
HETATM    2  C1  UNL     1      25.033   2.508  52.141  1.00  0.00     0.260 A 
HETATM    3  C2  UNL     1      23.670   2.112  52.655  1.00  0.00     0.213 A 
HETATM    4  C3  UNL     1      22.490   2.709  52.834  1.00  0.00     0.020 C 
HETATM    5  C4  UNL     1      21.278   1.900  52.751  1.00  0.00     0.009 C 
HETATM    6  C5  UNL     1      21.348   0.564  52.495  1.00  0.00    -0.021 C 
HETATM    7  C6  UNL     1      22.356   0.071  53.520  1.00  0.00     0.078 C 
HETATM    8  C7  UNL     1      23.724   0.605  53.123  1.00  0.00    -0.030 C 
HETATM    9  C8  UNL     1      24.785  -0.240  53.149  1.00  0.00     0.050 C 
HETATM   10  C9  UNL     1      26.101   0.130  52.542  1.00  0.00     0.123 C 
HETATM   11 CL1  UNL     1      27.284  -1.043  53.109  1.00  0.00    -0.063 Cl
HETATM   12  N2  UNL     1      26.641   1.023  51.747  1.00  0.00    -0.241 NA
HETATM   13  C10 UNL     1      25.840   1.999  51.019  1.00  0.00     0.330 A 
HETATM   14  C11 UNL     1      26.353   3.094  50.305  1.00  0.00     0.047 C 
HETATM   15  C12 UNL     1      25.357   3.649  49.544  1.00  0.00     0.117 C 
HETATM   16  N3  UNL     1      24.023   3.361  49.354  1.00  0.00    -0.257 NA
HETATM   17  C13 UNL     1      23.359   2.717  48.467  1.00  0.00     0.202 C 
HETATM   18  N4  UNL     1      21.931   2.456  48.339  1.00  0.00    -0.381 N 
HETATM   19  C14 UNL     1      21.119   1.374  48.779  1.00  0.00     0.150 C 
HETATM   20  C15 UNL     1      20.811   1.072  50.147  1.00  0.00     0.030 C 
HETATM   21  C16 UNL     1      20.350   0.794  51.408  1.00  0.00     0.083 C 
HETATM   22  H1  UNL     1      23.610   1.279  51.333  1.00  0.00     0.286 HD
HETATM   23  H11 UNL     1      21.749   3.343  47.817  1.00  0.00     0.160 HD
ENDROOT
BRANCH  21  24
HETATM   24  O1  UNL     1      19.000   0.699  51.784  1.00  0.00    -0.277 OA
BRANCH  24  25
HETATM   25  C17 UNL     1      18.471  -0.469  52.270  1.00  0.00     0.292 C 
HETATM   26  O2  UNL     1      17.856  -0.537  51.148  1.00  0.00    -0.262 OA
BRANCH  25  27
HETATM   27  C18 UNL     1      18.284  -1.525  53.287  1.00  0.00     0.333 C 
HETATM   28  F1  UNL     1      19.556  -1.741  53.831  1.00  0.00    -0.245 F 
ENDBRANCH  25  27
ENDBRANCH  24  25
ENDBRANCH  21  24
TORSDOF 3
ENDMDL
MODEL 3
REMARK VINA RESULT:      -7.9      3.278      5.082
REMARK  3 active torsions:
REMARK  status: ('A' for Active; 'I' for Inactive)
REMARK    1  A    between atoms: C16_21  and  O1_22 
REMARK    2  A    between atoms: O1_22  and  C17_23 
REMARK    3  A    between atoms: C17_23  and  C18_25 
ROOT
HETATM    1  N1  UNL     1      23.959   3.870  50.596  1.00  0.00    -0.008 N 
HETATM    2  C1  UNL     1      23.652   4.015  49.413  1.00  0.00     0.260 A 
HETATM    3  C2  UNL     1      22.791   2.979  50.092  1.00  0.00     0.213 A 
HETATM    4  C3  UNL     1      22.644   1.653  50.039  1.00  0.00     0.020 C 
HETATM    5  C4  UNL     1      22.196   0.951  51.237  1.00  0.00     0.009 C 
HETATM    6  C5  UNL     1      21.933   1.632  52.387  1.00  0.00    -0.021 C 
HETATM    7  C6  UNL     1      20.997   2.735  51.927  1.00  0.00     0.078 C 
HETATM    8  C7  UNL     1      21.804   3.711  51.084  1.00  0.00    -0.030 C 
HETATM    9  C8  UNL     1      21.650   5.042  51.302  1.00  0.00     0.050 C 
HETATM   10  C9  UNL     1      22.577   6.050  50.702  1.00  0.00     0.123 C 
HETATM   11 CL1  UNL     1      21.830   7.630  50.904  1.00  0.00    -0.063 Cl
HETATM   12  N2  UNL     1      23.734   6.133  50.089  1.00  0.00    -0.241 NA
HETATM   13  C10 UNL     1      24.622   4.985  49.949  1.00  0.00     0.330 A 
HETATM   14  C11 UNL     1      25.777   4.949  49.152  1.00  0.00     0.047 C 
HETATM   15  C12 UNL     1      26.500   3.822  49.448  1.00  0.00     0.117 C 
HETATM   16  N3  UNL     1      26.325   2.774  50.324  1.00  0.00    -0.257 NA
HETATM   17  C13 UNL     1      26.767   2.496  51.493  1.00  0.00     0.202 C 
HETATM   18  N4  UNL     1      26.529   1.350  52.362  1.00  0.00    -0.381 N 
HETATM   19  C14 UNL     1      25.574   1.119  53.391  1.00  0.00     0.150 C 
HETATM   20  C15 UNL     1      24.161   0.961  53.191  1.00  0.00     0.030 C 
HETATM   21  C16 UNL     1      22.829   0.659  53.081  1.00  0.00     0.083 C 
HETATM   22  H1  UNL     1      23.665   3.330  51.342  1.00  0.00     0.286 HD
HETATM   23  H11 UNL     1      27.305   0.789  51.946  1.00  0.00     0.160 HD
ENDROOT
BRANCH  21  24
HETATM   24  O1  UNL     1      22.210  -0.503  53.572  1.00  0.00    -0.277 OA
BRANCH  24  25
HETATM   25  C17 UNL     1      22.586  -1.068  54.765  1.00  0.00     0.292 C 
HETATM   26  O2  UNL     1      21.351  -1.388  54.884  1.00  0.00    -0.262 OA
BRANCH  25  27
HETATM   27  C18 UNL     1      23.556  -1.434  55.817  1.00  0.00     0.333 C 
HETATM   28  F1  UNL     1      24.801  -1.457  55.178  1.00  0.00    -0.245 F 
ENDBRANCH  25  27
ENDBRANCH  24  25
ENDBRANCH  21  24
TORSDOF 3
ENDMDL
MODEL 4
REMARK VINA RESULT:      -7.9      1.639      2.021
REMARK  3 active torsions:
REMARK  status: ('A' for Active; 'I' for Inactive)
REMARK    1  A    between atoms: C16_21  and  O1_22 
REMARK    2  A    between atoms: O1_22  and  C17_23 
REMARK    3  A    between atoms: C17_23  and  C18_25 
ROOT
HETATM    1  N1  UNL     1      21.808   2.330  51.018  1.00  0.00    -0.008 N 
HETATM    2  C1  UNL     1      21.347   3.470  50.967  1.00  0.00     0.260 A 
HETATM    3  C2  UNL     1      22.741   3.454  51.544  1.00  0.00     0.213 A 
HETATM    4  C3  UNL     1      23.299   3.659  52.739  1.00  0.00     0.020 C 
HETATM    5  C4  UNL     1      24.541   2.964  53.060  1.00  0.00     0.009 C 
HETATM    6  C5  UNL     1      25.121   2.122  52.159  1.00  0.00    -0.021 C 
HETATM    7  C6  UNL     1      25.187   2.963  50.896  1.00  0.00     0.078 C 
HETATM    8  C7  UNL     1      23.767   3.147  50.383  1.00  0.00    -0.030 C 
HETATM    9  C8  UNL     1      23.526   2.975  49.059  1.00  0.00     0.050 C 
HETATM   10  C9  UNL     1      22.134   2.890  48.517  1.00  0.00     0.123 C 
HETATM   11 CL1  UNL     1      22.245   3.049  46.768  1.00  0.00    -0.063 Cl
HETATM   12  N2  UNL     1      20.893   2.740  48.915  1.00  0.00    -0.241 NA
HETATM   13  C10 UNL     1      20.554   2.424  50.297  1.00  0.00     0.330 A 
HETATM   14  C11 UNL     1      19.257   2.435  50.834  1.00  0.00     0.047 C 
HETATM   15  C12 UNL     1      19.272   1.852  52.074  1.00  0.00     0.117 C 
HETATM   16  N3  UNL     1      20.256   1.289  52.857  1.00  0.00    -0.257 NA
HETATM   17  C13 UNL     1      20.656   0.092  53.078  1.00  0.00     0.202 C 
HETATM   18  N4  UNL     1      21.718  -0.423  53.931  1.00  0.00    -0.381 N 
HETATM   19  C14 UNL     1      23.086  -0.722  53.673  1.00  0.00     0.150 C 
HETATM   20  C15 UNL     1      24.106   0.247  53.389  1.00  0.00     0.030 C 
HETATM   21  C16 UNL     1      25.167   1.104  53.251  1.00  0.00     0.083 C 
HETATM   22  H1  UNL     1      22.630   1.911  51.307  1.00  0.00     0.286 HD
HETATM   23  H11 UNL     1      21.104  -0.484  54.774  1.00  0.00     0.160 HD
ENDROOT
BRANCH  21  24
HETATM   24  O1  UNL     1      26.319   1.115  54.054  1.00  0.00    -0.277 OA
BRANCH  24  25
HETATM   25  C17 UNL     1      27.323   0.196  53.883  1.00  0.00     0.292 C 
HETATM   26  O2  UNL     1      27.819   0.691  54.955  1.00  0.00    -0.262 OA
BRANCH  25  27
HETATM   27  C18 UNL     1      28.010  -0.910  53.185  1.00  0.00     0.333 C 
HETATM   28  F1  UNL     1      27.073  -1.408  52.271  1.00  0.00    -0.245 F 
ENDBRANCH  25  27
ENDBRANCH  24  25
ENDBRANCH  21  24
TORSDOF 3
ENDMDL
MODEL 5
REMARK VINA RESULT:      -7.5      3.497      5.178
REMARK  3 active torsions:
REMARK  status: ('A' for Active; 'I' for Inactive)
REMARK    1  A    between atoms: C16_21  and  O1_22 
REMARK    2  A    between atoms: O1_22  and  C17_23 
REMARK    3  A    between atoms: C17_23  and  C18_25 
ROOT
HETATM    1  N1  UNL     1      20.699   1.466  51.647  1.00  0.00    -0.008 N 
HETATM    2  C1  UNL     1      20.521   0.329  51.209  1.00  0.00     0.260 A 
HETATM    3  C2  UNL     1      21.747   0.977  50.610  1.00  0.00     0.213 A 
HETATM    4  C3  UNL     1      22.106   1.455  49.417  1.00  0.00     0.020 C 
HETATM    5  C4  UNL     1      23.081   2.539  49.364  1.00  0.00     0.009 C 
HETATM    6  C5  UNL     1      23.615   3.054  50.507  1.00  0.00    -0.021 C 
HETATM    7  C6  UNL     1      24.098   1.819  51.247  1.00  0.00     0.078 C 
HETATM    8  C7  UNL     1      22.873   1.046  51.714  1.00  0.00    -0.030 C 
HETATM    9  C8  UNL     1      22.848   0.574  52.986  1.00  0.00     0.050 C 
HETATM   10  C9  UNL     1      21.596   0.030  53.598  1.00  0.00     0.123 C 
HETATM   11 CL1  UNL     1      22.060  -0.807  55.075  1.00  0.00    -0.063 Cl
HETATM   12  N2  UNL     1      20.302  -0.024  53.394  1.00  0.00    -0.241 NA
HETATM   13  C10 UNL     1      19.653   0.730  52.328  1.00  0.00     0.330 A 
HETATM   14  C11 UNL     1      18.314   0.579  51.931  1.00  0.00     0.047 C 
HETATM   15  C12 UNL     1      17.971   1.605  51.090  1.00  0.00     0.117 C 
HETATM   16  N3  UNL     1      18.643   2.695  50.583  1.00  0.00    -0.257 NA
HETATM   17  C13 UNL     1      18.718   3.934  50.900  1.00  0.00     0.202 C 
HETATM   18  N4  UNL     1      19.463   5.035  50.303  1.00  0.00    -0.381 N 
HETATM   19  C14 UNL     1      20.753   5.570  50.578  1.00  0.00     0.150 C 
HETATM   20  C15 UNL     1      21.998   4.902  50.327  1.00  0.00     0.030 C 
HETATM   21  C16 UNL     1      23.230   4.403  49.992  1.00  0.00     0.083 C 
HETATM   22  H1  UNL     1      21.339   2.179  51.524  1.00  0.00     0.286 HD
HETATM   23  H11 UNL     1      18.706   5.265  49.621  1.00  0.00     0.160 HD
ENDROOT
BRANCH  21  24
HETATM   24  O1  UNL     1      24.188   5.052  49.197  1.00  0.00    -0.277 OA
BRANCH  24  25
HETATM   25  C17 UNL     1      25.532   4.919  49.439  1.00  0.00     0.292 C 
HETATM   26  O2  UNL     1      25.385   5.923  50.221  1.00  0.00    -0.262 OA
BRANCH  25  27
HETATM   27  C18 UNL     1      26.859   4.292  49.273  1.00  0.00     0.333 C 
HETATM   28  F1  UNL     1      26.607   2.919  49.168  1.00  0.00    -0.245 F 
ENDBRANCH  25  27
ENDBRANCH  24  25
ENDBRANCH  21  24
TORSDOF 3
ENDMDL
MODEL 6
REMARK VINA RESULT:      -7.5      4.331      6.440
REMARK  3 active torsions:
REMARK  status: ('A' for Active; 'I' for Inactive)
REMARK    1  A    between atoms: C16_21  and  O1_22 
REMARK    2  A    between atoms: O1_22  and  C17_23 
REMARK    3  A    between atoms: C17_23  and  C18_25 
ROOT
HETATM    1  N1  UNL     1      23.194   1.902  51.935  1.00  0.00    -0.008 N 
HETATM    2  C1  UNL     1      23.778   1.979  50.854  1.00  0.00     0.260 A 
HETATM    3  C2  UNL     1      22.320   1.628  50.681  1.00  0.00     0.213 A 
HETATM    4  C3  UNL     1      21.619   0.557  50.304  1.00  0.00     0.020 C 
HETATM    5  C4  UNL     1      20.276   0.375  50.843  1.00  0.00     0.009 C 
HETATM    6  C5  UNL     1      19.747   1.278  51.716  1.00  0.00    -0.021 C 
HETATM    7  C6  UNL     1      19.957   2.604  51.006  1.00  0.00     0.078 C 
HETATM    8  C7  UNL     1      21.449   2.903  51.008  1.00  0.00    -0.030 C 
HETATM    9  C8  UNL     1      21.862   4.154  51.337  1.00  0.00     0.050 C 
HETATM   10  C9  UNL     1      23.300   4.462  51.606  1.00  0.00     0.123 C 
HETATM   11 CL1  UNL     1      23.464   6.214  51.617  1.00  0.00    -0.063 Cl
HETATM   12  N2  UNL     1      24.446   3.864  51.829  1.00  0.00    -0.241 NA
HETATM   13  C10 UNL     1      24.543   2.423  52.032  1.00  0.00     0.330 A 
HETATM   14  C11 UNL     1      25.741   1.694  52.087  1.00  0.00     0.047 C 
HETATM   15  C12 UNL     1      25.482   0.425  52.536  1.00  0.00     0.117 C 
HETATM   16  N3  UNL     1      24.339  -0.240  52.922  1.00  0.00    -0.257 NA
HETATM   17  C13 UNL     1      23.785  -0.500  54.047  1.00  0.00     0.202 C 
HETATM   18  N4  UNL     1      22.560  -1.218  54.372  1.00  0.00    -0.381 N 
HETATM   19  C14 UNL     1      21.221  -0.777  54.566  1.00  0.00     0.150 C 
HETATM   20  C15 UNL     1      20.363  -0.253  53.542  1.00  0.00     0.030 C 
HETATM   21  C16 UNL     1      19.433   0.123  52.608  1.00  0.00     0.083 C 
HETATM   22  H1  UNL     1      22.299   1.709  52.243  1.00  0.00     0.286 HD
HETATM   23  H11 UNL     1      23.034  -2.148  54.402  1.00  0.00     0.160 HD
ENDROOT
BRANCH  21  24
HETATM   24  O1  UNL     1      18.183  -0.487  52.407  1.00  0.00    -0.277 OA
BRANCH  24  25
HETATM   25  C17 UNL     1      17.731  -1.487  53.230  1.00  0.00     0.292 C 
HETATM   26  O2  UNL     1      16.683  -0.762  53.364  1.00  0.00    -0.262 OA
BRANCH  25  27
HETATM   27  C18 UNL     1      17.835  -2.783  53.931  1.00  0.00     0.333 C 
HETATM   28  F1  UNL     1      17.690  -3.754  52.933  1.00  0.00    -0.245 F 
ENDBRANCH  25  27
ENDBRANCH  24  25
ENDBRANCH  21  24
TORSDOF 3
ENDMDL
MODEL 7
REMARK VINA RESULT:      -7.5      3.888      5.876
REMARK  3 active torsions:
REMARK  status: ('A' for Active; 'I' for Inactive)
REMARK    1  A    between atoms: C16_21  and  O1_22 
REMARK    2  A    between atoms: O1_22  and  C17_23 
REMARK    3  A    between atoms: C17_23  and  C18_25 
ROOT
HETATM    1  N1  UNL     1      23.851   4.218  50.082  1.00  0.00    -0.008 N 
HETATM    2  C1  UNL     1      24.158   5.258  50.664  1.00  0.00     0.260 A 
HETATM    3  C2  UNL     1      24.197   4.065  51.588  1.00  0.00     0.213 A 
HETATM    4  C3  UNL     1      23.483   3.615  52.622  1.00  0.00     0.020 C 
HETATM    5  C4  UNL     1      23.419   2.176  52.854  1.00  0.00     0.009 C 
HETATM    6  C5  UNL     1      24.072   1.308  52.032  1.00  0.00    -0.021 C 
HETATM    7  C6  UNL     1      25.483   1.869  51.992  1.00  0.00     0.078 C 
HETATM    8  C7  UNL     1      25.445   3.174  51.212  1.00  0.00    -0.030 C 
HETATM    9  C8  UNL     1      26.400   3.400  50.275  1.00  0.00     0.050 C 
HETATM   10  C9  UNL     1      26.293   4.529  49.299  1.00  0.00     0.123 C 
HETATM   11 CL1  UNL     1      27.867   4.705  48.532  1.00  0.00    -0.063 Cl
HETATM   12  N2  UNL     1      25.428   5.405  48.844  1.00  0.00    -0.241 NA
HETATM   13  C10 UNL     1      24.016   5.357  49.202  1.00  0.00     0.330 A 
HETATM   14  C11 UNL     1      23.075   6.359  48.911  1.00  0.00     0.047 C 
HETATM   15  C12 UNL     1      21.813   5.884  49.160  1.00  0.00     0.117 C 
HETATM   16  N3  UNL     1      21.313   4.684  49.616  1.00  0.00    -0.257 NA
HETATM   17  C13 UNL     1      20.818   3.644  49.056  1.00  0.00     0.202 C 
HETATM   18  N4  UNL     1      20.306   2.402  49.620  1.00  0.00    -0.381 N 
HETATM   19  C14 UNL     1      20.929   1.150  49.884  1.00  0.00     0.150 C 
HETATM   20  C15 UNL     1      21.930   0.916  50.886  1.00  0.00     0.030 C 
HETATM   21  C16 UNL     1      22.779   0.571  51.904  1.00  0.00     0.083 C 
HETATM   22  H1  UNL     1      23.759   3.282  50.306  1.00  0.00     0.286 HD
HETATM   23  H11 UNL     1      19.341   2.780  49.748  1.00  0.00     0.160 HD
ENDROOT
BRANCH  21  24
HETATM   24  O1  UNL     1      22.548  -0.433  52.859  1.00  0.00    -0.277 OA
BRANCH  24  25
HETATM   25  C17 UNL     1      21.282  -0.724  53.302  1.00  0.00     0.292 C 
HETATM   26  O2  UNL     1      21.825  -1.735  53.871  1.00  0.00    -0.262 OA
BRANCH  25  27
HETATM   27  C18 UNL     1      19.829  -0.488  53.429  1.00  0.00     0.333 C 
HETATM   28  F1  UNL     1      19.282  -1.734  53.762  1.00  0.00    -0.245 F 
ENDBRANCH  25  27
ENDBRANCH  24  25
ENDBRANCH  21  24
TORSDOF 3
ENDMDL
MODEL 8
REMARK VINA RESULT:      -7.4      9.091     10.792
REMARK  3 active torsions:
REMARK  status: ('A' for Active; 'I' for Inactive)
REMARK    1  A    between atoms: C16_21  and  O1_22 
REMARK    2  A    between atoms: O1_22  and  C17_23 
REMARK    3  A    between atoms: C17_23  and  C18_25 
ROOT
HETATM    1  N1  UNL     1      30.000   9.505  48.076  1.00  0.00    -0.008 N 
HETATM    2  C1  UNL     1      30.432  10.426  48.767  1.00  0.00     0.260 A 
HETATM    3  C2  UNL     1      31.356   9.233  48.782  1.00  0.00     0.213 A 
HETATM    4  C3  UNL     1      31.727   8.304  49.666  1.00  0.00     0.020 C 
HETATM    5  C4  UNL     1      32.123   6.989  49.173  1.00  0.00     0.009 C 
HETATM    6  C5  UNL     1      32.114   6.712  47.839  1.00  0.00    -0.021 C 
HETATM    7  C6  UNL     1      32.907   7.863  47.245  1.00  0.00     0.078 C 
HETATM    8  C7  UNL     1      32.067   9.126  47.376  1.00  0.00    -0.030 C 
HETATM    9  C8  UNL     1      31.968   9.956  46.307  1.00  0.00     0.050 C 
HETATM   10  C9  UNL     1      30.974  11.072  46.268  1.00  0.00     0.123 C 
HETATM   11 CL1  UNL     1      31.415  12.115  44.921  1.00  0.00    -0.063 Cl
HETATM   12  N2  UNL     1      29.910  11.513  46.898  1.00  0.00    -0.241 NA
HETATM   13  C10 UNL     1      29.252  10.739  47.943  1.00  0.00     0.330 A 
HETATM   14  C11 UNL     1      28.235  11.219  48.785  1.00  0.00     0.047 C 
HETATM   15  C12 UNL     1      27.677  10.170  49.468  1.00  0.00     0.117 C 
HETATM   16  N3  UNL     1      27.906   8.812  49.492  1.00  0.00    -0.257 NA
HETATM   17  C13 UNL     1      27.366   7.797  48.927  1.00  0.00     0.202 C 
HETATM   18  N4  UNL     1      27.673   6.375  49.008  1.00  0.00    -0.381 N 
HETATM   19  C14 UNL     1      28.509   5.536  48.219  1.00  0.00     0.150 C 
HETATM   20  C15 UNL     1      29.942   5.602  48.171  1.00  0.00     0.030 C 
HETATM   21  C16 UNL     1      31.309   5.499  48.170  1.00  0.00     0.083 C 
HETATM   22  H1  UNL     1      30.278   8.611  47.833  1.00  0.00     0.286 HD
HETATM   23  H11 UNL     1      27.063   6.223  49.842  1.00  0.00     0.160 HD
ENDROOT
BRANCH  21  24
HETATM   24  O1  UNL     1      32.041   4.334  48.455  1.00  0.00    -0.277 OA
BRANCH  24  25
HETATM   25  C17 UNL     1      33.083   3.929  47.659  1.00  0.00     0.292 C 
HETATM   26  O2  UNL     1      32.199   3.252  47.025  1.00  0.00    -0.262 OA
BRANCH  25  27
HETATM   27  C18 UNL     1      34.498   3.891  47.234  1.00  0.00     0.333 C 
HETATM   28  F1  UNL     1      35.031   5.127  47.618  1.00  0.00    -0.245 F 
ENDBRANCH  25  27
ENDBRANCH  24  25
ENDBRANCH  21  24
TORSDOF 3
ENDMDL
MODEL 9
REMARK VINA RESULT:      -7.3      3.005      4.708
REMARK  3 active torsions:
REMARK  status: ('A' for Active; 'I' for Inactive)
REMARK    1  A    between atoms: C16_21  and  O1_22 
REMARK    2  A    between atoms: O1_22  and  C17_23 
REMARK    3  A    between atoms: C17_23  and  C18_25 
ROOT
HETATM    1  N1  UNL     1      20.757   3.396  50.737  1.00  0.00    -0.008 N 
HETATM    2  C1  UNL     1      20.249   3.169  49.639  1.00  0.00     0.260 A 
HETATM    3  C2  UNL     1      20.635   1.896  50.352  1.00  0.00     0.213 A 
HETATM    4  C3  UNL     1      21.555   0.941  50.201  1.00  0.00     0.020 C 
HETATM    5  C4  UNL     1      22.029   0.234  51.386  1.00  0.00     0.009 C 
HETATM    6  C5  UNL     1      21.545   0.542  52.622  1.00  0.00    -0.021 C 
HETATM    7  C6  UNL     1      20.041   0.486  52.426  1.00  0.00     0.078 C 
HETATM    8  C7  UNL     1      19.639   1.668  51.556  1.00  0.00    -0.030 C 
HETATM    9  C8  UNL     1      18.560   2.406  51.918  1.00  0.00     0.050 C 
HETATM   10  C9  UNL     1      18.249   3.717  51.269  1.00  0.00     0.123 C 
HETATM   11 CL1  UNL     1      16.610   4.155  51.737  1.00  0.00    -0.063 Cl
HETATM   12  N2  UNL     1      18.790   4.620  50.485  1.00  0.00    -0.241 NA
HETATM   13  C10 UNL     1      20.194   4.568  50.096  1.00  0.00     0.330 A 
HETATM   14  C11 UNL     1      20.792   5.381  49.120  1.00  0.00     0.047 C 
HETATM   15  C12 UNL     1      22.155   5.246  49.188  1.00  0.00     0.117 C 
HETATM   16  N3  UNL     1      23.007   4.509  49.980  1.00  0.00    -0.257 NA
HETATM   17  C13 UNL     1      23.697   4.754  51.030  1.00  0.00     0.202 C 
HETATM   18  N4  UNL     1      24.584   3.907  51.817  1.00  0.00    -0.381 N 
HETATM   19  C14 UNL     1      24.355   3.095  52.963  1.00  0.00     0.150 C 
HETATM   20  C15 UNL     1      23.572   1.892  52.984  1.00  0.00     0.030 C 
HETATM   21  C16 UNL     1      22.966   0.665  53.067  1.00  0.00     0.083 C 
HETATM   22  H1  UNL     1      21.121   2.880  51.468  1.00  0.00     0.286 HD
HETATM   23  H11 UNL     1      25.420   4.122  51.229  1.00  0.00     0.160 HD
ENDROOT
BRANCH  21  24
HETATM   24  O1  UNL     1      23.565  -0.513  53.543  1.00  0.00    -0.277 OA
BRANCH  24  25
HETATM   25  C17 UNL     1      24.926  -0.685  53.525  1.00  0.00     0.292 C 
HETATM   26  O2  UNL     1      24.814  -0.880  54.786  1.00  0.00    -0.262 OA
BRANCH  25  27
HETATM   27  C18 UNL     1      26.252  -0.746  52.876  1.00  0.00     0.333 C 
HETATM   28  F1  UNL     1      26.151   0.086  51.754  1.00  0.00    -0.245 F 
ENDBRANCH  25  27
ENDBRANCH  24  25
ENDBRANCH  21  24
TORSDOF 3
ENDMDL
