MODEL 1
REMARK VINA RESULT:      -7.3      0.000      0.000
REMARK  5 active torsions:
REMARK  status: ('A' for Active; 'I' for Inactive)
REMARK    1  A    between atoms: N1_1  and  C1_2 
REMARK    2  A    between atoms: N4_10  and  C7_11 
REMARK    3  A    between atoms: C7_11  and  C8_12 
REMARK    4  A    between atoms: C8_12  and  C9_13 
REMARK    5  A    between atoms: C10_14  and  C11_16 
ROOT
HETATM    1  C1  UNL     1      23.289   4.663  51.328  1.00  0.00     0.718 C 
HETATM    2  N2  UNL     1      24.390   5.059  50.814  1.00  0.00    -0.086 NA
HETATM    3  C2  UNL     1      25.398   4.288  50.177  1.00  0.00     0.290 C 
HETATM    4  N3  UNL     1      26.271   3.549  51.069  1.00  0.00    -0.371 N 
HETATM    5  C3  UNL     1      25.883   2.526  51.977  1.00  0.00     0.030 C 
HETATM    6  C4  UNL     1      24.970   2.233  52.880  1.00  0.00     0.038 C 
HETATM    7  C5  UNL     1      24.278   0.967  52.664  1.00  0.00    -0.036 C 
HETATM    8  C6  UNL     1      23.118   0.599  52.149  1.00  0.00     0.099 C 
HETATM    9  N4  UNL     1      22.182   1.506  51.627  1.00  0.00    -0.350 N 
HETATM   10  C12 UNL     1      22.073   2.809  52.194  1.00  0.00     0.229 C 
HETATM   11  N5  UNL     1      22.921   3.299  51.323  1.00  0.00    -0.059 NA
HETATM   12  C13 UNL     1      25.250  -0.015  53.208  1.00  0.00     0.086 C 
HETATM   13  C14 UNL     1      26.633   0.276  52.681  1.00  0.00    -0.005 C 
HETATM   14 BR1  UNL     1      28.033  -0.931  53.150  1.00  0.00    -0.055 Br
HETATM   15  C15 UNL     1      26.797   1.360  51.920  1.00  0.00     0.044 C 
HETATM   16  H5  UNL     1      27.288   3.788  51.053  1.00  0.00     0.161 HD
ENDROOT
BRANCH   9  17
HETATM   17  C7  UNL     1      21.349   1.111  50.531  1.00  0.00     0.133 C 
BRANCH  17  18
HETATM   18  C8  UNL     1      19.901   1.364  50.924  1.00  0.00     0.049 C 
BRANCH  18  19
HETATM   19  C9  UNL     1      19.395   0.322  51.820  1.00  0.00    -0.005 C 
HETATM   20  C10 UNL     1      19.317  -0.409  52.929  1.00  0.00     0.021 C 
HETATM   21 CL1  UNL     1      18.297  -1.762  53.458  1.00  0.00    -0.088 Cl
BRANCH  20  22
HETATM   22  C11 UNL     1      20.215  -0.184  54.109  1.00  0.00     0.165 C 
HETATM   23 CL2  UNL     1      21.228  -1.641  54.337  1.00  0.00    -0.125 Cl
ENDBRANCH  20  22
ENDBRANCH  18  19
ENDBRANCH  17  18
ENDBRANCH   9  17
BRANCH   1  24
HETATM   24  N1  UNL     1      22.491   5.699  51.894  1.00  0.00    -0.231 N 
HETATM   25  H1  UNL     1      22.542   5.728  52.936  1.00  0.00     0.174 HD
HETATM   26  H2  UNL     1      21.844   6.499  51.882  1.00  0.00     0.174 HD
ENDBRANCH   1  24
TORSDOF 5
ENDMDL
MODEL 2
REMARK VINA RESULT:      -7.3      4.710      7.321
REMARK  5 active torsions:
REMARK  status: ('A' for Active; 'I' for Inactive)
REMARK    1  A    between atoms: N1_1  and  C1_2 
REMARK    2  A    between atoms: N4_10  and  C7_11 
REMARK    3  A    between atoms: C7_11  and  C8_12 
REMARK    4  A    between atoms: C8_12  and  C9_13 
REMARK    5  A    between atoms: C10_14  and  C11_16 
ROOT
HETATM    1  C1  UNL     1      28.267   0.627  53.016  1.00  0.00     0.718 C 
HETATM    2  N2  UNL     1      28.158  -0.618  53.278  1.00  0.00    -0.086 NA
HETATM    3  C2  UNL     1      27.163  -1.532  52.838  1.00  0.00     0.290 C 
HETATM    4  N3  UNL     1      25.890  -1.444  53.528  1.00  0.00    -0.371 N 
HETATM    5  C3  UNL     1      25.023  -0.317  53.561  1.00  0.00     0.030 C 
HETATM    6  C4  UNL     1      25.027   0.990  53.727  1.00  0.00     0.038 C 
HETATM    7  C5  UNL     1      24.389   1.745  52.653  1.00  0.00    -0.036 C 
HETATM    8  C6  UNL     1      24.803   2.415  51.592  1.00  0.00     0.099 C 
HETATM    9  N4  UNL     1      26.157   2.545  51.242  1.00  0.00    -0.350 N 
HETATM   10  C12 UNL     1      27.148   2.589  52.266  1.00  0.00     0.229 C 
HETATM   11  N5  UNL     1      27.333   1.293  52.193  1.00  0.00    -0.059 NA
HETATM   12  C13 UNL     1      22.950   1.622  52.999  1.00  0.00     0.086 C 
HETATM   13  C14 UNL     1      22.613   0.187  53.319  1.00  0.00    -0.005 C 
HETATM   14 BR1  UNL     1      20.789  -0.237  53.677  1.00  0.00    -0.055 Br
HETATM   15  C15 UNL     1      23.610  -0.701  53.333  1.00  0.00     0.044 C 
HETATM   16  H5  UNL     1      25.572  -2.285  54.059  1.00  0.00     0.161 HD
ENDROOT
BRANCH   9  17
HETATM   17  C7  UNL     1      26.525   2.633  49.860  1.00  0.00     0.133 C 
BRANCH  17  18
HETATM   18  C8  UNL     1      26.147   4.018  49.358  1.00  0.00     0.049 C 
BRANCH  18  19
HETATM   19  C9  UNL     1      27.305   4.728  48.812  1.00  0.00    -0.005 C 
HETATM   20  C10 UNL     1      28.033   5.773  48.428  1.00  0.00     0.021 C 
HETATM   21 CL1  UNL     1      29.648   5.973  47.719  1.00  0.00    -0.088 Cl
BRANCH  20  22
HETATM   22  C11 UNL     1      27.541   7.185  48.543  1.00  0.00     0.165 C 
HETATM   23 CL2  UNL     1      25.930   7.290  47.770  1.00  0.00    -0.125 Cl
ENDBRANCH  20  22
ENDBRANCH  18  19
ENDBRANCH  17  18
ENDBRANCH   9  17
BRANCH   1  24
HETATM   24  N1  UNL     1      29.390   1.265  53.620  1.00  0.00    -0.231 N 
HETATM   25  H1  UNL     1      29.525   2.246  53.293  1.00  0.00     0.174 HD
HETATM   26  H2  UNL     1      30.210   1.334  54.237  1.00  0.00     0.174 HD
ENDBRANCH   1  24
TORSDOF 5
ENDMDL
MODEL 3
REMARK VINA RESULT:      -7.1      3.378      4.015
REMARK  5 active torsions:
REMARK  status: ('A' for Active; 'I' for Inactive)
REMARK    1  A    between atoms: N1_1  and  C1_2 
REMARK    2  A    between atoms: N4_10  and  C7_11 
REMARK    3  A    between atoms: C7_11  and  C8_12 
REMARK    4  A    between atoms: C8_12  and  C9_13 
REMARK    5  A    between atoms: C10_14  and  C11_16 
ROOT
HETATM    1  C1  UNL     1      23.655   5.203  51.053  1.00  0.00     0.718 C 
HETATM    2  N2  UNL     1      24.810   5.392  50.542  1.00  0.00    -0.086 NA
HETATM    3  C2  UNL     1      25.662   4.451  49.905  1.00  0.00     0.290 C 
HETATM    4  N3  UNL     1      26.384   3.564  50.798  1.00  0.00    -0.371 N 
HETATM    5  C3  UNL     1      25.814   2.628  51.702  1.00  0.00     0.030 C 
HETATM    6  C4  UNL     1      24.861   2.505  52.604  1.00  0.00     0.038 C 
HETATM    7  C5  UNL     1      23.950   1.386  52.384  1.00  0.00    -0.036 C 
HETATM    8  C6  UNL     1      22.744   1.237  51.865  1.00  0.00     0.099 C 
HETATM    9  N4  UNL     1      21.990   2.300  51.343  1.00  0.00    -0.350 N 
HETATM   10  C12 UNL     1      22.119   3.601  51.913  1.00  0.00     0.229 C 
HETATM   11  N5  UNL     1      23.044   3.929  51.044  1.00  0.00    -0.059 NA
HETATM   12  C13 UNL     1      24.725   0.243  52.927  1.00  0.00     0.086 C 
HETATM   13  C14 UNL     1      26.139   0.278  52.404  1.00  0.00    -0.005 C 
HETATM   14 BR1  UNL     1      27.294  -1.165  52.872  1.00  0.00    -0.055 Br
HETATM   15  C15 UNL     1      26.500   1.315  51.645  1.00  0.00     0.044 C 
HETATM   16  H5  UNL     1      27.428   3.613  50.784  1.00  0.00     0.161 HD
ENDROOT
BRANCH   9  17
HETATM   17  C7  UNL     1      21.100   2.066  50.245  1.00  0.00     0.133 C 
BRANCH  17  18
HETATM   18  C8  UNL     1      21.889   1.385  49.137  1.00  0.00     0.049 C 
BRANCH  18  19
HETATM   19  C9  UNL     1      21.915   2.196  47.917  1.00  0.00    -0.005 C 
HETATM   20  C10 UNL     1      21.836   3.298  47.176  1.00  0.00     0.021 C 
HETATM   21 CL1  UNL     1      21.997   3.646  45.443  1.00  0.00    -0.088 Cl
BRANCH  20  22
HETATM   22  C11 UNL     1      21.555   4.648  47.765  1.00  0.00     0.165 C 
HETATM   23 CL2  UNL     1      22.948   5.718  47.421  1.00  0.00    -0.125 Cl
ENDBRANCH  20  22
ENDBRANCH  18  19
ENDBRANCH  17  18
ENDBRANCH   9  17
BRANCH   1  24
HETATM   24  N1  UNL     1      23.058   6.366  51.620  1.00  0.00    -0.231 N 
HETATM   25  H1  UNL     1      22.021   6.289  51.710  1.00  0.00     0.174 HD
HETATM   26  H2  UNL     1      23.045   7.312  52.025  1.00  0.00     0.174 HD
ENDBRANCH   1  24
TORSDOF 5
ENDMDL
MODEL 4
REMARK VINA RESULT:      -6.8      0.895      1.476
REMARK  5 active torsions:
REMARK  status: ('A' for Active; 'I' for Inactive)
REMARK    1  A    between atoms: N1_1  and  C1_2 
REMARK    2  A    between atoms: N4_10  and  C7_11 
REMARK    3  A    between atoms: C7_11  and  C8_12 
REMARK    4  A    between atoms: C8_12  and  C9_13 
REMARK    5  A    between atoms: C10_14  and  C11_16 
ROOT
HETATM    1  C1  UNL     1      23.146   4.690  51.360  1.00  0.00     0.718 C 
HETATM    2  N2  UNL     1      24.240   5.086  50.833  1.00  0.00    -0.086 NA
HETATM    3  C2  UNL     1      25.238   4.315  50.179  1.00  0.00     0.290 C 
HETATM    4  N3  UNL     1      26.122   3.570  51.055  1.00  0.00    -0.371 N 
HETATM    5  C3  UNL     1      25.743   2.545  51.964  1.00  0.00     0.030 C 
HETATM    6  C4  UNL     1      24.842   2.250  52.879  1.00  0.00     0.038 C 
HETATM    7  C5  UNL     1      24.144   0.986  52.667  1.00  0.00    -0.036 C 
HETATM    8  C6  UNL     1      22.976   0.623  52.165  1.00  0.00     0.099 C 
HETATM    9  N4  UNL     1      22.035   1.534  51.661  1.00  0.00    -0.350 N 
HETATM   10  C12 UNL     1      21.937   2.836  52.235  1.00  0.00     0.229 C 
HETATM   11  N5  UNL     1      22.774   3.328  51.354  1.00  0.00    -0.059 NA
HETATM   12  C13 UNL     1      25.121  -0.000  53.192  1.00  0.00     0.086 C 
HETATM   13  C14 UNL     1      26.497   0.290  52.648  1.00  0.00    -0.005 C 
HETATM   14 BR1  UNL     1      27.900  -0.923  53.092  1.00  0.00    -0.055 Br
HETATM   15  C15 UNL     1      26.653   1.377  51.890  1.00  0.00     0.044 C 
HETATM   16  H5  UNL     1      27.139   3.807  51.026  1.00  0.00     0.161 HD
ENDROOT
BRANCH   9  17
HETATM   17  C7  UNL     1      21.186   1.146  50.574  1.00  0.00     0.133 C 
BRANCH  17  18
HETATM   18  C8  UNL     1      19.746   1.424  50.979  1.00  0.00     0.049 C 
BRANCH  18  19
HETATM   19  C9  UNL     1      19.192   0.333  51.785  1.00  0.00    -0.005 C 
HETATM   20  C10 UNL     1      18.266  -0.506  52.240  1.00  0.00     0.021 C 
HETATM   21 CL1  UNL     1      18.258  -1.824  53.430  1.00  0.00    -0.088 Cl
BRANCH  20  22
HETATM   22  C11 UNL     1      16.848  -0.484  51.754  1.00  0.00     0.165 C 
HETATM   23 CL2  UNL     1      16.008  -1.932  52.388  1.00  0.00    -0.125 Cl
ENDBRANCH  20  22
ENDBRANCH  18  19
ENDBRANCH  17  18
ENDBRANCH   9  17
BRANCH   1  24
HETATM   24  N1  UNL     1      22.359   5.726  51.942  1.00  0.00    -0.231 N 
HETATM   25  H1  UNL     1      22.448   5.770  52.981  1.00  0.00     0.174 HD
HETATM   26  H2  UNL     1      21.702   6.518  51.943  1.00  0.00     0.174 HD
ENDBRANCH   1  24
TORSDOF 5
ENDMDL
MODEL 5
REMARK VINA RESULT:      -6.6      4.344      6.710
REMARK  5 active torsions:
REMARK  status: ('A' for Active; 'I' for Inactive)
REMARK    1  A    between atoms: N1_1  and  C1_2 
REMARK    2  A    between atoms: N4_10  and  C7_11 
REMARK    3  A    between atoms: C7_11  and  C8_12 
REMARK    4  A    between atoms: C8_12  and  C9_13 
REMARK    5  A    between atoms: C10_14  and  C11_16 
ROOT
HETATM    1  C1  UNL     1      26.094   1.703  53.244  1.00  0.00     0.718 C 
HETATM    2  N2  UNL     1      26.090   0.466  53.562  1.00  0.00    -0.086 NA
HETATM    3  C2  UNL     1      25.361  -0.599  52.970  1.00  0.00     0.290 C 
HETATM    4  N3  UNL     1      23.959  -0.670  53.335  1.00  0.00    -0.371 N 
HETATM    5  C3  UNL     1      22.969   0.318  53.084  1.00  0.00     0.030 C 
HETATM    6  C4  UNL     1      22.759   1.617  53.151  1.00  0.00     0.038 C 
HETATM    7  C5  UNL     1      22.305   2.230  51.907  1.00  0.00    -0.036 C 
HETATM    8  C6  UNL     1      22.871   2.911  50.926  1.00  0.00     0.099 C 
HETATM    9  N4  UNL     1      24.239   3.223  50.892  1.00  0.00    -0.350 N 
HETATM   10  C12 UNL     1      24.940   3.450  52.113  1.00  0.00     0.229 C 
HETATM   11  N5  UNL     1      25.306   2.193  52.180  1.00  0.00    -0.059 NA
HETATM   12  C13 UNL     1      20.855   1.912  51.916  1.00  0.00     0.086 C 
HETATM   13  C14 UNL     1      20.643   0.457  52.251  1.00  0.00    -0.005 C 
HETATM   14 BR1  UNL     1      18.859  -0.214  52.204  1.00  0.00    -0.055 Br
HETATM   15  C15 UNL     1      21.715  -0.276  52.562  1.00  0.00     0.044 C 
HETATM   16  H5  UNL     1      23.636  -1.528  53.837  1.00  0.00     0.161 HD
ENDROOT
BRANCH   9  17
HETATM   17  C7  UNL     1      24.915   3.310  49.632  1.00  0.00     0.133 C 
BRANCH  17  18
HETATM   18  C8  UNL     1      24.400   4.543  48.905  1.00  0.00     0.049 C 
BRANCH  18  19
HETATM   19  C9  UNL     1      25.126   5.749  49.309  1.00  0.00    -0.005 C 
HETATM   20  C10 UNL     1      26.098   6.657  49.296  1.00  0.00     0.021 C 
HETATM   21 CL1  UNL     1      26.429   8.140  50.214  1.00  0.00    -0.088 Cl
BRANCH  20  22
HETATM   22  C11 UNL     1      27.266   6.575  48.359  1.00  0.00     0.165 C 
HETATM   23 CL2  UNL     1      27.992   4.945  48.499  1.00  0.00    -0.125 Cl
ENDBRANCH  20  22
ENDBRANCH  18  19
ENDBRANCH  17  18
ENDBRANCH   9  17
BRANCH   1  24
HETATM   24  N1  UNL     1      26.944   2.520  54.045  1.00  0.00    -0.231 N 
HETATM   25  H1  UNL     1      26.568   3.483  54.185  1.00  0.00     0.174 HD
HETATM   26  H2  UNL     1      27.775   2.737  54.612  1.00  0.00     0.174 HD
ENDBRANCH   1  24
TORSDOF 5
ENDMDL
MODEL 6
REMARK VINA RESULT:      -6.6      2.169      2.268
REMARK  5 active torsions:
REMARK  status: ('A' for Active; 'I' for Inactive)
REMARK    1  A    between atoms: N1_1  and  C1_2 
REMARK    2  A    between atoms: N4_10  and  C7_11 
REMARK    3  A    between atoms: C7_11  and  C8_12 
REMARK    4  A    between atoms: C8_12  and  C9_13 
REMARK    5  A    between atoms: C10_14  and  C11_16 
ROOT
HETATM    1  C1  UNL     1      23.837   5.280  51.103  1.00  0.00     0.718 C 
HETATM    2  N2  UNL     1      24.986   5.424  50.563  1.00  0.00    -0.086 NA
HETATM    3  C2  UNL     1      25.785   4.450  49.908  1.00  0.00     0.290 C 
HETATM    4  N3  UNL     1      26.496   3.539  50.784  1.00  0.00    -0.371 N 
HETATM    5  C3  UNL     1      25.913   2.626  51.706  1.00  0.00     0.030 C 
HETATM    6  C4  UNL     1      24.979   2.541  52.632  1.00  0.00     0.038 C 
HETATM    7  C5  UNL     1      24.022   1.458  52.438  1.00  0.00    -0.036 C 
HETATM    8  C6  UNL     1      22.798   1.353  51.951  1.00  0.00     0.099 C 
HETATM    9  N4  UNL     1      22.072   2.443  51.445  1.00  0.00    -0.350 N 
HETATM   10  C12 UNL     1      22.265   3.739  52.007  1.00  0.00     0.229 C 
HETATM   11  N5  UNL     1      23.179   4.030  51.114  1.00  0.00    -0.059 NA
HETATM   12  C13 UNL     1      24.767   0.287  52.965  1.00  0.00     0.086 C 
HETATM   13  C14 UNL     1      26.167   0.267  52.406  1.00  0.00    -0.005 C 
HETATM   14 BR1  UNL     1      27.279  -1.218  52.850  1.00  0.00    -0.055 Br
HETATM   15  C15 UNL     1      26.548   1.288  51.636  1.00  0.00     0.044 C 
HETATM   16  H5  UNL     1      27.540   3.548  50.744  1.00  0.00     0.161 HD
ENDROOT
BRANCH   9  17
HETATM   17  C7  UNL     1      21.147   2.240  50.370  1.00  0.00     0.133 C 
BRANCH  17  18
HETATM   18  C8  UNL     1      20.526   0.861  50.536  1.00  0.00     0.049 C 
BRANCH  18  19
HETATM   19  C9  UNL     1      19.116   0.853  50.140  1.00  0.00    -0.005 C 
HETATM   20  C10 UNL     1      17.813   1.100  50.243  1.00  0.00     0.021 C 
HETATM   21 CL1  UNL     1      16.397   0.757  49.228  1.00  0.00    -0.088 Cl
BRANCH  20  22
HETATM   22  C11 UNL     1      17.218   1.823  51.415  1.00  0.00     0.165 C 
HETATM   23 CL2  UNL     1      17.945   3.457  51.501  1.00  0.00    -0.125 Cl
ENDBRANCH  20  22
ENDBRANCH  18  19
ENDBRANCH  17  18
ENDBRANCH   9  17
BRANCH   1  24
HETATM   24  N1  UNL     1      23.300   6.466  51.682  1.00  0.00    -0.231 N 
HETATM   25  H1  UNL     1      22.360   6.714  51.302  1.00  0.00     0.174 HD
HETATM   26  H2  UNL     1      23.290   7.287  52.302  1.00  0.00     0.174 HD
ENDBRANCH   1  24
TORSDOF 5
ENDMDL
MODEL 7
REMARK VINA RESULT:      -6.4      4.285      6.127
REMARK  5 active torsions:
REMARK  status: ('A' for Active; 'I' for Inactive)
REMARK    1  A    between atoms: N1_1  and  C1_2 
REMARK    2  A    between atoms: N4_10  and  C7_11 
REMARK    3  A    between atoms: C7_11  and  C8_12 
REMARK    4  A    between atoms: C8_12  and  C9_13 
REMARK    5  A    between atoms: C10_14  and  C11_16 
ROOT
HETATM    1  C1  UNL     1      25.974   6.745  49.967  1.00  0.00     0.718 C 
HETATM    2  N2  UNL     1      25.108   7.578  50.399  1.00  0.00    -0.086 NA
HETATM    3  C2  UNL     1      23.874   7.316  51.050  1.00  0.00     0.290 C 
HETATM    4  N3  UNL     1      22.791   6.895  50.182  1.00  0.00    -0.371 N 
HETATM    5  C3  UNL     1      22.761   5.725  49.375  1.00  0.00     0.030 C 
HETATM    6  C4  UNL     1      23.497   5.024  48.538  1.00  0.00     0.038 C 
HETATM    7  C5  UNL     1      23.641   3.613  48.882  1.00  0.00    -0.036 C 
HETATM    8  C6  UNL     1      24.562   2.873  49.475  1.00  0.00     0.099 C 
HETATM    9  N4  UNL     1      25.772   3.392  49.964  1.00  0.00    -0.350 N 
HETATM   10  C12 UNL     1      26.384   4.496  49.302  1.00  0.00     0.229 C 
HETATM   11  N5  UNL     1      25.784   5.351  50.095  1.00  0.00    -0.059 NA
HETATM   12  C13 UNL     1      22.370   3.038  48.376  1.00  0.00     0.086 C 
HETATM   13  C14 UNL     1      21.203   3.886  48.817  1.00  0.00    -0.005 C 
HETATM   14 BR1  UNL     1      19.449   3.276  48.385  1.00  0.00    -0.055 Br
HETATM   15  C15 UNL     1      21.466   5.012  49.483  1.00  0.00     0.044 C 
HETATM   16  H5  UNL     1      21.946   7.508  50.135  1.00  0.00     0.161 HD
ENDROOT
BRANCH   9  17
HETATM   17  C7  UNL     1      26.376   2.805  51.123  1.00  0.00     0.133 C 
BRANCH  17  18
HETATM   18  C8  UNL     1      25.365   1.860  51.755  1.00  0.00     0.049 C 
BRANCH  18  19
HETATM   19  C9  UNL     1      25.958   0.551  52.041  1.00  0.00    -0.005 C 
HETATM   20  C10 UNL     1      26.801  -0.319  52.590  1.00  0.00     0.021 C 
HETATM   21 CL1  UNL     1      27.005  -2.080  52.502  1.00  0.00    -0.088 Cl
BRANCH  20  22
HETATM   22  C11 UNL     1      27.898   0.099  53.523  1.00  0.00     0.165 C 
HETATM   23 CL2  UNL     1      29.295  -0.994  53.284  1.00  0.00    -0.125 Cl
ENDBRANCH  20  22
ENDBRANCH  18  19
ENDBRANCH  17  18
ENDBRANCH   9  17
BRANCH   1  24
HETATM   24  N1  UNL     1      27.117   7.338  49.356  1.00  0.00    -0.231 N 
HETATM   25  H1  UNL     1      26.869   8.039  48.624  1.00  0.00     0.174 HD
HETATM   26  H2  UNL     1      28.121   7.496  49.198  1.00  0.00     0.174 HD
ENDBRANCH   1  24
TORSDOF 5
ENDMDL
MODEL 8
REMARK VINA RESULT:      -6.4      4.381      5.491
REMARK  5 active torsions:
REMARK  status: ('A' for Active; 'I' for Inactive)
REMARK    1  A    between atoms: N1_1  and  C1_2 
REMARK    2  A    between atoms: N4_10  and  C7_11 
REMARK    3  A    between atoms: C7_11  and  C8_12 
REMARK    4  A    between atoms: C8_12  and  C9_13 
REMARK    5  A    between atoms: C10_14  and  C11_16 
ROOT
HETATM    1  C1  UNL     1      25.840   3.639  50.374  1.00  0.00     0.718 C 
HETATM    2  N2  UNL     1      26.763   2.944  50.917  1.00  0.00    -0.086 NA
HETATM    3  C2  UNL     1      26.765   1.557  51.223  1.00  0.00     0.290 C 
HETATM    4  N3  UNL     1      26.014   1.181  52.405  1.00  0.00    -0.371 N 
HETATM    5  C3  UNL     1      24.618   1.356  52.611  1.00  0.00     0.030 C 
HETATM    6  C4  UNL     1      23.651   2.239  52.468  1.00  0.00     0.038 C 
HETATM    7  C5  UNL     1      22.500   1.769  51.704  1.00  0.00    -0.036 C 
HETATM    8  C6  UNL     1      22.075   1.896  50.460  1.00  0.00     0.099 C 
HETATM    9  N4  UNL     1      22.765   2.626  49.478  1.00  0.00    -0.350 N 
HETATM   10  C12 UNL     1      23.521   3.775  49.857  1.00  0.00     0.229 C 
HETATM   11  N5  UNL     1      24.612   3.060  49.985  1.00  0.00    -0.059 NA
HETATM   12  C13 UNL     1      21.750   0.990  52.721  1.00  0.00     0.086 C 
HETATM   13  C14 UNL     1      22.685   0.069  53.464  1.00  0.00    -0.005 C 
HETATM   14 BR1  UNL     1      21.924  -1.124  54.743  1.00  0.00    -0.055 Br
HETATM   15  C15 UNL     1      23.988   0.143  53.185  1.00  0.00     0.044 C 
HETATM   16  H5  UNL     1      26.543   0.741  53.191  1.00  0.00     0.161 HD
ENDROOT
BRANCH   9  17
HETATM   17  C7  UNL     1      22.702   2.208  48.110  1.00  0.00     0.133 C 
BRANCH  17  18
HETATM   18  C8  UNL     1      21.465   2.833  47.482  1.00  0.00     0.049 C 
BRANCH  18  19
HETATM   19  C9  UNL     1      21.808   3.991  46.653  1.00  0.00    -0.005 C 
HETATM   20  C10 UNL     1      22.106   5.258  46.382  1.00  0.00     0.021 C 
HETATM   21 CL1  UNL     1      22.474   6.160  44.898  1.00  0.00    -0.088 Cl
BRANCH  20  22
HETATM   22  C11 UNL     1      22.197   6.312  47.445  1.00  0.00     0.165 C 
HETATM   23 CL2  UNL     1      23.885   6.903  47.515  1.00  0.00    -0.125 Cl
ENDBRANCH  20  22
ENDBRANCH  18  19
ENDBRANCH  17  18
ENDBRANCH   9  17
BRANCH   1  24
HETATM   24  N1  UNL     1      26.156   5.019  50.205  1.00  0.00    -0.231 N 
HETATM   25  H1  UNL     1      27.160   5.180  49.968  1.00  0.00     0.174 HD
HETATM   26  H2  UNL     1      25.964   6.029  50.175  1.00  0.00     0.174 HD
ENDBRANCH   1  24
TORSDOF 5
ENDMDL
MODEL 9
REMARK VINA RESULT:      -6.2      7.209      9.905
REMARK  5 active torsions:
REMARK  status: ('A' for Active; 'I' for Inactive)
REMARK    1  A    between atoms: N1_1  and  C1_2 
REMARK    2  A    between atoms: N4_10  and  C7_11 
REMARK    3  A    between atoms: C7_11  and  C8_12 
REMARK    4  A    between atoms: C8_12  and  C9_13 
REMARK    5  A    between atoms: C10_14  and  C11_16 
ROOT
HETATM    1  C1  UNL     1      28.692   9.487  47.677  1.00  0.00     0.718 C 
HETATM    2  N2  UNL     1      27.980  10.155  48.500  1.00  0.00    -0.086 NA
HETATM    3  C2  UNL     1      27.524   9.773  49.790  1.00  0.00     0.290 C 
HETATM    4  N3  UNL     1      26.394   8.864  49.806  1.00  0.00    -0.371 N 
HETATM    5  C3  UNL     1      26.359   7.550  49.264  1.00  0.00     0.030 C 
HETATM    6  C4  UNL     1      26.701   6.859  48.196  1.00  0.00     0.038 C 
HETATM    7  C5  UNL     1      27.527   5.686  48.463  1.00  0.00    -0.036 C 
HETATM    8  C6  UNL     1      28.816   5.403  48.403  1.00  0.00     0.099 C 
HETATM    9  N4  UNL     1      29.793   6.330  48.006  1.00  0.00    -0.350 N 
HETATM   10  C12 UNL     1      29.465   7.328  47.041  1.00  0.00     0.229 C 
HETATM   11  N5  UNL     1      29.143   8.183  47.980  1.00  0.00    -0.059 NA
HETATM   12  C13 UNL     1      26.515   4.685  48.888  1.00  0.00     0.086 C 
HETATM   13  C14 UNL     1      25.580   5.290  49.903  1.00  0.00    -0.005 C 
HETATM   14 BR1  UNL     1      24.265   4.153  50.687  1.00  0.00    -0.055 Br
HETATM   15  C15 UNL     1      25.724   6.585  50.194  1.00  0.00     0.044 C 
HETATM   16  H5  UNL     1      25.513   9.200  50.254  1.00  0.00     0.161 HD
ENDROOT
BRANCH   9  17
HETATM   17  C7  UNL     1      31.105   6.263  48.575  1.00  0.00     0.133 C 
BRANCH  17  18
HETATM   18  C8  UNL     1      32.082   5.899  47.467  1.00  0.00     0.049 C 
BRANCH  18  19
HETATM   19  C9  UNL     1      32.025   4.471  47.147  1.00  0.00    -0.005 C 
HETATM   20  C10 UNL     1      32.377   3.189  47.195  1.00  0.00     0.021 C 
HETATM   21 CL1  UNL     1      31.786   1.706  46.418  1.00  0.00    -0.088 Cl
BRANCH  20  22
HETATM   22  C11 UNL     1      33.509   2.694  48.044  1.00  0.00     0.165 C 
HETATM   23 CL2  UNL     1      33.098   1.058  48.640  1.00  0.00    -0.125 Cl
ENDBRANCH  20  22
ENDBRANCH  18  19
ENDBRANCH  17  18
ENDBRANCH   9  17
BRANCH   1  24
HETATM   24  N1  UNL     1      28.979  10.162  46.455  1.00  0.00    -0.231 N 
HETATM   25  H1  UNL     1      29.811   9.772  45.960  1.00  0.00     0.174 HD
HETATM   26  H2  UNL     1      28.838  10.862  45.714  1.00  0.00     0.174 HD
ENDBRANCH   1  24
TORSDOF 5
ENDMDL
