MODEL 1
REMARK VINA RESULT:      -8.2      0.000      0.000
REMARK  3 active torsions:
REMARK  status: ('A' for Active; 'I' for Inactive)
REMARK       I    between atoms: C3_3  and  N1_5 
REMARK    1  A    between atoms: N1_5  and  C4_6 
REMARK    2  A    between atoms: C9_13  and  N4_14 
REMARK    3  A    between atoms: N4_14  and  C10_15 
ROOT
HETATM    1  C1  UNL     1      30.021  -0.857  53.426  1.00  0.00     0.022 C 
HETATM    2  C2  UNL     1      28.831  -0.863  53.614  1.00  0.00    -0.016 C 
HETATM    3  C3  UNL     1      27.402  -0.855  53.822  1.00  0.00     0.300 C 
HETATM    4  O1  UNL     1      26.639  -1.593  53.127  1.00  0.00    -0.258 OA
HETATM    5  N1  UNL     1      26.736  -0.048  54.790  1.00  0.00    -0.316 N 
HETATM    6  H2  UNL     1      27.350   0.574  55.380  1.00  0.00     0.170 HD
ENDROOT
BRANCH   5   7
HETATM    7  C4  UNL     1      25.323  -0.341  54.669  1.00  0.00     0.036 A 
HETATM    8  C5  UNL     1      24.865  -1.128  55.719  1.00  0.00     0.032 A 
HETATM    9  C6  UNL     1      23.523  -1.500  55.760  1.00  0.00     0.035 A 
HETATM   10  C7  UNL     1      22.692  -1.070  54.746  1.00  0.00     0.072 A 
HETATM   11  N2  UNL     1      21.365  -1.389  54.711  1.00  0.00    -0.241 NA
HETATM   12  C16 UNL     1      23.151  -0.287  53.702  1.00  0.00     0.041 A 
HETATM   13  C8  UNL     1      20.560  -0.960  53.712  1.00  0.00     0.236 A 
HETATM   14  N3  UNL     1      21.033  -0.186  52.688  1.00  0.00    -0.224 NA
HETATM   15  C9  UNL     1      22.348   0.164  52.670  1.00  0.00     0.142 A 
HETATM   16  C17 UNL     1      24.482   0.084  53.659  1.00  0.00     0.047 A 
BRANCH  15  17
HETATM   17  N4  UNL     1      22.889   0.970  51.624  1.00  0.00    -0.340 N 
HETATM   18  H6  UNL     1      23.515   0.674  50.830  1.00  0.00     0.167 HD
BRANCH  17  19
HETATM   19  C10 UNL     1      22.527   2.357  51.667  1.00  0.00     0.035 A 
HETATM   20  C11 UNL     1      23.307   3.246  52.400  1.00  0.00     0.029 A 
HETATM   21  C12 UNL     1      22.960   4.594  52.445  1.00  0.00     0.004 A 
HETATM   22  C13 UNL     1      21.855   5.072  51.774  1.00  0.00     0.019 A 
HETATM   23  C14 UNL     1      21.082   4.199  51.048  1.00  0.00     0.013 A 
HETATM   24 BR1  UNL     1      19.564   4.881  50.132  1.00  0.00    -0.051 Br
HETATM   25  C15 UNL     1      21.429   2.868  51.008  1.00  0.00     0.048 A 
ENDBRANCH  17  19
ENDBRANCH  15  17
ENDBRANCH   5   7
TORSDOF 3
ENDMDL
MODEL 2
REMARK VINA RESULT:      -8.1      2.412      3.120
REMARK  3 active torsions:
REMARK  status: ('A' for Active; 'I' for Inactive)
REMARK       I    between atoms: C3_3  and  N1_5 
REMARK    1  A    between atoms: N1_5  and  C4_6 
REMARK    2  A    between atoms: C9_13  and  N4_14 
REMARK    3  A    between atoms: N4_14  and  C10_15 
ROOT
HETATM    1  C1  UNL     1      29.915  -0.901  53.539  1.00  0.00     0.022 C 
HETATM    2  C2  UNL     1      28.762  -0.578  53.409  1.00  0.00    -0.016 C 
HETATM    3  C3  UNL     1      27.386  -0.169  53.250  1.00  0.00     0.300 C 
HETATM    4  O1  UNL     1      26.848  -0.126  52.101  1.00  0.00    -0.258 OA
HETATM    5  N1  UNL     1      26.531   0.211  54.325  1.00  0.00    -0.316 N 
HETATM    6  H2  UNL     1      26.956   0.183  55.290  1.00  0.00     0.170 HD
ENDROOT
BRANCH   5   7
HETATM    7  C4  UNL     1      25.250   0.545  53.737  1.00  0.00     0.036 A 
HETATM    8  C5  UNL     1      24.404  -0.556  53.678  1.00  0.00     0.032 A 
HETATM    9  C6  UNL     1      23.127  -0.408  53.141  1.00  0.00     0.035 A 
HETATM   10  C7  UNL     1      22.748   0.836  52.683  1.00  0.00     0.072 A 
HETATM   11  N2  UNL     1      21.515   1.066  52.144  1.00  0.00    -0.241 NA
HETATM   12  C16 UNL     1      23.593   1.930  52.742  1.00  0.00     0.041 A 
HETATM   13  C8  UNL     1      21.154   2.292  51.699  1.00  0.00     0.236 A 
HETATM   14  N3  UNL     1      22.004   3.362  51.766  1.00  0.00    -0.224 NA
HETATM   15  C9  UNL     1      23.247   3.193  52.295  1.00  0.00     0.142 A 
HETATM   16  C17 UNL     1      24.861   1.788  53.274  1.00  0.00     0.047 A 
BRANCH  15  17
HETATM   17  N4  UNL     1      24.170   4.277  52.387  1.00  0.00    -0.340 N 
HETATM   18  H6  UNL     1      24.680   4.628  53.239  1.00  0.00     0.167 HD
BRANCH  17  19
HETATM   19  C10 UNL     1      24.430   4.968  51.157  1.00  0.00     0.035 A 
HETATM   20  C11 UNL     1      25.301   4.409  50.228  1.00  0.00     0.029 A 
HETATM   21  C12 UNL     1      25.557   5.075  49.033  1.00  0.00     0.004 A 
HETATM   22  C13 UNL     1      24.963   6.285  48.746  1.00  0.00     0.019 A 
HETATM   23  C14 UNL     1      24.102   6.842  49.660  1.00  0.00     0.013 A 
HETATM   24 BR1  UNL     1      23.295   8.511  49.242  1.00  0.00    -0.051 Br
HETATM   25  C15 UNL     1      23.853   6.179  50.840  1.00  0.00     0.048 A 
ENDBRANCH  17  19
ENDBRANCH  15  17
ENDBRANCH   5   7
TORSDOF 3
ENDMDL
MODEL 3
REMARK VINA RESULT:      -7.9      3.522      6.660
REMARK  3 active torsions:
REMARK  status: ('A' for Active; 'I' for Inactive)
REMARK       I    between atoms: C3_3  and  N1_5 
REMARK    1  A    between atoms: N1_5  and  C4_6 
REMARK    2  A    between atoms: C9_13  and  N4_14 
REMARK    3  A    between atoms: N4_14  and  C10_15 
ROOT
HETATM    1  C1  UNL     1      19.063   4.767  49.943  1.00  0.00     0.022 C 
HETATM    2  C2  UNL     1      19.560   3.909  50.627  1.00  0.00    -0.016 C 
HETATM    3  C3  UNL     1      20.177   2.888  51.441  1.00  0.00     0.300 C 
HETATM    4  O1  UNL     1      20.592   3.150  52.611  1.00  0.00    -0.258 OA
HETATM    5  N1  UNL     1      20.372   1.539  51.025  1.00  0.00    -0.316 N 
HETATM    6  H2  UNL     1      20.035   1.297  50.055  1.00  0.00     0.170 HD
ENDROOT
BRANCH   5   7
HETATM    7  C4  UNL     1      21.017   0.856  52.127  1.00  0.00     0.036 A 
HETATM    8  C5  UNL     1      20.098   0.406  53.067  1.00  0.00     0.032 A 
HETATM    9  C6  UNL     1      20.551  -0.277  54.193  1.00  0.00     0.035 A 
HETATM   10  C7  UNL     1      21.907  -0.482  54.335  1.00  0.00     0.072 A 
HETATM   11  N2  UNL     1      22.433  -1.142  55.408  1.00  0.00    -0.241 NA
HETATM   12  C16 UNL     1      22.820  -0.031  53.398  1.00  0.00     0.041 A 
HETATM   13  C8  UNL     1      23.766  -1.338  55.535  1.00  0.00     0.236 A 
HETATM   14  N3  UNL     1      24.654  -0.884  54.597  1.00  0.00    -0.224 NA
HETATM   15  C9  UNL     1      24.187  -0.220  53.506  1.00  0.00     0.142 A 
HETATM   16  C17 UNL     1      22.375   0.646  52.279  1.00  0.00     0.047 A 
BRANCH  15  17
HETATM   17  N4  UNL     1      25.071   0.272  52.500  1.00  0.00    -0.340 N 
HETATM   18  H6  UNL     1      24.874   0.428  51.477  1.00  0.00     0.167 HD
BRANCH  17  19
HETATM   19  C10 UNL     1      26.395   0.595  52.950  1.00  0.00     0.035 A 
HETATM   20  C11 UNL     1      26.704   1.911  53.280  1.00  0.00     0.029 A 
HETATM   21  C12 UNL     1      27.986   2.229  53.718  1.00  0.00     0.004 A 
HETATM   22  C13 UNL     1      28.964   1.265  53.834  1.00  0.00     0.019 A 
HETATM   23  C14 UNL     1      28.664  -0.035  53.509  1.00  0.00     0.013 A 
HETATM   24 BR1  UNL     1      30.029  -1.347  53.677  1.00  0.00    -0.051 Br
HETATM   25  C15 UNL     1      27.395  -0.344  53.077  1.00  0.00     0.048 A 
ENDBRANCH  17  19
ENDBRANCH  15  17
ENDBRANCH   5   7
TORSDOF 3
ENDMDL
MODEL 4
REMARK VINA RESULT:      -7.6      2.387      3.012
REMARK  3 active torsions:
REMARK  status: ('A' for Active; 'I' for Inactive)
REMARK       I    between atoms: C3_3  and  N1_5 
REMARK    1  A    between atoms: N1_5  and  C4_6 
REMARK    2  A    between atoms: C9_13  and  N4_14 
REMARK    3  A    between atoms: N4_14  and  C10_15 
ROOT
HETATM    1  C1  UNL     1      29.246  -0.128  54.471  1.00  0.00     0.022 C 
HETATM    2  C2  UNL     1      28.078   0.046  54.234  1.00  0.00    -0.016 C 
HETATM    3  C3  UNL     1      26.672   0.244  53.969  1.00  0.00     0.300 C 
HETATM    4  O1  UNL     1      26.048   1.232  54.465  1.00  0.00    -0.258 OA
HETATM    5  N1  UNL     1      25.878  -0.618  53.158  1.00  0.00    -0.316 N 
HETATM    6  H2  UNL     1      26.375  -1.447  52.735  1.00  0.00     0.170 HD
ENDROOT
BRANCH   5   7
HETATM    7  C4  UNL     1      24.539  -0.066  53.154  1.00  0.00     0.036 A 
HETATM    8  C5  UNL     1      23.690  -0.764  54.004  1.00  0.00     0.032 A 
HETATM    9  C6  UNL     1      22.361  -0.362  54.123  1.00  0.00     0.035 A 
HETATM   10  C7  UNL     1      21.935   0.723  53.386  1.00  0.00     0.072 A 
HETATM   11  N2  UNL     1      20.651   1.182  53.446  1.00  0.00    -0.241 NA
HETATM   12  C16 UNL     1      22.784   1.415  52.540  1.00  0.00     0.041 A 
HETATM   13  C8  UNL     1      20.246   2.249  52.719  1.00  0.00     0.236 A 
HETATM   14  N3  UNL     1      21.101   2.921  51.887  1.00  0.00    -0.224 NA
HETATM   15  C9  UNL     1      22.394   2.508  51.788  1.00  0.00     0.142 A 
HETATM   16  C17 UNL     1      24.103   1.019  52.420  1.00  0.00     0.047 A 
BRANCH  15  17
HETATM   17  N4  UNL     1      23.324   3.175  50.935  1.00  0.00    -0.340 N 
HETATM   18  H6  UNL     1      24.262   3.582  51.186  1.00  0.00     0.167 HD
BRANCH  17  19
HETATM   19  C10 UNL     1      22.920   3.301  49.564  1.00  0.00     0.035 A 
HETATM   20  C11 UNL     1      22.564   2.162  48.848  1.00  0.00     0.029 A 
HETATM   21  C12 UNL     1      22.171   2.278  47.518  1.00  0.00     0.004 A 
HETATM   22  C13 UNL     1      22.125   3.504  46.889  1.00  0.00     0.019 A 
HETATM   23  C14 UNL     1      22.475   4.631  47.591  1.00  0.00     0.013 A 
HETATM   24 BR1  UNL     1      22.403   6.309  46.702  1.00  0.00    -0.051 Br
HETATM   25  C15 UNL     1      22.863   4.510  48.906  1.00  0.00     0.048 A 
ENDBRANCH  17  19
ENDBRANCH  15  17
ENDBRANCH   5   7
TORSDOF 3
ENDMDL
MODEL 5
REMARK VINA RESULT:      -7.5      3.772      6.373
REMARK  3 active torsions:
REMARK  status: ('A' for Active; 'I' for Inactive)
REMARK       I    between atoms: C3_3  and  N1_5 
REMARK    1  A    between atoms: N1_5  and  C4_6 
REMARK    2  A    between atoms: C9_13  and  N4_14 
REMARK    3  A    between atoms: N4_14  and  C10_15 
ROOT
HETATM    1  C1  UNL     1      27.334   6.043  48.413  1.00  0.00     0.022 C 
HETATM    2  C2  UNL     1      26.653   5.237  48.995  1.00  0.00    -0.016 C 
HETATM    3  C3  UNL     1      25.831   4.260  49.671  1.00  0.00     0.300 C 
HETATM    4  O1  UNL     1      26.306   3.134  50.011  1.00  0.00    -0.258 OA
HETATM    5  N1  UNL     1      24.461   4.459  50.009  1.00  0.00    -0.316 N 
HETATM    6  H2  UNL     1      24.045   5.389  49.736  1.00  0.00     0.170 HD
ENDROOT
BRANCH   5   7
HETATM    7  C4  UNL     1      24.018   3.248  50.668  1.00  0.00     0.036 A 
HETATM    8  C5  UNL     1      22.957   2.652  49.998  1.00  0.00     0.032 A 
HETATM    9  C6  UNL     1      22.409   1.473  50.497  1.00  0.00     0.035 A 
HETATM   10  C7  UNL     1      22.945   0.937  51.649  1.00  0.00     0.072 A 
HETATM   11  N2  UNL     1      22.468  -0.216  52.204  1.00  0.00    -0.241 NA
HETATM   12  C16 UNL     1      24.002   1.533  52.315  1.00  0.00     0.041 A 
HETATM   13  C8  UNL     1      23.004  -0.733  53.334  1.00  0.00     0.236 A 
HETATM   14  N3  UNL     1      24.049  -0.128  53.978  1.00  0.00    -0.224 NA
HETATM   15  C9  UNL     1      24.567   1.024  53.471  1.00  0.00     0.142 A 
HETATM   16  C17 UNL     1      24.548   2.703  51.822  1.00  0.00     0.047 A 
BRANCH  15  17
HETATM   17  N4  UNL     1      25.656   1.693  54.105  1.00  0.00    -0.340 N 
HETATM   18  H6  UNL     1      25.626   2.534  54.738  1.00  0.00     0.167 HD
BRANCH  17  19
HETATM   19  C10 UNL     1      26.953   1.140  53.841  1.00  0.00     0.035 A 
HETATM   20  C11 UNL     1      28.063   1.979  53.811  1.00  0.00     0.029 A 
HETATM   21  C12 UNL     1      29.324   1.448  53.556  1.00  0.00     0.004 A 
HETATM   22  C13 UNL     1      29.501   0.100  53.333  1.00  0.00     0.019 A 
HETATM   23  C14 UNL     1      28.410  -0.734  53.362  1.00  0.00     0.013 A 
HETATM   24 BR1  UNL     1      28.680  -2.589  53.051  1.00  0.00    -0.051 Br
HETATM   25  C15 UNL     1      27.166  -0.203  53.614  1.00  0.00     0.048 A 
ENDBRANCH  17  19
ENDBRANCH  15  17
ENDBRANCH   5   7
TORSDOF 3
ENDMDL
MODEL 6
REMARK VINA RESULT:      -7.4      7.699      9.713
REMARK  3 active torsions:
REMARK  status: ('A' for Active; 'I' for Inactive)
REMARK       I    between atoms: C3_3  and  N1_5 
REMARK    1  A    between atoms: N1_5  and  C4_6 
REMARK    2  A    between atoms: C9_13  and  N4_14 
REMARK    3  A    between atoms: N4_14  and  C10_15 
ROOT
HETATM    1  C1  UNL     1      33.638   2.663  47.083  1.00  0.00     0.022 C 
HETATM    2  C2  UNL     1      32.971   3.621  47.382  1.00  0.00    -0.016 C 
HETATM    3  C3  UNL     1      32.151   4.756  47.735  1.00  0.00     0.300 C 
HETATM    4  O1  UNL     1      31.629   4.850  48.888  1.00  0.00    -0.258 OA
HETATM    5  N1  UNL     1      31.860   5.841  46.857  1.00  0.00    -0.316 N 
HETATM    6  H2  UNL     1      32.284   5.785  45.893  1.00  0.00     0.170 HD
ENDROOT
BRANCH   5   7
HETATM    7  C4  UNL     1      31.015   6.756  47.596  1.00  0.00     0.036 A 
HETATM    8  C5  UNL     1      31.745   7.799  48.153  1.00  0.00     0.032 A 
HETATM    9  C6  UNL     1      31.084   8.774  48.896  1.00  0.00     0.035 A 
HETATM   10  C7  UNL     1      29.718   8.666  49.053  1.00  0.00     0.072 A 
HETATM   11  N2  UNL     1      28.995   9.579  49.765  1.00  0.00    -0.241 NA
HETATM   12  C16 UNL     1      28.995   7.625  48.498  1.00  0.00     0.041 A 
HETATM   13  C8  UNL     1      27.654   9.462  49.911  1.00  0.00     0.236 A 
HETATM   14  N3  UNL     1      26.957   8.425  49.354  1.00  0.00    -0.224 NA
HETATM   15  C9  UNL     1      27.625   7.484  48.633  1.00  0.00     0.142 A 
HETATM   16  C17 UNL     1      29.647   6.656  47.760  1.00  0.00     0.047 A 
BRANCH  15  17
HETATM   17  N4  UNL     1      26.943   6.384  48.032  1.00  0.00    -0.340 N 
HETATM   18  H6  UNL     1      26.801   6.186  47.007  1.00  0.00     0.167 HD
BRANCH  17  19
HETATM   19  C10 UNL     1      26.385   5.432  48.949  1.00  0.00     0.035 A 
HETATM   20  C11 UNL     1      27.048   4.229  49.174  1.00  0.00     0.029 A 
HETATM   21  C12 UNL     1      26.511   3.302  50.064  1.00  0.00     0.004 A 
HETATM   22  C13 UNL     1      25.332   3.550  50.732  1.00  0.00     0.019 A 
HETATM   23  C14 UNL     1      24.674   4.736  50.513  1.00  0.00     0.013 A 
HETATM   24 BR1  UNL     1      23.049   5.054  51.446  1.00  0.00    -0.051 Br
HETATM   25  C15 UNL     1      25.209   5.648  49.633  1.00  0.00     0.048 A 
ENDBRANCH  17  19
ENDBRANCH  15  17
ENDBRANCH   5   7
TORSDOF 3
ENDMDL
MODEL 7
REMARK VINA RESULT:      -7.3      4.444      6.421
REMARK  3 active torsions:
REMARK  status: ('A' for Active; 'I' for Inactive)
REMARK       I    between atoms: C3_3  and  N1_5 
REMARK    1  A    between atoms: N1_5  and  C4_6 
REMARK    2  A    between atoms: C9_13  and  N4_14 
REMARK    3  A    between atoms: N4_14  and  C10_15 
ROOT
HETATM    1  C1  UNL     1      26.560  -0.360  52.551  1.00  0.00     0.022 C 
HETATM    2  C2  UNL     1      25.782   0.536  52.343  1.00  0.00    -0.016 C 
HETATM    3  C3  UNL     1      24.866   1.626  52.098  1.00  0.00     0.300 C 
HETATM    4  O1  UNL     1      24.786   2.163  50.951  1.00  0.00    -0.258 OA
HETATM    5  N1  UNL     1      23.998   2.182  53.081  1.00  0.00    -0.316 N 
HETATM    6  H2  UNL     1      24.047   1.751  54.042  1.00  0.00     0.170 HD
ENDROOT
BRANCH   5   7
HETATM    7  C4  UNL     1      23.259   3.242  52.428  1.00  0.00     0.036 A 
HETATM    8  C5  UNL     1      21.951   2.864  52.147  1.00  0.00     0.032 A 
HETATM    9  C6  UNL     1      21.098   3.769  51.519  1.00  0.00     0.035 A 
HETATM   10  C7  UNL     1      21.588   5.018  51.197  1.00  0.00     0.072 A 
HETATM   11  N2  UNL     1      20.818   5.963  50.583  1.00  0.00    -0.241 NA
HETATM   12  C16 UNL     1      22.891   5.391  51.478  1.00  0.00     0.041 A 
HETATM   13  C8  UNL     1      21.311   7.185  50.273  1.00  0.00     0.236 A 
HETATM   14  N3  UNL     1      22.603   7.535  50.559  1.00  0.00    -0.224 NA
HETATM   15  C9  UNL     1      23.417   6.633  51.171  1.00  0.00     0.142 A 
HETATM   16  C17 UNL     1      23.740   4.495  52.100  1.00  0.00     0.047 A 
BRANCH  15  17
HETATM   17  N4  UNL     1      24.771   6.950  51.491  1.00  0.00    -0.340 N 
HETATM   18  H6  UNL     1      25.192   7.134  52.439  1.00  0.00     0.167 HD
BRANCH  17  19
HETATM   19  C10 UNL     1      25.665   7.024  50.371  1.00  0.00     0.035 A 
HETATM   20  C11 UNL     1      25.868   5.896  49.582  1.00  0.00     0.029 A 
HETATM   21  C12 UNL     1      26.734   5.962  48.494  1.00  0.00     0.004 A 
HETATM   22  C13 UNL     1      27.399   7.127  48.177  1.00  0.00     0.019 A 
HETATM   23  C14 UNL     1      27.201   8.243  48.953  1.00  0.00     0.013 A 
HETATM   24 BR1  UNL     1      28.129   9.837  48.496  1.00  0.00    -0.051 Br
HETATM   25  C15 UNL     1      26.344   8.172  50.027  1.00  0.00     0.048 A 
ENDBRANCH  17  19
ENDBRANCH  15  17
ENDBRANCH   5   7
TORSDOF 3
ENDMDL
MODEL 8
REMARK VINA RESULT:      -7.3      3.381      5.686
REMARK  3 active torsions:
REMARK  status: ('A' for Active; 'I' for Inactive)
REMARK       I    between atoms: C3_3  and  N1_5 
REMARK    1  A    between atoms: N1_5  and  C4_6 
REMARK    2  A    between atoms: C9_13  and  N4_14 
REMARK    3  A    between atoms: N4_14  and  C10_15 
ROOT
HETATM    1  C1  UNL     1      23.986   6.839  47.769  1.00  0.00     0.022 C 
HETATM    2  C2  UNL     1      24.235   5.908  48.491  1.00  0.00    -0.016 C 
HETATM    3  C3  UNL     1      24.513   4.794  49.367  1.00  0.00     0.300 C 
HETATM    4  O1  UNL     1      24.139   3.619  49.065  1.00  0.00    -0.258 OA
HETATM    5  N1  UNL     1      25.208   4.900  50.607  1.00  0.00    -0.316 N 
HETATM    6  H2  UNL     1      25.528   5.867  50.879  1.00  0.00     0.170 HD
ENDROOT
BRANCH   5   7
HETATM    7  C4  UNL     1      25.270   3.564  51.162  1.00  0.00     0.036 A 
HETATM    8  C5  UNL     1      26.503   2.965  50.931  1.00  0.00     0.032 A 
HETATM    9  C6  UNL     1      26.735   1.675  51.402  1.00  0.00     0.035 A 
HETATM   10  C7  UNL     1      25.722   1.034  52.086  1.00  0.00     0.072 A 
HETATM   11  N2  UNL     1      25.867  -0.230  52.581  1.00  0.00    -0.241 NA
HETATM   12  C16 UNL     1      24.495   1.633  52.313  1.00  0.00     0.041 A 
HETATM   13  C8  UNL     1      24.867  -0.847  53.251  1.00  0.00     0.236 A 
HETATM   14  N3  UNL     1      23.660  -0.237  53.466  1.00  0.00    -0.224 NA
HETATM   15  C9  UNL     1      23.458   1.023  52.995  1.00  0.00     0.142 A 
HETATM   16  C17 UNL     1      24.262   2.913  51.847  1.00  0.00     0.047 A 
BRANCH  15  17
HETATM   17  N4  UNL     1      22.218   1.702  53.194  1.00  0.00    -0.340 N 
HETATM   18  H6  UNL     1      22.023   2.540  53.801  1.00  0.00     0.167 HD
BRANCH  17  19
HETATM   19  C10 UNL     1      21.103   1.167  52.468  1.00  0.00     0.035 A 
HETATM   20  C11 UNL     1      20.958   1.466  51.117  1.00  0.00     0.029 A 
HETATM   21  C12 UNL     1      19.877   0.949  50.408  1.00  0.00     0.004 A 
HETATM   22  C13 UNL     1      18.941   0.142  51.016  1.00  0.00     0.019 A 
HETATM   23  C14 UNL     1      19.079  -0.157  52.350  1.00  0.00     0.013 A 
HETATM   24 BR1  UNL     1      17.776  -1.273  53.167  1.00  0.00    -0.051 Br
HETATM   25  C15 UNL     1      20.149   0.357  53.046  1.00  0.00     0.048 A 
ENDBRANCH  17  19
ENDBRANCH  15  17
ENDBRANCH   5   7
TORSDOF 3
ENDMDL
MODEL 9
REMARK VINA RESULT:      -7.2      2.682      3.167
REMARK  3 active torsions:
REMARK  status: ('A' for Active; 'I' for Inactive)
REMARK       I    between atoms: C3_3  and  N1_5 
REMARK    1  A    between atoms: N1_5  and  C4_6 
REMARK    2  A    between atoms: C9_13  and  N4_14 
REMARK    3  A    between atoms: N4_14  and  C10_15 
ROOT
HETATM    1  C1  UNL     1      30.062  -0.511  53.757  1.00  0.00     0.022 C 
HETATM    2  C2  UNL     1      28.890  -0.285  53.592  1.00  0.00    -0.016 C 
HETATM    3  C3  UNL     1      27.480  -0.025  53.416  1.00  0.00     0.300 C 
HETATM    4  O1  UNL     1      26.942   1.011  53.915  1.00  0.00    -0.258 OA
HETATM    5  N1  UNL     1      26.591  -0.872  52.692  1.00  0.00    -0.316 N 
HETATM    6  H2  UNL     1      27.017  -1.738  52.268  1.00  0.00     0.170 HD
ENDROOT
BRANCH   5   7
HETATM    7  C4  UNL     1      25.284  -0.252  52.758  1.00  0.00     0.036 A 
HETATM    8  C5  UNL     1      24.552  -0.703  53.850  1.00  0.00     0.032 A 
HETATM    9  C6  UNL     1      23.269  -0.205  54.065  1.00  0.00     0.035 A 
HETATM   10  C7  UNL     1      22.769   0.726  53.179  1.00  0.00     0.072 A 
HETATM   11  N2  UNL     1      21.523   1.265  53.318  1.00  0.00    -0.241 NA
HETATM   12  C16 UNL     1      23.501   1.173  52.092  1.00  0.00     0.041 A 
HETATM   13  C8  UNL     1      21.045   2.179  52.442  1.00  0.00     0.236 A 
HETATM   14  N3  UNL     1      21.784   2.609  51.374  1.00  0.00    -0.224 NA
HETATM   15  C9  UNL     1      23.034   2.106  51.184  1.00  0.00     0.142 A 
HETATM   16  C17 UNL     1      24.774   0.681  51.876  1.00  0.00     0.047 A 
BRANCH  15  17
HETATM   17  N4  UNL     1      23.844   2.522  50.086  1.00  0.00    -0.340 N 
HETATM   18  H6  UNL     1      24.117   1.971  49.231  1.00  0.00     0.167 HD
BRANCH  17  19
HETATM   19  C10 UNL     1      24.344   3.865  50.165  1.00  0.00     0.035 A 
HETATM   20  C11 UNL     1      23.727   4.776  51.016  1.00  0.00     0.029 A 
HETATM   21  C12 UNL     1      24.209   6.080  51.097  1.00  0.00     0.004 A 
HETATM   22  C13 UNL     1      25.291   6.492  50.349  1.00  0.00     0.019 A 
HETATM   23  C14 UNL     1      25.903   5.596  49.508  1.00  0.00     0.013 A 
HETATM   24 BR1  UNL     1      27.393   6.188  48.487  1.00  0.00    -0.051 Br
HETATM   25  C15 UNL     1      25.423   4.309  49.431  1.00  0.00     0.048 A 
ENDBRANCH  17  19
ENDBRANCH  15  17
ENDBRANCH   5   7
TORSDOF 3
ENDMDL
