MODEL 1
REMARK VINA RESULT:      -7.7      0.000      0.000
REMARK  4 active torsions:
REMARK  status: ('A' for Active; 'I' for Inactive)
REMARK    1  A    between atoms: O1_1  and  C1_2 
REMARK    2  A    between atoms: C4_5  and  C5_6 
REMARK    3  A    between atoms: N2_13  and  C10_14 
REMARK    4  A    between atoms: C10_14  and  C11_15 
ROOT
HETATM    1  C5  UNL     1      26.228   1.298  52.441  1.00  0.00     0.042 C 
HETATM    2  C6  UNL     1      26.450   2.139  51.443  1.00  0.00     0.036 C 
HETATM    3  C7  UNL     1      25.493   3.221  51.583  1.00  0.00     0.179 C 
HETATM    4  C8  UNL     1      24.445   2.689  52.463  1.00  0.00     0.131 C 
HETATM    5  N1  UNL     1      23.166   2.959  52.625  1.00  0.00    -0.242 NA
HETATM    6  C9  UNL     1      22.580   3.950  51.794  1.00  0.00     0.153 C 
HETATM    7  P1  UNL     1      23.501   4.709  50.617  1.00  0.00     0.078 P 
HETATM    8  N2  UNL     1      25.182   4.103  50.565  1.00  0.00    -0.358 N 
HETATM    9  N3  UNL     1      25.000   1.553  53.172  1.00  0.00    -0.342 N 
HETATM   10  H10 UNL     1      24.672   1.006  53.996  1.00  0.00     0.167 HD
ENDROOT
BRANCH   1  11
HETATM   11  C4  UNL     1      26.999   0.055  52.697  1.00  0.00    -0.009 A 
HETATM   12  C3  UNL     1      26.484  -1.180  52.359  1.00  0.00     0.016 A 
HETATM   13  C2  UNL     1      27.150  -2.355  52.572  1.00  0.00     0.037 A 
HETATM   14  C1  UNL     1      28.390  -2.335  53.147  1.00  0.00     0.065 A 
HETATM   15  C14 UNL     1      28.939  -1.120  53.499  1.00  0.00     0.037 A 
HETATM   16  C13 UNL     1      28.247   0.053  53.275  1.00  0.00     0.016 A 
BRANCH  14  17
HETATM   17  O1  UNL     1      29.055  -3.543  53.357  1.00  0.00    -0.361 OA
HETATM   18  H1  UNL     1      29.897  -3.518  53.953  1.00  0.00     0.217 HD
ENDBRANCH  14  17
ENDBRANCH   1  11
BRANCH   8  19
HETATM   19  C10 UNL     1      25.679   3.796  49.250  1.00  0.00     0.194 C 
BRANCH  19  20
HETATM   20  C11 UNL     1      26.722   4.805  48.914  1.00  0.00     0.118 C 
HETATM   21  F1  UNL     1      27.964   4.352  48.545  1.00  0.00    -0.209 F 
HETATM   22  C12 UNL     1      26.554   6.138  48.941  1.00  0.00     0.095 C 
HETATM   23 BR1  UNL     1      27.567   7.725  48.603  1.00  0.00    -0.061 Br
ENDBRANCH  19  20
ENDBRANCH   8  19
TORSDOF 4
ENDMDL
MODEL 2
REMARK VINA RESULT:      -7.4      4.294      5.281
REMARK  4 active torsions:
REMARK  status: ('A' for Active; 'I' for Inactive)
REMARK    1  A    between atoms: O1_1  and  C1_2 
REMARK    2  A    between atoms: C4_5  and  C5_6 
REMARK    3  A    between atoms: N2_13  and  C10_14 
REMARK    4  A    between atoms: C10_14  and  C11_15 
ROOT
HETATM    1  C5  UNL     1      25.459   1.522  52.312  1.00  0.00     0.042 C 
HETATM    2  C6  UNL     1      24.260   0.972  52.420  1.00  0.00     0.036 C 
HETATM    3  C7  UNL     1      23.311   1.921  51.868  1.00  0.00     0.179 C 
HETATM    4  C8  UNL     1      24.020   3.207  51.862  1.00  0.00     0.131 C 
HETATM    5  N1  UNL     1      23.631   4.464  51.908  1.00  0.00    -0.242 NA
HETATM    6  C9  UNL     1      22.240   4.732  52.011  1.00  0.00     0.153 C 
HETATM    7  P1  UNL     1      21.149   3.464  52.115  1.00  0.00     0.078 P 
HETATM    8  N2  UNL     1      21.950   1.866  52.104  1.00  0.00    -0.358 N 
HETATM    9  N3  UNL     1      25.440   2.927  51.948  1.00  0.00    -0.342 N 
HETATM   10  H10 UNL     1      26.287   3.517  51.802  1.00  0.00     0.167 HD
ENDROOT
BRANCH   1  11
HETATM   11  C4  UNL     1      26.732   0.883  52.734  1.00  0.00    -0.009 A 
HETATM   12  C3  UNL     1      26.887  -0.487  52.685  1.00  0.00     0.016 A 
HETATM   13  C2  UNL     1      28.036  -1.127  53.061  1.00  0.00     0.037 A 
HETATM   14  C1  UNL     1      29.100  -0.396  53.511  1.00  0.00     0.065 A 
HETATM   15  C14 UNL     1      28.985   0.976  53.575  1.00  0.00     0.037 A 
HETATM   16  C13 UNL     1      27.815   1.599  53.191  1.00  0.00     0.016 A 
BRANCH  14  17
HETATM   17  O1  UNL     1      30.264  -1.065  53.890  1.00  0.00    -0.361 OA
HETATM   18  H1  UNL     1      30.656  -1.743  53.218  1.00  0.00     0.217 HD
ENDBRANCH  14  17
ENDBRANCH   1  11
BRANCH   8  19
HETATM   19  C10 UNL     1      21.491   0.946  53.110  1.00  0.00     0.194 C 
BRANCH  19  20
HETATM   20  C11 UNL     1      20.322   0.209  52.551  1.00  0.00     0.118 C 
HETATM   21  F1  UNL     1      20.198   0.136  51.186  1.00  0.00    -0.209 F 
HETATM   22  C12 UNL     1      19.365  -0.397  53.274  1.00  0.00     0.095 C 
HETATM   23 BR1  UNL     1      17.766  -1.406  52.989  1.00  0.00    -0.061 Br
ENDBRANCH  19  20
ENDBRANCH   8  19
TORSDOF 4
ENDMDL
MODEL 3
REMARK VINA RESULT:      -7.4      3.669      4.430
REMARK  4 active torsions:
REMARK  status: ('A' for Active; 'I' for Inactive)
REMARK    1  A    between atoms: O1_1  and  C1_2 
REMARK    2  A    between atoms: C4_5  and  C5_6 
REMARK    3  A    between atoms: N2_13  and  C10_14 
REMARK    4  A    between atoms: C10_14  and  C11_15 
ROOT
HETATM    1  C5  UNL     1      24.750  -0.247  53.873  1.00  0.00     0.042 C 
HETATM    2  C6  UNL     1      24.046   0.415  52.969  1.00  0.00     0.036 C 
HETATM    3  C7  UNL     1      22.662   0.384  53.408  1.00  0.00     0.179 C 
HETATM    4  C8  UNL     1      22.596  -0.718  54.376  1.00  0.00     0.131 C 
HETATM    5  N1  UNL     1      21.632  -1.516  54.785  1.00  0.00    -0.242 NA
HETATM    6  C9  UNL     1      20.346  -1.369  54.200  1.00  0.00     0.153 C 
HETATM    7  P1  UNL     1      20.101  -0.232  52.993  1.00  0.00     0.078 P 
HETATM    8  N2  UNL     1      21.591   0.664  52.580  1.00  0.00    -0.358 N 
HETATM    9  N3  UNL     1      23.946  -0.989  54.828  1.00  0.00    -0.342 N 
HETATM   10  H10 UNL     1      24.327  -1.553  55.618  1.00  0.00     0.167 HD
ENDROOT
BRANCH   1  11
HETATM   11  C4  UNL     1      26.222  -0.443  53.833  1.00  0.00    -0.009 A 
HETATM   12  C3  UNL     1      27.050   0.226  54.710  1.00  0.00     0.016 A 
HETATM   13  C2  UNL     1      28.410   0.083  54.717  1.00  0.00     0.037 A 
HETATM   14  C1  UNL     1      29.005  -0.760  53.821  1.00  0.00     0.065 A 
HETATM   15  C14 UNL     1      28.212  -1.447  52.927  1.00  0.00     0.037 A 
HETATM   16  C13 UNL     1      26.842  -1.286  52.939  1.00  0.00     0.016 A 
BRANCH  14  17
HETATM   17  O1  UNL     1      30.394  -0.893  53.842  1.00  0.00    -0.361 OA
HETATM   18  H1  UNL     1      30.899  -0.674  52.970  1.00  0.00     0.217 HD
ENDBRANCH  14  17
ENDBRANCH   1  11
BRANCH   8  19
HETATM   19  C10 UNL     1      21.860   0.785  51.171  1.00  0.00     0.194 C 
BRANCH  19  20
HETATM   20  C11 UNL     1      22.052   2.232  50.870  1.00  0.00     0.118 C 
HETATM   21  F1  UNL     1      21.508   3.149  51.734  1.00  0.00    -0.209 F 
HETATM   22  C12 UNL     1      22.719   2.725  49.813  1.00  0.00     0.095 C 
HETATM   23 BR1  UNL     1      23.188   4.424  49.071  1.00  0.00    -0.061 Br
ENDBRANCH  19  20
ENDBRANCH   8  19
TORSDOF 4
ENDMDL
MODEL 4
REMARK VINA RESULT:      -7.3      4.236      6.861
REMARK  4 active torsions:
REMARK  status: ('A' for Active; 'I' for Inactive)
REMARK    1  A    between atoms: O1_1  and  C1_2 
REMARK    2  A    between atoms: C4_5  and  C5_6 
REMARK    3  A    between atoms: N2_13  and  C10_14 
REMARK    4  A    between atoms: C10_14  and  C11_15 
ROOT
HETATM    1  C5  UNL     1      25.952   4.218  49.587  1.00  0.00     0.042 C 
HETATM    2  C6  UNL     1      26.427   3.331  50.446  1.00  0.00     0.036 C 
HETATM    3  C7  UNL     1      25.316   2.483  50.836  1.00  0.00     0.179 C 
HETATM    4  C8  UNL     1      24.113   3.246  50.476  1.00  0.00     0.131 C 
HETATM    5  N1  UNL     1      22.875   3.262  50.924  1.00  0.00    -0.242 NA
HETATM    6  C9  UNL     1      22.543   2.406  52.006  1.00  0.00     0.153 C 
HETATM    7  P1  UNL     1      23.724   1.443  52.706  1.00  0.00     0.078 P 
HETATM    8  N2  UNL     1      25.329   1.670  51.954  1.00  0.00    -0.358 N 
HETATM    9  N3  UNL     1      24.502   4.248  49.504  1.00  0.00    -0.342 N 
HETATM   10  H10 UNL     1      23.954   4.869  48.871  1.00  0.00     0.167 HD
ENDROOT
BRANCH   1  11
HETATM   11  C4  UNL     1      26.755   5.270  48.914  1.00  0.00    -0.009 A 
HETATM   12  C3  UNL     1      26.194   6.487  48.584  1.00  0.00     0.016 A 
HETATM   13  C2  UNL     1      26.887   7.490  47.964  1.00  0.00     0.037 A 
HETATM   14  C1  UNL     1      28.203   7.305  47.645  1.00  0.00     0.065 A 
HETATM   15  C14 UNL     1      28.800   6.103  47.958  1.00  0.00     0.037 A 
HETATM   16  C13 UNL     1      28.080   5.105  48.583  1.00  0.00     0.016 A 
BRANCH  14  17
HETATM   17  O1  UNL     1      28.894   8.339  47.013  1.00  0.00    -0.361 OA
HETATM   18  H1  UNL     1      29.740   8.695  47.485  1.00  0.00     0.217 HD
ENDBRANCH  14  17
ENDBRANCH   1  11
BRANCH   8  19
HETATM   19  C10 UNL     1      26.418   1.838  52.879  1.00  0.00     0.194 C 
BRANCH  19  20
HETATM   20  C11 UNL     1      27.285   0.629  52.781  1.00  0.00     0.118 C 
HETATM   21  F1  UNL     1      26.894  -0.379  51.936  1.00  0.00    -0.209 F 
HETATM   22  C12 UNL     1      28.430   0.435  53.458  1.00  0.00     0.095 C 
HETATM   23 BR1  UNL     1      29.793  -0.895  53.632  1.00  0.00    -0.061 Br
ENDBRANCH  19  20
ENDBRANCH   8  19
TORSDOF 4
ENDMDL
MODEL 5
REMARK VINA RESULT:      -7.1      5.063      7.373
REMARK  4 active torsions:
REMARK  status: ('A' for Active; 'I' for Inactive)
REMARK    1  A    between atoms: O1_1  and  C1_2 
REMARK    2  A    between atoms: C4_5  and  C5_6 
REMARK    3  A    between atoms: N2_13  and  C10_14 
REMARK    4  A    between atoms: C10_14  and  C11_15 
ROOT
HETATM    1  C5  UNL     1      25.241   2.746  51.350  1.00  0.00     0.042 C 
HETATM    2  C6  UNL     1      24.945   1.696  52.099  1.00  0.00     0.036 C 
HETATM    3  C7  UNL     1      26.001   1.571  53.086  1.00  0.00     0.179 C 
HETATM    4  C8  UNL     1      27.120   2.352  52.545  1.00  0.00     0.131 C 
HETATM    5  N1  UNL     1      28.427   2.300  52.697  1.00  0.00    -0.242 NA
HETATM    6  C9  UNL     1      28.965   1.283  53.530  1.00  0.00     0.153 C 
HETATM    7  P1  UNL     1      27.945   0.165  54.252  1.00  0.00     0.078 P 
HETATM    8  N2  UNL     1      26.230   0.422  53.820  1.00  0.00    -0.358 N 
HETATM    9  N3  UNL     1      26.583   3.262  51.553  1.00  0.00    -0.342 N 
HETATM   10  H10 UNL     1      26.984   4.092  51.064  1.00  0.00     0.167 HD
ENDROOT
BRANCH   1  11
HETATM   11  C4  UNL     1      24.414   3.254  50.226  1.00  0.00    -0.009 A 
HETATM   12  C3  UNL     1      24.639   4.505  49.690  1.00  0.00     0.016 A 
HETATM   13  C2  UNL     1      23.908   5.022  48.656  1.00  0.00     0.037 A 
HETATM   14  C1  UNL     1      22.899   4.283  48.106  1.00  0.00     0.065 A 
HETATM   15  C14 UNL     1      22.643   3.028  48.614  1.00  0.00     0.037 A 
HETATM   16  C13 UNL     1      23.393   2.527  49.658  1.00  0.00     0.016 A 
BRANCH  14  17
HETATM   17  O1  UNL     1      22.164   4.826  47.052  1.00  0.00    -0.361 OA
HETATM   18  H1  UNL     1      21.150   4.633  47.039  1.00  0.00     0.217 HD
ENDBRANCH  14  17
ENDBRANCH   1  11
BRANCH   8  19
HETATM   19  C10 UNL     1      25.515  -0.764  53.429  1.00  0.00     0.194 C 
BRANCH  19  20
HETATM   20  C11 UNL     1      24.311  -0.874  54.299  1.00  0.00     0.118 C 
HETATM   21  F1  UNL     1      24.498  -1.164  55.627  1.00  0.00    -0.209 F 
HETATM   22  C12 UNL     1      23.039  -0.714  53.893  1.00  0.00     0.095 C 
HETATM   23 BR1  UNL     1      21.275  -0.763  54.630  1.00  0.00    -0.061 Br
ENDBRANCH  19  20
ENDBRANCH   8  19
TORSDOF 4
ENDMDL
MODEL 6
REMARK VINA RESULT:      -7.1      5.542      7.260
REMARK  4 active torsions:
REMARK  status: ('A' for Active; 'I' for Inactive)
REMARK    1  A    between atoms: O1_1  and  C1_2 
REMARK    2  A    between atoms: C4_5  and  C5_6 
REMARK    3  A    between atoms: N2_13  and  C10_14 
REMARK    4  A    between atoms: C10_14  and  C11_15 
ROOT
HETATM    1  C5  UNL     1      21.188   0.533  52.785  1.00  0.00     0.042 C 
HETATM    2  C6  UNL     1      22.350   0.121  53.268  1.00  0.00     0.036 C 
HETATM    3  C7  UNL     1      23.317   1.167  52.991  1.00  0.00     0.179 C 
HETATM    4  C8  UNL     1      22.703   1.979  51.932  1.00  0.00     0.131 C 
HETATM    5  N1  UNL     1      23.184   2.752  50.980  1.00  0.00    -0.242 NA
HETATM    6  C9  UNL     1      24.594   2.867  50.859  1.00  0.00     0.153 C 
HETATM    7  P1  UNL     1      25.597   1.999  51.884  1.00  0.00     0.078 P 
HETATM    8  N2  UNL     1      24.685   0.975  53.031  1.00  0.00    -0.358 N 
HETATM    9  N3  UNL     1      21.279   1.710  51.939  1.00  0.00    -0.342 N 
HETATM   10  H10 UNL     1      20.467   2.183  51.488  1.00  0.00     0.167 HD
ENDROOT
BRANCH   1  11
HETATM   11  C4  UNL     1      19.912  -0.222  52.872  1.00  0.00    -0.009 A 
HETATM   12  C3  UNL     1      18.840   0.105  52.067  1.00  0.00     0.016 A 
HETATM   13  C2  UNL     1      17.644  -0.555  52.105  1.00  0.00     0.037 A 
HETATM   14  C1  UNL     1      17.474  -1.597  52.974  1.00  0.00     0.065 A 
HETATM   15  C14 UNL     1      18.521  -1.954  53.795  1.00  0.00     0.037 A 
HETATM   16  C13 UNL     1      19.720  -1.272  53.739  1.00  0.00     0.016 A 
BRANCH  14  17
HETATM   17  O1  UNL     1      16.246  -2.259  52.999  1.00  0.00    -0.361 OA
HETATM   18  H1  UNL     1      15.571  -2.025  52.254  1.00  0.00     0.217 HD
ENDBRANCH  14  17
ENDBRANCH   1  11
BRANCH   8  19
HETATM   19  C10 UNL     1      25.158  -0.379  53.150  1.00  0.00     0.194 C 
BRANCH  19  20
HETATM   20  C11 UNL     1      26.517  -0.331  53.759  1.00  0.00     0.118 C 
HETATM   21  F1  UNL     1      26.648   0.229  55.004  1.00  0.00    -0.209 F 
HETATM   22  C12 UNL     1      27.643  -0.793  53.188  1.00  0.00     0.095 C 
HETATM   23 BR1  UNL     1      29.508  -0.932  53.586  1.00  0.00    -0.061 Br
ENDBRANCH  19  20
ENDBRANCH   8  19
TORSDOF 4
ENDMDL
MODEL 7
REMARK VINA RESULT:      -7.1      3.443      4.457
REMARK  4 active torsions:
REMARK  status: ('A' for Active; 'I' for Inactive)
REMARK    1  A    between atoms: O1_1  and  C1_2 
REMARK    2  A    between atoms: C4_5  and  C5_6 
REMARK    3  A    between atoms: N2_13  and  C10_14 
REMARK    4  A    between atoms: C10_14  and  C11_15 
ROOT
HETATM    1  C5  UNL     1      25.870   2.568  51.501  1.00  0.00     0.042 C 
HETATM    2  C6  UNL     1      24.575   2.709  51.735  1.00  0.00     0.036 C 
HETATM    3  C7  UNL     1      24.099   3.761  50.857  1.00  0.00     0.179 C 
HETATM    4  C8  UNL     1      25.307   4.490  50.449  1.00  0.00     0.131 C 
HETATM    5  N1  UNL     1      25.538   5.725  50.054  1.00  0.00    -0.242 NA
HETATM    6  C9  UNL     1      24.443   6.628  50.002  1.00  0.00     0.153 C 
HETATM    7  P1  UNL     1      22.918   6.122  50.478  1.00  0.00     0.078 P 
HETATM    8  N2  UNL     1      22.900   4.425  51.038  1.00  0.00    -0.358 N 
HETATM    9  N3  UNL     1      26.445   3.623  50.685  1.00  0.00    -0.342 N 
HETATM   10  H10 UNL     1      27.442   3.669  50.386  1.00  0.00     0.167 HD
ENDROOT
BRANCH   1  11
HETATM   11  C4  UNL     1      26.756   1.580  52.167  1.00  0.00    -0.009 A 
HETATM   12  C3  UNL     1      26.521   0.226  52.049  1.00  0.00     0.016 A 
HETATM   13  C2  UNL     1      27.305  -0.726  52.640  1.00  0.00     0.037 A 
HETATM   14  C1  UNL     1      28.381  -0.345  53.391  1.00  0.00     0.065 A 
HETATM   15  C14 UNL     1      28.650   0.999  53.533  1.00  0.00     0.037 A 
HETATM   16  C13 UNL     1      27.845   1.942  52.927  1.00  0.00     0.016 A 
BRANCH  14  17
HETATM   17  O1  UNL     1      29.169  -1.330  53.987  1.00  0.00    -0.361 OA
HETATM   18  H1  UNL     1      30.189  -1.175  53.994  1.00  0.00     0.217 HD
ENDBRANCH  14  17
ENDBRANCH   1  11
BRANCH   8  19
HETATM   19  C10 UNL     1      22.200   4.198  52.275  1.00  0.00     0.194 C 
BRANCH  19  20
HETATM   20  C11 UNL     1      20.948   3.456  51.956  1.00  0.00     0.118 C 
HETATM   21  F1  UNL     1      19.785   4.175  51.833  1.00  0.00    -0.209 F 
HETATM   22  C12 UNL     1      20.853   2.127  51.778  1.00  0.00     0.095 C 
HETATM   23 BR1  UNL     1      19.518   0.819  51.375  1.00  0.00    -0.061 Br
ENDBRANCH  19  20
ENDBRANCH   8  19
TORSDOF 4
ENDMDL
MODEL 8
REMARK VINA RESULT:      -6.9      2.996      3.510
REMARK  4 active torsions:
REMARK  status: ('A' for Active; 'I' for Inactive)
REMARK    1  A    between atoms: O1_1  and  C1_2 
REMARK    2  A    between atoms: C4_5  and  C5_6 
REMARK    3  A    between atoms: N2_13  and  C10_14 
REMARK    4  A    between atoms: C10_14  and  C11_15 
ROOT
HETATM    1  C5  UNL     1      24.966   1.232  53.134  1.00  0.00     0.042 C 
HETATM    2  C6  UNL     1      24.390   2.234  52.488  1.00  0.00     0.036 C 
HETATM    3  C7  UNL     1      22.957   2.064  52.638  1.00  0.00     0.179 C 
HETATM    4  C8  UNL     1      22.781   0.659  53.028  1.00  0.00     0.131 C 
HETATM    5  N1  UNL     1      21.797  -0.207  52.899  1.00  0.00    -0.242 NA
HETATM    6  C9  UNL     1      20.619   0.212  52.227  1.00  0.00     0.153 C 
HETATM    7  P1  UNL     1      20.525   1.758  51.586  1.00  0.00     0.078 P 
HETATM    8  N2  UNL     1      22.024   2.698  51.840  1.00  0.00    -0.358 N 
HETATM    9  N3  UNL     1      24.050   0.182  53.541  1.00  0.00    -0.342 N 
HETATM   10  H10 UNL     1      24.321  -0.673  54.073  1.00  0.00     0.167 HD
ENDROOT
BRANCH   1  11
HETATM   11  C4  UNL     1      26.431   1.027  53.258  1.00  0.00    -0.009 A 
HETATM   12  C3  UNL     1      26.978  -0.238  53.191  1.00  0.00     0.016 A 
HETATM   13  C2  UNL     1      28.319  -0.484  53.300  1.00  0.00     0.037 A 
HETATM   14  C1  UNL     1      29.184   0.557  53.483  1.00  0.00     0.065 A 
HETATM   15  C14 UNL     1      28.677   1.837  53.556  1.00  0.00     0.037 A 
HETATM   16  C13 UNL     1      27.320   2.060  53.444  1.00  0.00     0.016 A 
BRANCH  14  17
HETATM   17  O1  UNL     1      30.549   0.288  53.592  1.00  0.00    -0.361 OA
HETATM   18  H1  UNL     1      30.827  -0.472  54.232  1.00  0.00     0.217 HD
ENDBRANCH  14  17
ENDBRANCH   1  11
BRANCH   8  19
HETATM   19  C10 UNL     1      22.512   3.393  50.679  1.00  0.00     0.194 C 
BRANCH  19  20
HETATM   20  C11 UNL     1      22.450   4.854  50.966  1.00  0.00     0.118 C 
HETATM   21  F1  UNL     1      21.355   5.334  51.638  1.00  0.00    -0.209 F 
HETATM   22  C12 UNL     1      23.384   5.756  50.619  1.00  0.00     0.095 C 
HETATM   23 BR1  UNL     1      23.699   7.636  50.775  1.00  0.00    -0.061 Br
ENDBRANCH  19  20
ENDBRANCH   8  19
TORSDOF 4
ENDMDL
MODEL 9
REMARK VINA RESULT:      -6.9      1.910      2.283
REMARK  4 active torsions:
REMARK  status: ('A' for Active; 'I' for Inactive)
REMARK    1  A    between atoms: O1_1  and  C1_2 
REMARK    2  A    between atoms: C4_5  and  C5_6 
REMARK    3  A    between atoms: N2_13  and  C10_14 
REMARK    4  A    between atoms: C10_14  and  C11_15 
ROOT
HETATM    1  C5  UNL     1      25.584   1.857  51.843  1.00  0.00     0.042 C 
HETATM    2  C6  UNL     1      25.702   3.079  51.348  1.00  0.00     0.036 C 
HETATM    3  C7  UNL     1      24.373   3.500  50.944  1.00  0.00     0.179 C 
HETATM    4  C8  UNL     1      23.597   2.258  50.840  1.00  0.00     0.131 C 
HETATM    5  N1  UNL     1      22.538   1.899  50.144  1.00  0.00    -0.242 NA
HETATM    6  C9  UNL     1      21.968   2.848  49.254  1.00  0.00     0.153 C 
HETATM    7  P1  UNL     1      22.669   4.361  49.081  1.00  0.00     0.078 P 
HETATM    8  N2  UNL     1      24.134   4.557  50.086  1.00  0.00    -0.358 N 
HETATM    9  N3  UNL     1      24.292   1.239  51.601  1.00  0.00    -0.342 N 
HETATM   10  H10 UNL     1      24.014   0.290  51.930  1.00  0.00     0.167 HD
ENDROOT
BRANCH   1  11
HETATM   11  C4  UNL     1      26.699   1.050  52.400  1.00  0.00    -0.009 A 
HETATM   12  C3  UNL     1      27.806   1.658  52.955  1.00  0.00     0.016 A 
HETATM   13  C2  UNL     1      28.860   0.964  53.481  1.00  0.00     0.037 A 
HETATM   14  C1  UNL     1      28.842  -0.402  53.471  1.00  0.00     0.065 A 
HETATM   15  C14 UNL     1      27.754  -1.048  52.926  1.00  0.00     0.037 A 
HETATM   16  C13 UNL     1      26.702  -0.326  52.399  1.00  0.00     0.016 A 
BRANCH  14  17
HETATM   17  O1  UNL     1      29.926  -1.094  54.012  1.00  0.00    -0.361 OA
HETATM   18  H1  UNL     1      29.712  -1.895  54.626  1.00  0.00     0.217 HD
ENDBRANCH  14  17
ENDBRANCH   1  11
BRANCH   8  19
HETATM   19  C10 UNL     1      25.268   5.125  49.407  1.00  0.00     0.194 C 
BRANCH  19  20
HETATM   20  C11 UNL     1      25.544   6.455  50.020  1.00  0.00     0.118 C 
HETATM   21  F1  UNL     1      24.858   6.796  51.158  1.00  0.00    -0.209 F 
HETATM   22  C12 UNL     1      26.415   7.364  49.549  1.00  0.00     0.095 C 
HETATM   23 BR1  UNL     1      27.054   9.111  49.993  1.00  0.00    -0.061 Br
ENDBRANCH  19  20
ENDBRANCH   8  19
TORSDOF 4
ENDMDL
