MODEL 1
REMARK VINA RESULT:      -6.7      0.000      0.000
REMARK  11 active torsions:
REMARK  status: ('A' for Active; 'I' for Inactive)
REMARK    1  A    between atoms: N1_1  and  C1_2 
REMARK    2  A    between atoms: C2_3  and  C3_4 
REMARK    3  A    between atoms: C3_4  and  C4_5 
REMARK    4  A    between atoms: N2_6  and  C5_7 
REMARK    5  A    between atoms: C5_7  and  C15_19 
REMARK    6  A    between atoms: C6_8  and  C7_9 
REMARK    7  A    between atoms: C12_15  and  C13_16 
REMARK    8  A    between atoms: C13_16  and  C14_17 
REMARK    9  A    between atoms: C14_17  and  N3_18 
REMARK   10  A    between atoms: C15_19  and  C16_20 
REMARK   11  A    between atoms: C16_20  and  O2_21 
ROOT
HETATM    1  C5  UNL     1      24.802   3.867  50.877  1.00  0.00     0.036 C 
HETATM    2  C6  UNL     1      25.217   2.681  51.363  1.00  0.00     0.035 C 
ENDROOT
BRANCH   1   3
HETATM    3  N2  UNL     1      25.665   4.691  50.053  1.00  0.00    -0.269 NA
HETATM    4  C4  UNL     1      26.702   4.215  49.458  1.00  0.00     0.093 C 
BRANCH   4   5
HETATM    5  C3  UNL     1      27.674   4.945  48.583  1.00  0.00     0.075 C 
BRANCH   5   6
HETATM    6  C2  UNL     1      27.135   6.289  48.345  1.00  0.00    -0.005 C 
HETATM    7  C1  UNL     1      27.827   7.376  48.566  1.00  0.00     0.076 C 
BRANCH   7   8
HETATM    8  N1  UNL     1      29.157   7.357  49.052  1.00  0.00    -0.408 N 
HETATM    9  H1  UNL     1      30.080   7.554  49.469  1.00  0.00     0.155 HD
HETATM   10  H2  UNL     1      29.803   6.556  48.988  1.00  0.00     0.155 HD
ENDBRANCH   7   8
ENDBRANCH   5   6
ENDBRANCH   4   5
ENDBRANCH   1   3
BRANCH   1  11
HETATM   11  C15 UNL     1      23.658   4.795  50.840  1.00  0.00     0.085 C 
BRANCH  11  12
HETATM   12  C16 UNL     1      24.030   6.254  50.981  1.00  0.00     0.170 C 
BRANCH  12  13
HETATM   13  O2  UNL     1      24.433   6.526  52.307  1.00  0.00    -0.400 OA
HETATM   14  H23 UNL     1      25.404   6.586  52.370  1.00  0.00     0.209 HD
ENDBRANCH  12  13
ENDBRANCH  11  12
ENDBRANCH   1  11
BRANCH   2  15
HETATM   15  C7  UNL     1      24.700   1.602  52.184  1.00  0.00    -0.045 C 
HETATM   16  C8  UNL     1      23.429   1.299  52.352  1.00  0.00     0.008 C 
HETATM   17  C9  UNL     1      22.848   0.234  53.151  1.00  0.00     0.004 C 
HETATM   18  C10 UNL     1      23.666  -0.566  53.810  1.00  0.00     0.051 C 
HETATM   19  C11 UNL     1      25.081  -0.279  53.643  1.00  0.00     0.157 C 
HETATM   20  O1  UNL     1      25.849  -1.108  54.201  1.00  0.00    -0.293 OA
HETATM   21  C12 UNL     1      25.742   0.815  52.935  1.00  0.00     0.094 C 
BRANCH  21  22
HETATM   22  C13 UNL     1      26.544   1.701  53.826  1.00  0.00     0.047 C 
BRANCH  22  23
HETATM   23  C14 UNL     1      28.032   1.532  53.756  1.00  0.00     0.268 C 
BRANCH  23  24
HETATM   24  N3  UNL     1      28.393   0.724  54.936  1.00  0.00     0.078 N 
HETATM   25  H17 UNL     1      27.548   0.363  55.420  1.00  0.00     0.312 HD
HETATM   26  H18 UNL     1      29.035  -0.048  54.705  1.00  0.00     0.312 HD
ENDBRANCH  23  24
ENDBRANCH  22  23
ENDBRANCH  21  22
ENDBRANCH   2  15
TORSDOF 11
ENDMDL
MODEL 2
REMARK VINA RESULT:      -6.7      2.451      4.222
REMARK  11 active torsions:
REMARK  status: ('A' for Active; 'I' for Inactive)
REMARK    1  A    between atoms: N1_1  and  C1_2 
REMARK    2  A    between atoms: C2_3  and  C3_4 
REMARK    3  A    between atoms: C3_4  and  C4_5 
REMARK    4  A    between atoms: N2_6  and  C5_7 
REMARK    5  A    between atoms: C5_7  and  C15_19 
REMARK    6  A    between atoms: C6_8  and  C7_9 
REMARK    7  A    between atoms: C12_15  and  C13_16 
REMARK    8  A    between atoms: C13_16  and  C14_17 
REMARK    9  A    between atoms: C14_17  and  N3_18 
REMARK   10  A    between atoms: C15_19  and  C16_20 
REMARK   11  A    between atoms: C16_20  and  O2_21 
ROOT
HETATM    1  C5  UNL     1      26.279   1.418  52.267  1.00  0.00     0.036 C 
HETATM    2  C6  UNL     1      24.937   1.353  52.350  1.00  0.00     0.035 C 
ENDROOT
BRANCH   1   3
HETATM    3  N2  UNL     1      26.937   2.300  51.323  1.00  0.00    -0.269 NA
HETATM    4  C4  UNL     1      26.285   2.941  50.416  1.00  0.00     0.093 C 
BRANCH   4   5
HETATM    5  C3  UNL     1      26.831   3.878  49.382  1.00  0.00     0.075 C 
BRANCH   5   6
HETATM    6  C2  UNL     1      25.891   4.998  49.257  1.00  0.00    -0.005 C 
HETATM    7  C1  UNL     1      26.285   6.238  49.130  1.00  0.00     0.076 C 
BRANCH   7   8
HETATM    8  N1  UNL     1      27.650   6.615  49.100  1.00  0.00    -0.408 N 
HETATM    9  H1  UNL     1      28.676   6.677  49.012  1.00  0.00     0.155 HD
HETATM   10  H2  UNL     1      28.015   7.550  49.338  1.00  0.00     0.155 HD
ENDBRANCH   7   8
ENDBRANCH   5   6
ENDBRANCH   4   5
ENDBRANCH   1   3
BRANCH   1  11
HETATM   11  C15 UNL     1      27.528   0.876  52.832  1.00  0.00     0.085 C 
BRANCH  11  12
HETATM   12  C16 UNL     1      28.474   1.922  53.379  1.00  0.00     0.170 C 
BRANCH  12  13
HETATM   13  O2  UNL     1      27.759   2.869  54.147  1.00  0.00    -0.400 OA
HETATM   14  H23 UNL     1      28.241   3.715  54.191  1.00  0.00     0.209 HD
ENDBRANCH  12  13
ENDBRANCH  11  12
ENDBRANCH   1  11
BRANCH   2  15
HETATM   15  C7  UNL     1      23.928   0.642  53.115  1.00  0.00    -0.045 C 
HETATM   16  C8  UNL     1      24.149  -0.364  53.937  1.00  0.00     0.008 C 
HETATM   17  C9  UNL     1      23.190  -1.112  54.733  1.00  0.00     0.004 C 
HETATM   18  C10 UNL     1      21.917  -0.767  54.658  1.00  0.00     0.051 C 
HETATM   19  C11 UNL     1      21.628   0.348  53.773  1.00  0.00     0.157 C 
HETATM   20  O1  UNL     1      20.425   0.724  53.786  1.00  0.00    -0.293 OA
HETATM   21  C12 UNL     1      22.511   1.093  52.879  1.00  0.00     0.094 C 
BRANCH  21  22
HETATM   22  C13 UNL     1      22.142   0.968  51.439  1.00  0.00     0.047 C 
BRANCH  22  23
HETATM   23  C14 UNL     1      21.691   2.229  50.764  1.00  0.00     0.268 C 
BRANCH  23  24
HETATM   24  N3  UNL     1      20.294   2.428  51.193  1.00  0.00     0.078 N 
HETATM   25  H17 UNL     1      20.239   2.672  52.200  1.00  0.00     0.312 HD
HETATM   26  H18 UNL     1      19.802   3.130  50.622  1.00  0.00     0.312 HD
ENDBRANCH  23  24
ENDBRANCH  22  23
ENDBRANCH  21  22
ENDBRANCH   2  15
TORSDOF 11
ENDMDL
MODEL 3
REMARK VINA RESULT:      -6.6      3.953      6.777
REMARK  11 active torsions:
REMARK  status: ('A' for Active; 'I' for Inactive)
REMARK    1  A    between atoms: N1_1  and  C1_2 
REMARK    2  A    between atoms: C2_3  and  C3_4 
REMARK    3  A    between atoms: C3_4  and  C4_5 
REMARK    4  A    between atoms: N2_6  and  C5_7 
REMARK    5  A    between atoms: C5_7  and  C15_19 
REMARK    6  A    between atoms: C6_8  and  C7_9 
REMARK    7  A    between atoms: C12_15  and  C13_16 
REMARK    8  A    between atoms: C13_16  and  C14_17 
REMARK    9  A    between atoms: C14_17  and  N3_18 
REMARK   10  A    between atoms: C15_19  and  C16_20 
REMARK   11  A    between atoms: C16_20  and  O2_21 
ROOT
HETATM    1  C5  UNL     1      23.983   0.704  52.595  1.00  0.00     0.036 C 
HETATM    2  C6  UNL     1      25.032   0.412  53.388  1.00  0.00     0.035 C 
ENDROOT
BRANCH   1   3
HETATM    3  N2  UNL     1      22.703   0.044  52.760  1.00  0.00    -0.269 NA
HETATM    4  C4  UNL     1      22.300  -0.392  53.902  1.00  0.00     0.093 C 
BRANCH   4   5
HETATM    5  C3  UNL     1      21.011  -1.088  54.216  1.00  0.00     0.075 C 
BRANCH   5   6
HETATM    6  C2  UNL     1      19.961  -0.469  53.399  1.00  0.00    -0.005 C 
HETATM    7  C1  UNL     1      18.757  -0.968  53.302  1.00  0.00     0.076 C 
BRANCH   7   8
HETATM    8  N1  UNL     1      18.354  -2.147  53.975  1.00  0.00    -0.408 N 
HETATM    9  H1  UNL     1      18.212  -3.104  54.332  1.00  0.00     0.155 HD
HETATM   10  H2  UNL     1      17.641  -2.194  54.719  1.00  0.00     0.155 HD
ENDBRANCH   7   8
ENDBRANCH   5   6
ENDBRANCH   4   5
ENDBRANCH   1   3
BRANCH   1  11
HETATM   11  C15 UNL     1      23.552   1.548  51.466  1.00  0.00     0.085 C 
BRANCH  11  12
HETATM   12  C16 UNL     1      24.031   2.980  51.535  1.00  0.00     0.170 C 
BRANCH  12  13
HETATM   13  O2  UNL     1      23.636   3.566  52.758  1.00  0.00    -0.400 OA
HETATM   14  H23 UNL     1      23.773   2.948  53.499  1.00  0.00     0.209 HD
ENDBRANCH  12  13
ENDBRANCH  11  12
ENDBRANCH   1  11
BRANCH   2  15
HETATM   15  C7  UNL     1      26.416   0.817  53.552  1.00  0.00    -0.045 C 
HETATM   16  C8  UNL     1      26.856   2.058  53.614  1.00  0.00     0.008 C 
HETATM   17  C9  UNL     1      28.220   2.529  53.782  1.00  0.00     0.004 C 
HETATM   18  C10 UNL     1      29.179   1.628  53.900  1.00  0.00     0.051 C 
HETATM   19  C11 UNL     1      28.738   0.244  53.851  1.00  0.00     0.157 C 
HETATM   20  O1  UNL     1      29.651  -0.599  54.060  1.00  0.00    -0.293 OA
HETATM   21  C12 UNL     1      27.411  -0.312  53.601  1.00  0.00     0.094 C 
BRANCH  21  22
HETATM   22  C13 UNL     1      27.339  -1.144  52.365  1.00  0.00     0.047 C 
BRANCH  22  23
HETATM   23  C14 UNL     1      27.085  -2.607  52.570  1.00  0.00     0.268 C 
BRANCH  23  24
HETATM   24  N3  UNL     1      28.363  -3.165  53.050  1.00  0.00     0.078 N 
HETATM   25  H17 UNL     1      28.224  -4.084  53.513  1.00  0.00     0.312 HD
HETATM   26  H18 UNL     1      29.066  -3.240  52.302  1.00  0.00     0.312 HD
ENDBRANCH  23  24
ENDBRANCH  22  23
ENDBRANCH  21  22
ENDBRANCH   2  15
TORSDOF 11
ENDMDL
MODEL 4
REMARK VINA RESULT:      -6.3      2.546      3.945
REMARK  11 active torsions:
REMARK  status: ('A' for Active; 'I' for Inactive)
REMARK    1  A    between atoms: N1_1  and  C1_2 
REMARK    2  A    between atoms: C2_3  and  C3_4 
REMARK    3  A    between atoms: C3_4  and  C4_5 
REMARK    4  A    between atoms: N2_6  and  C5_7 
REMARK    5  A    between atoms: C5_7  and  C15_19 
REMARK    6  A    between atoms: C6_8  and  C7_9 
REMARK    7  A    between atoms: C12_15  and  C13_16 
REMARK    8  A    between atoms: C13_16  and  C14_17 
REMARK    9  A    between atoms: C14_17  and  N3_18 
REMARK   10  A    between atoms: C15_19  and  C16_20 
REMARK   11  A    between atoms: C16_20  and  O2_21 
ROOT
HETATM    1  C5  UNL     1      23.797   3.029  52.061  1.00  0.00     0.036 C 
HETATM    2  C6  UNL     1      23.627   1.694  52.105  1.00  0.00     0.035 C 
ENDROOT
BRANCH   1   3
HETATM    3  N2  UNL     1      24.700   3.646  51.110  1.00  0.00    -0.269 NA
HETATM    4  C4  UNL     1      25.684   3.004  50.584  1.00  0.00     0.093 C 
BRANCH   4   5
HETATM    5  C3  UNL     1      26.689   3.513  49.595  1.00  0.00     0.075 C 
BRANCH   5   6
HETATM    6  C2  UNL     1      26.218   4.817  49.116  1.00  0.00    -0.005 C 
HETATM    7  C1  UNL     1      27.036   5.772  48.754  1.00  0.00     0.076 C 
BRANCH   7   8
HETATM    8  N1  UNL     1      28.445   5.635  48.790  1.00  0.00    -0.408 N 
HETATM    9  H1  UNL     1      29.469   5.754  48.768  1.00  0.00     0.155 HD
HETATM   10  H2  UNL     1      28.953   4.760  48.988  1.00  0.00     0.155 HD
ENDBRANCH   7   8
ENDBRANCH   5   6
ENDBRANCH   4   5
ENDBRANCH   1   3
BRANCH   1  11
HETATM   11  C15 UNL     1      23.371   4.297  52.680  1.00  0.00     0.085 C 
BRANCH  11  12
HETATM   12  C16 UNL     1      23.464   5.501  51.770  1.00  0.00     0.170 C 
BRANCH  12  13
HETATM   13  O2  UNL     1      24.340   6.461  52.324  1.00  0.00    -0.400 OA
HETATM   14  H23 UNL     1      23.858   7.075  52.907  1.00  0.00     0.209 HD
ENDBRANCH  12  13
ENDBRANCH  11  12
ENDBRANCH   1  11
BRANCH   2  15
HETATM   15  C7  UNL     1      22.862   0.719  52.861  1.00  0.00    -0.045 C 
HETATM   16  C8  UNL     1      23.341  -0.095  53.779  1.00  0.00     0.008 C 
HETATM   17  C9  UNL     1      22.632  -1.085  54.572  1.00  0.00     0.004 C 
HETATM   18  C10 UNL     1      21.332  -1.217  54.385  1.00  0.00     0.051 C 
HETATM   19  C11 UNL     1      20.756  -0.328  53.390  1.00  0.00     0.157 C 
HETATM   20  O1  UNL     1      19.502  -0.401  53.292  1.00  0.00    -0.293 OA
HETATM   21  C12 UNL     1      21.404   0.627  52.495  1.00  0.00     0.094 C 
BRANCH  21  22
HETATM   22  C13 UNL     1      21.234   0.297  51.050  1.00  0.00     0.047 C 
BRANCH  22  23
HETATM   23  C14 UNL     1      20.274   1.159  50.286  1.00  0.00     0.268 C 
BRANCH  23  24
HETATM   24  N3  UNL     1      20.239   2.445  51.009  1.00  0.00     0.078 N 
HETATM   25  H17 UNL     1      19.675   2.375  51.877  1.00  0.00     0.312 HD
HETATM   26  H18 UNL     1      21.181   2.806  51.216  1.00  0.00     0.312 HD
ENDBRANCH  23  24
ENDBRANCH  22  23
ENDBRANCH  21  22
ENDBRANCH   2  15
TORSDOF 11
ENDMDL
MODEL 5
REMARK VINA RESULT:      -6.2      3.644      7.092
REMARK  11 active torsions:
REMARK  status: ('A' for Active; 'I' for Inactive)
REMARK    1  A    between atoms: N1_1  and  C1_2 
REMARK    2  A    between atoms: C2_3  and  C3_4 
REMARK    3  A    between atoms: C3_4  and  C4_5 
REMARK    4  A    between atoms: N2_6  and  C5_7 
REMARK    5  A    between atoms: C5_7  and  C15_19 
REMARK    6  A    between atoms: C6_8  and  C7_9 
REMARK    7  A    between atoms: C12_15  and  C13_16 
REMARK    8  A    between atoms: C13_16  and  C14_17 
REMARK    9  A    between atoms: C14_17  and  N3_18 
REMARK   10  A    between atoms: C15_19  and  C16_20 
REMARK   11  A    between atoms: C16_20  and  O2_21 
ROOT
HETATM    1  C5  UNL     1      21.771   0.294  53.536  1.00  0.00     0.036 C 
HETATM    2  C6  UNL     1      22.779   0.680  52.732  1.00  0.00     0.035 C 
ENDROOT
BRANCH   1   3
HETATM    3  N2  UNL     1      20.388   0.565  53.200  1.00  0.00    -0.269 NA
HETATM    4  C4  UNL     1      19.661  -0.281  52.556  1.00  0.00     0.093 C 
BRANCH   4   5
HETATM    5  C3  UNL     1      18.228  -0.134  52.144  1.00  0.00     0.075 C 
BRANCH   5   6
HETATM    6  C2  UNL     1      18.212   0.397  50.777  1.00  0.00    -0.005 C 
HETATM    7  C1  UNL     1      18.261   1.678  50.517  1.00  0.00     0.076 C 
BRANCH   7   8
HETATM    8  N1  UNL     1      18.337   2.667  51.529  1.00  0.00    -0.408 N 
HETATM    9  H1  UNL     1      18.442   3.523  52.094  1.00  0.00     0.155 HD
HETATM   10  H2  UNL     1      18.169   2.505  52.533  1.00  0.00     0.155 HD
ENDBRANCH   7   8
ENDBRANCH   5   6
ENDBRANCH   4   5
ENDBRANCH   1   3
BRANCH   1  11
HETATM   11  C15 UNL     1      21.466  -0.396  54.803  1.00  0.00     0.085 C 
BRANCH  11  12
HETATM   12  C16 UNL     1      22.048  -1.787  54.916  1.00  0.00     0.170 C 
BRANCH  12  13
HETATM   13  O2  UNL     1      23.071  -1.808  55.889  1.00  0.00    -0.400 OA
HETATM   14  H23 UNL     1      22.812  -2.353  56.654  1.00  0.00     0.209 HD
ENDBRANCH  12  13
ENDBRANCH  11  12
ENDBRANCH   1  11
BRANCH   2  15
HETATM   15  C7  UNL     1      24.229   0.613  52.696  1.00  0.00    -0.045 C 
HETATM   16  C8  UNL     1      24.966  -0.396  53.114  1.00  0.00     0.008 C 
HETATM   17  C9  UNL     1      26.413  -0.528  53.101  1.00  0.00     0.004 C 
HETATM   18  C10 UNL     1      27.124   0.469  52.608  1.00  0.00     0.051 C 
HETATM   19  C11 UNL     1      26.352   1.600  52.121  1.00  0.00     0.157 C 
HETATM   20  O1  UNL     1      27.040   2.500  51.569  1.00  0.00    -0.293 OA
HETATM   21  C12 UNL     1      24.913   1.849  52.174  1.00  0.00     0.094 C 
BRANCH  21  22
HETATM   22  C13 UNL     1      24.547   3.047  52.985  1.00  0.00     0.047 C 
BRANCH  22  23
HETATM   23  C14 UNL     1      23.796   4.125  52.263  1.00  0.00     0.268 C 
BRANCH  23  24
HETATM   24  N3  UNL     1      23.817   5.291  53.165  1.00  0.00     0.078 N 
HETATM   25  H17 UNL     1      23.197   5.147  53.985  1.00  0.00     0.312 HD
HETATM   26  H18 UNL     1      24.770   5.537  53.470  1.00  0.00     0.312 HD
ENDBRANCH  23  24
ENDBRANCH  22  23
ENDBRANCH  21  22
ENDBRANCH   2  15
TORSDOF 11
ENDMDL
MODEL 6
REMARK VINA RESULT:      -6.2      3.467      5.982
REMARK  11 active torsions:
REMARK  status: ('A' for Active; 'I' for Inactive)
REMARK    1  A    between atoms: N1_1  and  C1_2 
REMARK    2  A    between atoms: C2_3  and  C3_4 
REMARK    3  A    between atoms: C3_4  and  C4_5 
REMARK    4  A    between atoms: N2_6  and  C5_7 
REMARK    5  A    between atoms: C5_7  and  C15_19 
REMARK    6  A    between atoms: C6_8  and  C7_9 
REMARK    7  A    between atoms: C12_15  and  C13_16 
REMARK    8  A    between atoms: C13_16  and  C14_17 
REMARK    9  A    between atoms: C14_17  and  N3_18 
REMARK   10  A    between atoms: C15_19  and  C16_20 
REMARK   11  A    between atoms: C16_20  and  O2_21 
ROOT
HETATM    1  C5  UNL     1      26.011   1.386  52.395  1.00  0.00     0.036 C 
HETATM    2  C6  UNL     1      24.741   0.992  52.605  1.00  0.00     0.035 C 
ENDROOT
BRANCH   1   3
HETATM    3  N2  UNL     1      27.135   0.596  52.857  1.00  0.00    -0.269 NA
HETATM    4  C4  UNL     1      27.529   0.615  54.082  1.00  0.00     0.093 C 
BRANCH   4   5
HETATM    5  C3  UNL     1      28.667  -0.144  54.693  1.00  0.00     0.075 C 
BRANCH   5   6
HETATM    6  C2  UNL     1      29.646  -0.406  53.632  1.00  0.00    -0.005 C 
HETATM    7  C1  UNL     1      29.792  -1.583  53.082  1.00  0.00     0.076 C 
BRANCH   7   8
HETATM    8  N1  UNL     1      29.021  -2.711  53.457  1.00  0.00    -0.408 N 
HETATM    9  H1  UNL     1      28.472  -3.441  53.935  1.00  0.00     0.155 HD
HETATM   10  H2  UNL     1      28.700  -3.452  52.816  1.00  0.00     0.155 HD
ENDBRANCH   7   8
ENDBRANCH   5   6
ENDBRANCH   4   5
ENDBRANCH   1   3
BRANCH   1  11
HETATM   11  C15 UNL     1      26.835   2.452  51.797  1.00  0.00     0.085 C 
BRANCH  11  12
HETATM   12  C16 UNL     1      26.398   2.881  50.414  1.00  0.00     0.170 C 
BRANCH  12  13
HETATM   13  O2  UNL     1      27.168   3.983  49.981  1.00  0.00    -0.400 OA
HETATM   14  H23 UNL     1      27.976   3.684  49.526  1.00  0.00     0.209 HD
ENDBRANCH  12  13
ENDBRANCH  11  12
ENDBRANCH   1  11
BRANCH   2  15
HETATM   15  C7  UNL     1      23.396   1.460  52.325  1.00  0.00    -0.045 C 
HETATM   16  C8  UNL     1      22.986   2.712  52.381  1.00  0.00     0.008 C 
HETATM   17  C9  UNL     1      21.663   3.245  52.108  1.00  0.00     0.004 C 
HETATM   18  C10 UNL     1      20.714   2.401  51.747  1.00  0.00     0.051 C 
HETATM   19  C11 UNL     1      21.124   1.010  51.658  1.00  0.00     0.157 C 
HETATM   20  O1  UNL     1      20.233   0.232  51.222  1.00  0.00    -0.293 OA
HETATM   21  C12 UNL     1      22.399   0.381  51.995  1.00  0.00     0.094 C 
BRANCH  21  22
HETATM   22  C13 UNL     1      22.297  -0.612  53.103  1.00  0.00     0.047 C 
BRANCH  22  23
HETATM   23  C14 UNL     1      21.466  -0.201  54.281  1.00  0.00     0.268 C 
BRANCH  23  24
HETATM   24  N3  UNL     1      20.244  -1.024  54.208  1.00  0.00     0.078 N 
HETATM   25  H17 UNL     1      20.473  -2.033  54.129  1.00  0.00     0.312 HD
HETATM   26  H18 UNL     1      19.608  -0.857  55.000  1.00  0.00     0.312 HD
ENDBRANCH  23  24
ENDBRANCH  22  23
ENDBRANCH  21  22
ENDBRANCH   2  15
TORSDOF 11
ENDMDL
MODEL 7
REMARK VINA RESULT:      -6.2      2.747      3.312
REMARK  11 active torsions:
REMARK  status: ('A' for Active; 'I' for Inactive)
REMARK    1  A    between atoms: N1_1  and  C1_2 
REMARK    2  A    between atoms: C2_3  and  C3_4 
REMARK    3  A    between atoms: C3_4  and  C4_5 
REMARK    4  A    between atoms: N2_6  and  C5_7 
REMARK    5  A    between atoms: C5_7  and  C15_19 
REMARK    6  A    between atoms: C6_8  and  C7_9 
REMARK    7  A    between atoms: C12_15  and  C13_16 
REMARK    8  A    between atoms: C13_16  and  C14_17 
REMARK    9  A    between atoms: C14_17  and  N3_18 
REMARK   10  A    between atoms: C15_19  and  C16_20 
REMARK   11  A    between atoms: C16_20  and  O2_21 
ROOT
HETATM    1  C5  UNL     1      25.428   5.254  49.152  1.00  0.00     0.036 C 
HETATM    2  C6  UNL     1      25.252   3.942  49.395  1.00  0.00     0.035 C 
ENDROOT
BRANCH   1   3
HETATM    3  N2  UNL     1      26.727   5.791  48.796  1.00  0.00    -0.269 NA
HETATM    4  C4  UNL     1      27.748   5.034  48.593  1.00  0.00     0.093 C 
BRANCH   4   5
HETATM    5  C3  UNL     1      29.139   5.449  48.222  1.00  0.00     0.075 C 
BRANCH   5   6
HETATM    6  C2  UNL     1      29.090   6.860  47.825  1.00  0.00    -0.005 C 
HETATM    7  C1  UNL     1      29.802   7.785  48.416  1.00  0.00     0.076 C 
BRANCH   7   8
HETATM    8  N1  UNL     1      30.684   7.509  49.489  1.00  0.00    -0.408 N 
HETATM    9  H1  UNL     1      31.384   7.133  50.146  1.00  0.00     0.155 HD
HETATM   10  H2  UNL     1      30.780   8.081  50.343  1.00  0.00     0.155 HD
ENDBRANCH   7   8
ENDBRANCH   5   6
ENDBRANCH   4   5
ENDBRANCH   1   3
BRANCH   1  11
HETATM   11  C15 UNL     1      24.729   6.551  49.092  1.00  0.00     0.085 C 
BRANCH  11  12
HETATM   12  C16 UNL     1      25.473   7.695  49.743  1.00  0.00     0.170 C 
BRANCH  12  13
HETATM   13  O2  UNL     1      25.788   7.370  51.082  1.00  0.00    -0.400 OA
HETATM   14  H23 UNL     1      25.282   7.925  51.702  1.00  0.00     0.209 HD
ENDBRANCH  12  13
ENDBRANCH  11  12
ENDBRANCH   1  11
BRANCH   2  15
HETATM   15  C7  UNL     1      24.177   3.038  49.763  1.00  0.00    -0.045 C 
HETATM   16  C8  UNL     1      23.093   2.798  49.053  1.00  0.00     0.008 C 
HETATM   17  C9  UNL     1      21.987   1.906  49.359  1.00  0.00     0.004 C 
HETATM   18  C10 UNL     1      22.036   1.220  50.487  1.00  0.00     0.051 C 
HETATM   19  C11 UNL     1      23.221   1.443  51.297  1.00  0.00     0.157 C 
HETATM   20  O1  UNL     1      23.296   0.712  52.320  1.00  0.00    -0.293 OA
HETATM   21  C12 UNL     1      24.329   2.377  51.107  1.00  0.00     0.094 C 
BRANCH  21  22
HETATM   22  C13 UNL     1      24.443   3.392  52.194  1.00  0.00     0.047 C 
BRANCH  22  23
HETATM   23  C14 UNL     1      23.257   4.289  52.383  1.00  0.00     0.268 C 
BRANCH  23  24
HETATM   24  N3  UNL     1      23.811   5.647  52.543  1.00  0.00     0.078 N 
HETATM   25  H17 UNL     1      23.305   6.179  53.276  1.00  0.00     0.312 HD
HETATM   26  H18 UNL     1      24.823   5.639  52.734  1.00  0.00     0.312 HD
ENDBRANCH  23  24
ENDBRANCH  22  23
ENDBRANCH  21  22
ENDBRANCH   2  15
TORSDOF 11
ENDMDL
MODEL 8
REMARK VINA RESULT:      -6.1      3.390      5.571
REMARK  11 active torsions:
REMARK  status: ('A' for Active; 'I' for Inactive)
REMARK    1  A    between atoms: N1_1  and  C1_2 
REMARK    2  A    between atoms: C2_3  and  C3_4 
REMARK    3  A    between atoms: C3_4  and  C4_5 
REMARK    4  A    between atoms: N2_6  and  C5_7 
REMARK    5  A    between atoms: C5_7  and  C15_19 
REMARK    6  A    between atoms: C6_8  and  C7_9 
REMARK    7  A    between atoms: C12_15  and  C13_16 
REMARK    8  A    between atoms: C13_16  and  C14_17 
REMARK    9  A    between atoms: C14_17  and  N3_18 
REMARK   10  A    between atoms: C15_19  and  C16_20 
REMARK   11  A    between atoms: C16_20  and  O2_21 
ROOT
HETATM    1  C5  UNL     1      24.810   1.094  52.402  1.00  0.00     0.036 C 
HETATM    2  C6  UNL     1      23.641   0.885  53.036  1.00  0.00     0.035 C 
ENDROOT
BRANCH   1   3
HETATM    3  N2  UNL     1      26.075   0.718  53.004  1.00  0.00    -0.269 NA
HETATM    4  C4  UNL     1      26.212   0.577  54.276  1.00  0.00     0.093 C 
BRANCH   4   5
HETATM    5  C3  UNL     1      27.451   0.195  55.028  1.00  0.00     0.075 C 
BRANCH   5   6
HETATM    6  C2  UNL     1      28.523  -0.005  54.047  1.00  0.00    -0.005 C 
HETATM    7  C1  UNL     1      29.455   0.886  53.829  1.00  0.00     0.076 C 
BRANCH   7   8
HETATM    8  N1  UNL     1      29.516   2.121  54.519  1.00  0.00    -0.408 N 
HETATM    9  H1  UNL     1      29.677   3.088  54.841  1.00  0.00     0.155 HD
HETATM   10  H2  UNL     1      29.099   2.308  55.443  1.00  0.00     0.155 HD
ENDBRANCH   7   8
ENDBRANCH   5   6
ENDBRANCH   4   5
ENDBRANCH   1   3
BRANCH   1  11
HETATM   11  C15 UNL     1      25.407   1.625  51.163  1.00  0.00     0.085 C 
BRANCH  11  12
HETATM   12  C16 UNL     1      25.989   3.014  51.294  1.00  0.00     0.170 C 
BRANCH  12  13
HETATM   13  O2  UNL     1      27.363   2.937  51.613  1.00  0.00    -0.400 OA
HETATM   14  H23 UNL     1      27.707   3.809  51.879  1.00  0.00     0.209 HD
ENDBRANCH  12  13
ENDBRANCH  11  12
ENDBRANCH   1  11
BRANCH   2  15
HETATM   15  C7  UNL     1      22.224   1.101  52.803  1.00  0.00    -0.045 C 
HETATM   16  C8  UNL     1      21.678   2.204  52.332  1.00  0.00     0.008 C 
HETATM   17  C9  UNL     1      20.276   2.482  52.072  1.00  0.00     0.004 C 
HETATM   18  C10 UNL     1      19.396   1.528  52.320  1.00  0.00     0.051 C 
HETATM   19  C11 UNL     1      19.956   0.287  52.829  1.00  0.00     0.157 C 
HETATM   20  O1  UNL     1      19.116  -0.642  52.970  1.00  0.00    -0.293 OA
HETATM   21  C12 UNL     1      21.330  -0.044  53.197  1.00  0.00     0.094 C 
BRANCH  21  22
HETATM   22  C13 UNL     1      21.493  -0.379  54.642  1.00  0.00     0.047 C 
BRANCH  22  23
HETATM   23  C14 UNL     1      21.999  -1.758  54.944  1.00  0.00     0.268 C 
BRANCH  23  24
HETATM   24  N3  UNL     1      23.268  -1.562  55.670  1.00  0.00     0.078 N 
HETATM   25  H17 UNL     1      23.877  -0.873  55.188  1.00  0.00     0.312 HD
HETATM   26  H18 UNL     1      23.122  -1.290  56.653  1.00  0.00     0.312 HD
ENDBRANCH  23  24
ENDBRANCH  22  23
ENDBRANCH  21  22
ENDBRANCH   2  15
TORSDOF 11
ENDMDL
MODEL 9
REMARK VINA RESULT:      -6.1      3.521      6.091
REMARK  11 active torsions:
REMARK  status: ('A' for Active; 'I' for Inactive)
REMARK    1  A    between atoms: N1_1  and  C1_2 
REMARK    2  A    between atoms: C2_3  and  C3_4 
REMARK    3  A    between atoms: C3_4  and  C4_5 
REMARK    4  A    between atoms: N2_6  and  C5_7 
REMARK    5  A    between atoms: C5_7  and  C15_19 
REMARK    6  A    between atoms: C6_8  and  C7_9 
REMARK    7  A    between atoms: C12_15  and  C13_16 
REMARK    8  A    between atoms: C13_16  and  C14_17 
REMARK    9  A    between atoms: C14_17  and  N3_18 
REMARK   10  A    between atoms: C15_19  and  C16_20 
REMARK   11  A    between atoms: C16_20  and  O2_21 
ROOT
HETATM    1  C5  UNL     1      23.820   1.229  52.916  1.00  0.00     0.036 C 
HETATM    2  C6  UNL     1      22.978   0.179  52.959  1.00  0.00     0.035 C 
ENDROOT
BRANCH   1   3
HETATM    3  N2  UNL     1      25.255   1.052  53.024  1.00  0.00    -0.269 NA
HETATM    4  C4  UNL     1      25.827  -0.074  52.777  1.00  0.00     0.093 C 
BRANCH   4   5
HETATM    5  C3  UNL     1      27.289  -0.397  52.848  1.00  0.00     0.075 C 
BRANCH   5   6
HETATM    6  C2  UNL     1      27.737  -0.128  54.219  1.00  0.00    -0.005 C 
HETATM    7  C1  UNL     1      28.944   0.292  54.496  1.00  0.00     0.076 C 
BRANCH   7   8
HETATM    8  N1  UNL     1      29.926   0.526  53.503  1.00  0.00    -0.408 N 
HETATM    9  H1  UNL     1      30.657   0.897  52.877  1.00  0.00     0.155 HD
HETATM   10  H2  UNL     1      30.216  -0.151  52.781  1.00  0.00     0.155 HD
ENDBRANCH   7   8
ENDBRANCH   5   6
ENDBRANCH   4   5
ENDBRANCH   1   3
BRANCH   1  11
HETATM   11  C15 UNL     1      23.878   2.696  52.783  1.00  0.00     0.085 C 
BRANCH  11  12
HETATM   12  C16 UNL     1      24.345   3.184  51.430  1.00  0.00     0.170 C 
BRANCH  12  13
HETATM   13  O2  UNL     1      25.712   3.536  51.486  1.00  0.00    -0.400 OA
HETATM   14  H23 UNL     1      25.825   4.502  51.434  1.00  0.00     0.209 HD
ENDBRANCH  12  13
ENDBRANCH  11  12
ENDBRANCH   1  11
BRANCH   2  15
HETATM   15  C7  UNL     1      21.550  -0.072  52.891  1.00  0.00    -0.045 C 
HETATM   16  C8  UNL     1      20.876  -0.912  53.651  1.00  0.00     0.008 C 
HETATM   17  C9  UNL     1      19.453  -1.205  53.639  1.00  0.00     0.004 C 
HETATM   18  C10 UNL     1      18.694  -0.563  52.769  1.00  0.00     0.051 C 
HETATM   19  C11 UNL     1      19.393   0.385  51.918  1.00  0.00     0.157 C 
HETATM   20  O1  UNL     1      18.640   1.056  51.161  1.00  0.00    -0.293 OA
HETATM   21  C12 UNL     1      20.820   0.675  51.807  1.00  0.00     0.094 C 
BRANCH  21  22
HETATM   22  C13 UNL     1      21.387   0.361  50.464  1.00  0.00     0.047 C 
BRANCH  22  23
HETATM   23  C14 UNL     1      21.614   1.531  49.554  1.00  0.00     0.268 C 
BRANCH  23  24
HETATM   24  N3  UNL     1      20.450   1.558  48.649  1.00  0.00     0.078 N 
HETATM   25  H17 UNL     1      20.482   0.776  47.968  1.00  0.00     0.312 HD
HETATM   26  H18 UNL     1      19.554   1.558  49.158  1.00  0.00     0.312 HD
ENDBRANCH  23  24
ENDBRANCH  22  23
ENDBRANCH  21  22
ENDBRANCH   2  15
TORSDOF 11
ENDMDL
