MODEL 1
REMARK VINA RESULT:      -7.5      0.000      0.000
REMARK  9 active torsions:
REMARK  status: ('A' for Active; 'I' for Inactive)
REMARK    1  A    between atoms: N1_2  and  C3_4 
REMARK    2  A    between atoms: C3_4  and  C4_5 
REMARK    3  A    between atoms: C7_8  and  C8_9 
REMARK    4  A    between atoms: C9_10  and  C10_11 
REMARK    5  A    between atoms: C10_11  and  O1_12 
REMARK    6  A    between atoms: O1_12  and  S1_13 
REMARK    7  A    between atoms: S1_13  and  C11_16 
REMARK    8  A    between atoms: C14_19  and  C15_20 
REMARK    9  A    between atoms: C15_20  and  O5_22 
ROOT
HETATM    1  O1  UNL     1      26.266   0.962  54.524  1.00  0.00    -0.268 OA
ENDROOT
BRANCH   1   2
HETATM    2  C10 UNL     1      27.219   1.063  53.519  1.00  0.00     0.218 C 
BRANCH   2   3
HETATM    3  C9  UNL     1      26.704   2.081  52.568  1.00  0.00     0.001 C 
HETATM    4  C8  UNL     1      26.513   1.838  51.286  1.00  0.00     0.013 C 
BRANCH   4   5
HETATM    5  C7  UNL     1      26.005   2.908  50.445  1.00  0.00     0.006 C 
HETATM    6  C6  UNL     1      26.757   3.828  49.868  1.00  0.00    -0.011 C 
HETATM    7  C5  UNL     1      26.075   4.850  49.042  1.00  0.00     0.042 C 
HETATM    8  C4  UNL     1      24.615   4.564  49.302  1.00  0.00     0.081 C 
HETATM    9  C18 UNL     1      24.665   3.266  50.017  1.00  0.00     0.165 C 
HETATM   10  O6  UNL     1      23.668   2.500  50.259  1.00  0.00    -0.292 OA
BRANCH   8  11
HETATM   11  C3  UNL     1      24.080   5.663  50.190  1.00  0.00     0.128 C 
BRANCH  11  12
HETATM   12  N1  UNL     1      22.701   5.939  50.064  1.00  0.00    -0.420 N 
HETATM   13  C1  UNL     1      22.085   5.737  48.807  1.00  0.00     0.142 C 
HETATM   14  C2  UNL     1      21.887   5.876  51.220  1.00  0.00     0.142 C 
ENDBRANCH  11  12
ENDBRANCH   8  11
ENDBRANCH   4   5
ENDBRANCH   2   3
ENDBRANCH   1   2
BRANCH   1  15
HETATM   15  S1  UNL     1      25.496  -0.501  54.607  1.00  0.00     0.298 S 
HETATM   16  O2  UNL     1      26.263  -1.456  53.715  1.00  0.00    -0.193 OA
HETATM   17  O3  UNL     1      25.665  -1.044  56.004  1.00  0.00    -0.193 OA
BRANCH  15  18
HETATM   18  C11 UNL     1      23.832  -0.461  54.126  1.00  0.00     0.086 A 
HETATM   19  C12 UNL     1      22.864  -1.080  54.901  1.00  0.00     0.027 A 
HETATM   20  C13 UNL     1      21.524  -1.090  54.585  1.00  0.00     0.020 A 
HETATM   21  C14 UNL     1      21.156  -0.437  53.425  1.00  0.00     0.037 A 
HETATM   22  C16 UNL     1      22.042   0.208  52.588  1.00  0.00     0.020 A 
HETATM   23  C17 UNL     1      23.375   0.173  52.976  1.00  0.00     0.027 A 
BRANCH  21  24
HETATM   24  C15 UNL     1      19.730  -0.456  53.102  1.00  0.00     0.176 C 
HETATM   25  O4  UNL     1      19.291   0.176  52.107  1.00  0.00    -0.646 OA
BRANCH  24  26
HETATM   26  O5  UNL     1      18.753  -1.130  53.810  1.00  0.00    -0.773 OA
HETATM   27  H19 UNL     1      17.881  -0.682  54.118  1.00  0.00     0.167 HD
ENDBRANCH  24  26
ENDBRANCH  21  24
ENDBRANCH  15  18
ENDBRANCH   1  15
TORSDOF 9
ENDMDL
MODEL 2
REMARK VINA RESULT:      -7.5      3.984      6.511
REMARK  9 active torsions:
REMARK  status: ('A' for Active; 'I' for Inactive)
REMARK    1  A    between atoms: N1_2  and  C3_4 
REMARK    2  A    between atoms: C3_4  and  C4_5 
REMARK    3  A    between atoms: C7_8  and  C8_9 
REMARK    4  A    between atoms: C9_10  and  C10_11 
REMARK    5  A    between atoms: C10_11  and  O1_12 
REMARK    6  A    between atoms: O1_12  and  S1_13 
REMARK    7  A    between atoms: S1_13  and  C11_16 
REMARK    8  A    between atoms: C14_19  and  C15_20 
REMARK    9  A    between atoms: C15_20  and  O5_22 
ROOT
HETATM    1  O1  UNL     1      25.537   3.475  51.102  1.00  0.00    -0.268 OA
ENDROOT
BRANCH   1   2
HETATM    2  C10 UNL     1      25.784   3.047  49.803  1.00  0.00     0.218 C 
BRANCH   2   3
HETATM    3  C9  UNL     1      26.873   3.916  49.287  1.00  0.00     0.001 C 
HETATM    4  C8  UNL     1      26.682   5.168  48.921  1.00  0.00     0.013 C 
BRANCH   4   5
HETATM    5  C7  UNL     1      27.819   5.927  48.429  1.00  0.00     0.006 C 
HETATM    6  C6  UNL     1      29.037   5.440  48.278  1.00  0.00    -0.011 C 
HETATM    7  C5  UNL     1      30.081   6.354  47.764  1.00  0.00     0.042 C 
HETATM    8  C4  UNL     1      29.373   7.688  47.747  1.00  0.00     0.081 C 
HETATM    9  C18 UNL     1      27.963   7.305  47.994  1.00  0.00     0.165 C 
HETATM   10  O6  UNL     1      26.940   8.063  47.855  1.00  0.00    -0.292 OA
BRANCH   8  11
HETATM   11  C3  UNL     1      29.927   8.518  48.882  1.00  0.00     0.128 C 
BRANCH  11  12
HETATM   12  N1  UNL     1      30.449   9.780  48.522  1.00  0.00    -0.420 N 
HETATM   13  C1  UNL     1      31.433   9.837  47.507  1.00  0.00     0.142 C 
HETATM   14  C2  UNL     1      29.658  10.932  48.746  1.00  0.00     0.142 C 
ENDBRANCH  11  12
ENDBRANCH   8  11
ENDBRANCH   4   5
ENDBRANCH   2   3
ENDBRANCH   1   2
BRANCH   1  15
HETATM   15  S1  UNL     1      24.960   2.305  52.120  1.00  0.00     0.298 S 
HETATM   16  O2  UNL     1      24.546   2.999  53.402  1.00  0.00    -0.193 OA
HETATM   17  O3  UNL     1      23.681   1.760  51.535  1.00  0.00    -0.193 OA
BRANCH  15  18
HETATM   18  C11 UNL     1      26.095   1.046  52.478  1.00  0.00     0.086 A 
HETATM   19  C12 UNL     1      27.357   1.355  52.958  1.00  0.00     0.027 A 
HETATM   20  C13 UNL     1      28.310   0.411  53.265  1.00  0.00     0.020 A 
HETATM   21  C14 UNL     1      27.958  -0.911  53.073  1.00  0.00     0.037 A 
HETATM   22  C16 UNL     1      26.729  -1.321  52.601  1.00  0.00     0.020 A 
HETATM   23  C17 UNL     1      25.823  -0.308  52.315  1.00  0.00     0.027 A 
BRANCH  21  24
HETATM   24  C15 UNL     1      28.980  -1.903  53.404  1.00  0.00     0.176 C 
HETATM   25  O4  UNL     1      30.141  -1.543  53.726  1.00  0.00    -0.646 OA
BRANCH  24  26
HETATM   26  O5  UNL     1      28.802  -3.274  53.401  1.00  0.00    -0.773 OA
HETATM   27  H19 UNL     1      29.571  -3.935  53.565  1.00  0.00     0.167 HD
ENDBRANCH  24  26
ENDBRANCH  21  24
ENDBRANCH  15  18
ENDBRANCH   1  15
TORSDOF 9
ENDMDL
MODEL 3
REMARK VINA RESULT:      -7.3      3.800      8.561
REMARK  9 active torsions:
REMARK  status: ('A' for Active; 'I' for Inactive)
REMARK    1  A    between atoms: N1_2  and  C3_4 
REMARK    2  A    between atoms: C3_4  and  C4_5 
REMARK    3  A    between atoms: C7_8  and  C8_9 
REMARK    4  A    between atoms: C9_10  and  C10_11 
REMARK    5  A    between atoms: C10_11  and  O1_12 
REMARK    6  A    between atoms: O1_12  and  S1_13 
REMARK    7  A    between atoms: S1_13  and  C11_16 
REMARK    8  A    between atoms: C14_19  and  C15_20 
REMARK    9  A    between atoms: C15_20  and  O5_22 
ROOT
HETATM    1  O1  UNL     1      23.221   3.735  50.140  1.00  0.00    -0.268 OA
ENDROOT
BRANCH   1   2
HETATM    2  C10 UNL     1      22.734   3.812  51.439  1.00  0.00     0.218 C 
BRANCH   2   3
HETATM    3  C9  UNL     1      23.483   2.791  52.217  1.00  0.00     0.001 C 
HETATM    4  C8  UNL     1      23.989   1.701  51.675  1.00  0.00     0.013 C 
BRANCH   4   5
HETATM    5  C7  UNL     1      24.703   0.769  52.530  1.00  0.00     0.006 C 
HETATM    6  C6  UNL     1      24.170   0.139  53.561  1.00  0.00    -0.011 C 
HETATM    7  C5  UNL     1      25.041  -0.779  54.328  1.00  0.00     0.042 C 
HETATM    8  C4  UNL     1      26.400  -0.530  53.718  1.00  0.00     0.081 C 
HETATM    9  C18 UNL     1      26.072   0.284  52.524  1.00  0.00     0.165 C 
HETATM   10  O6  UNL     1      26.866   0.564  51.560  1.00  0.00    -0.292 OA
BRANCH   8  11
HETATM   11  C3  UNL     1      27.216   0.258  54.716  1.00  0.00     0.128 C 
BRANCH  11  12
HETATM   12  N1  UNL     1      28.596   0.366  54.434  1.00  0.00    -0.420 N 
HETATM   13  C1  UNL     1      29.264  -0.759  53.897  1.00  0.00     0.142 C 
HETATM   14  C2  UNL     1      29.137   1.647  54.172  1.00  0.00     0.142 C 
ENDBRANCH  11  12
ENDBRANCH   8  11
ENDBRANCH   4   5
ENDBRANCH   2   3
ENDBRANCH   1   2
BRANCH   1  15
HETATM   15  S1  UNL     1      23.522   5.196  49.424  1.00  0.00     0.298 S 
HETATM   16  O2  UNL     1      22.673   5.258  48.170  1.00  0.00    -0.193 OA
HETATM   17  O3  UNL     1      22.980   6.281  50.321  1.00  0.00    -0.193 OA
BRANCH  15  18
HETATM   18  C11 UNL     1      25.185   5.464  49.017  1.00  0.00     0.086 A 
HETATM   19  C12 UNL     1      26.120   4.456  49.191  1.00  0.00     0.027 A 
HETATM   20  C13 UNL     1      27.456   4.595  48.890  1.00  0.00     0.020 A 
HETATM   21  C14 UNL     1      27.856   5.818  48.389  1.00  0.00     0.037 A 
HETATM   22  C16 UNL     1      27.003   6.882  48.180  1.00  0.00     0.020 A 
HETATM   23  C17 UNL     1      25.671   6.663  48.508  1.00  0.00     0.027 A 
BRANCH  21  24
HETATM   24  C15 UNL     1      29.277   5.950  48.073  1.00  0.00     0.176 C 
HETATM   25  O4  UNL     1      30.131   5.234  48.656  1.00  0.00    -0.646 OA
BRANCH  24  26
HETATM   26  O5  UNL     1      29.819   6.825  47.151  1.00  0.00    -0.773 OA
HETATM   27  H19 UNL     1      29.326   7.666  46.826  1.00  0.00     0.167 HD
ENDBRANCH  24  26
ENDBRANCH  21  24
ENDBRANCH  15  18
ENDBRANCH   1  15
TORSDOF 9
ENDMDL
MODEL 4
REMARK VINA RESULT:      -7.3      3.017      6.892
REMARK  9 active torsions:
REMARK  status: ('A' for Active; 'I' for Inactive)
REMARK    1  A    between atoms: N1_2  and  C3_4 
REMARK    2  A    between atoms: C3_4  and  C4_5 
REMARK    3  A    between atoms: C7_8  and  C8_9 
REMARK    4  A    between atoms: C9_10  and  C10_11 
REMARK    5  A    between atoms: C10_11  and  O1_12 
REMARK    6  A    between atoms: O1_12  and  S1_13 
REMARK    7  A    between atoms: S1_13  and  C11_16 
REMARK    8  A    between atoms: C14_19  and  C15_20 
REMARK    9  A    between atoms: C15_20  and  O5_22 
ROOT
HETATM    1  O1  UNL     1      20.599   1.296  53.359  1.00  0.00    -0.268 OA
ENDROOT
BRANCH   1   2
HETATM    2  C10 UNL     1      20.807  -0.038  53.032  1.00  0.00     0.218 C 
BRANCH   2   3
HETATM    3  C9  UNL     1      22.269  -0.181  52.812  1.00  0.00     0.001 C 
HETATM    4  C8  UNL     1      23.171   0.446  53.541  1.00  0.00     0.013 C 
BRANCH   4   5
HETATM    5  C7  UNL     1      24.576   0.234  53.239  1.00  0.00     0.006 C 
HETATM    6  C6  UNL     1      25.090  -0.912  52.832  1.00  0.00    -0.011 C 
HETATM    7  C5  UNL     1      26.546  -0.955  52.569  1.00  0.00     0.042 C 
HETATM    8  C4  UNL     1      27.009   0.397  53.059  1.00  0.00     0.081 C 
HETATM    9  C18 UNL     1      25.731   1.113  53.280  1.00  0.00     0.165 C 
HETATM   10  O6  UNL     1      25.597   2.369  53.489  1.00  0.00    -0.292 OA
BRANCH   8  11
HETATM   11  C3  UNL     1      27.756   0.185  54.356  1.00  0.00     0.128 C 
BRANCH  11  12
HETATM   12  N1  UNL     1      29.124   0.533  54.342  1.00  0.00    -0.420 N 
HETATM   13  C1  UNL     1      30.029  -0.320  53.667  1.00  0.00     0.142 C 
HETATM   14  C2  UNL     1      29.481   1.894  54.492  1.00  0.00     0.142 C 
ENDBRANCH  11  12
ENDBRANCH   8  11
ENDBRANCH   4   5
ENDBRANCH   2   3
ENDBRANCH   1   2
BRANCH   1  15
HETATM   15  S1  UNL     1      20.438   2.312  52.063  1.00  0.00     0.298 S 
HETATM   16  O2  UNL     1      19.720   1.536  50.978  1.00  0.00    -0.193 OA
HETATM   17  O3  UNL     1      19.491   3.421  52.448  1.00  0.00    -0.193 OA
BRANCH  15  18
HETATM   18  C11 UNL     1      21.936   2.927  51.447  1.00  0.00     0.086 A 
HETATM   19  C12 UNL     1      22.586   3.966  52.094  1.00  0.00     0.027 A 
HETATM   20  C13 UNL     1      23.778   4.506  51.667  1.00  0.00     0.020 A 
HETATM   21  C14 UNL     1      24.332   3.960  50.526  1.00  0.00     0.037 A 
HETATM   22  C16 UNL     1      23.765   2.926  49.811  1.00  0.00     0.020 A 
HETATM   23  C17 UNL     1      22.563   2.436  50.308  1.00  0.00     0.027 A 
BRANCH  21  24
HETATM   24  C15 UNL     1      25.597   4.543  50.084  1.00  0.00     0.176 C 
HETATM   25  O4  UNL     1      26.467   3.831  49.519  1.00  0.00    -0.646 OA
BRANCH  24  26
HETATM   26  O5  UNL     1      25.967   5.868  50.225  1.00  0.00    -0.773 OA
HETATM   27  H19 UNL     1      26.217   6.463  49.426  1.00  0.00     0.167 HD
ENDBRANCH  24  26
ENDBRANCH  21  24
ENDBRANCH  15  18
ENDBRANCH   1  15
TORSDOF 9
ENDMDL
MODEL 5
REMARK VINA RESULT:      -7.2      2.171      2.739
REMARK  9 active torsions:
REMARK  status: ('A' for Active; 'I' for Inactive)
REMARK    1  A    between atoms: N1_2  and  C3_4 
REMARK    2  A    between atoms: C3_4  and  C4_5 
REMARK    3  A    between atoms: C7_8  and  C8_9 
REMARK    4  A    between atoms: C9_10  and  C10_11 
REMARK    5  A    between atoms: C10_11  and  O1_12 
REMARK    6  A    between atoms: O1_12  and  S1_13 
REMARK    7  A    between atoms: S1_13  and  C11_16 
REMARK    8  A    between atoms: C14_19  and  C15_20 
REMARK    9  A    between atoms: C15_20  and  O5_22 
ROOT
HETATM    1  O1  UNL     1      26.630   1.727  52.842  1.00  0.00    -0.268 OA
ENDROOT
BRANCH   1   2
HETATM    2  C10 UNL     1      26.469   1.552  51.474  1.00  0.00     0.218 C 
BRANCH   2   3
HETATM    3  C9  UNL     1      26.539   2.911  50.877  1.00  0.00     0.001 C 
HETATM    4  C8  UNL     1      26.618   3.124  49.578  1.00  0.00     0.013 C 
BRANCH   4   5
HETATM    5  C7  UNL     1      26.683   4.495  49.103  1.00  0.00     0.006 C 
HETATM    6  C6  UNL     1      27.772   5.073  48.629  1.00  0.00    -0.011 C 
HETATM    7  C5  UNL     1      27.663   6.481  48.187  1.00  0.00     0.042 C 
HETATM    8  C4  UNL     1      26.266   6.856  48.624  1.00  0.00     0.081 C 
HETATM    9  C18 UNL     1      25.687   5.547  49.006  1.00  0.00     0.165 C 
HETATM   10  O6  UNL     1      24.451   5.308  49.236  1.00  0.00    -0.292 OA
BRANCH   8  11
HETATM   11  C3  UNL     1      26.387   7.776  49.817  1.00  0.00     0.128 C 
BRANCH  11  12
HETATM   12  N1  UNL     1      26.628   9.136  49.523  1.00  0.00    -0.420 N 
HETATM   13  C1  UNL     1      27.928   9.651  49.738  1.00  0.00     0.142 C 
HETATM   14  C2  UNL     1      25.808   9.780  48.567  1.00  0.00     0.142 C 
ENDBRANCH  11  12
ENDBRANCH   8  11
ENDBRANCH   4   5
ENDBRANCH   2   3
ENDBRANCH   1   2
BRANCH   1  15
HETATM   15  S1  UNL     1      26.110   0.459  53.770  1.00  0.00     0.298 S 
HETATM   16  O2  UNL     1      26.866  -0.769  53.307  1.00  0.00    -0.193 OA
HETATM   17  O3  UNL     1      26.568   0.694  55.189  1.00  0.00    -0.193 OA
BRANCH  15  18
HETATM   18  C11 UNL     1      24.405   0.163  53.683  1.00  0.00     0.086 A 
HETATM   19  C12 UNL     1      23.821  -0.808  54.481  1.00  0.00     0.027 A 
HETATM   20  C13 UNL     1      22.475  -1.099  54.469  1.00  0.00     0.020 A 
HETATM   21  C14 UNL     1      21.690  -0.365  53.602  1.00  0.00     0.037 A 
HETATM   22  C16 UNL     1      22.175   0.621  52.768  1.00  0.00     0.020 A 
HETATM   23  C17 UNL     1      23.542   0.855  52.841  1.00  0.00     0.027 A 
BRANCH  21  24
HETATM   24  C15 UNL     1      20.264  -0.685  53.599  1.00  0.00     0.176 C 
HETATM   25  O4  UNL     1      19.436   0.084  53.046  1.00  0.00    -0.646 OA
BRANCH  24  26
HETATM   26  O5  UNL     1      19.688  -1.804  54.171  1.00  0.00    -0.773 OA
HETATM   27  H19 UNL     1      20.031  -2.220  55.046  1.00  0.00     0.167 HD
ENDBRANCH  24  26
ENDBRANCH  21  24
ENDBRANCH  15  18
ENDBRANCH   1  15
TORSDOF 9
ENDMDL
MODEL 6
REMARK VINA RESULT:      -7.1      3.235      6.036
REMARK  9 active torsions:
REMARK  status: ('A' for Active; 'I' for Inactive)
REMARK    1  A    between atoms: N1_2  and  C3_4 
REMARK    2  A    between atoms: C3_4  and  C4_5 
REMARK    3  A    between atoms: C7_8  and  C8_9 
REMARK    4  A    between atoms: C9_10  and  C10_11 
REMARK    5  A    between atoms: C10_11  and  O1_12 
REMARK    6  A    between atoms: O1_12  and  S1_13 
REMARK    7  A    between atoms: S1_13  and  C11_16 
REMARK    8  A    between atoms: C14_19  and  C15_20 
REMARK    9  A    between atoms: C15_20  and  O5_22 
ROOT
HETATM    1  O1  UNL     1      22.775   4.469  49.557  1.00  0.00    -0.268 OA
ENDROOT
BRANCH   1   2
HETATM    2  C10 UNL     1      23.518   4.719  50.704  1.00  0.00     0.218 C 
BRANCH   2   3
HETATM    3  C9  UNL     1      24.249   3.460  51.000  1.00  0.00     0.001 C 
HETATM    4  C8  UNL     1      24.328   2.941  52.209  1.00  0.00     0.013 C 
BRANCH   4   5
HETATM    5  C7  UNL     1      25.069   1.704  52.386  1.00  0.00     0.006 C 
HETATM    6  C6  UNL     1      24.545   0.573  52.822  1.00  0.00    -0.011 C 
HETATM    7  C5  UNL     1      25.445  -0.596  52.943  1.00  0.00     0.042 C 
HETATM    8  C4  UNL     1      26.803   0.003  52.665  1.00  0.00     0.081 C 
HETATM    9  C18 UNL     1      26.460   1.355  52.164  1.00  0.00     0.165 C 
HETATM   10  O6  UNL     1      27.261   2.172  51.589  1.00  0.00    -0.292 OA
BRANCH   8  11
HETATM   11  C3  UNL     1      27.554   0.073  53.974  1.00  0.00     0.128 C 
BRANCH  11  12
HETATM   12  N1  UNL     1      28.931   0.370  53.878  1.00  0.00    -0.420 N 
HETATM   13  C1  UNL     1      29.409   1.555  54.485  1.00  0.00     0.142 C 
HETATM   14  C2  UNL     1      29.845  -0.694  53.689  1.00  0.00     0.142 C 
ENDBRANCH  11  12
ENDBRANCH   8  11
ENDBRANCH   4   5
ENDBRANCH   2   3
ENDBRANCH   1   2
BRANCH   1  15
HETATM   15  S1  UNL     1      21.217   3.985  49.832  1.00  0.00     0.298 S 
HETATM   16  O2  UNL     1      20.488   5.164  50.443  1.00  0.00    -0.193 OA
HETATM   17  O3  UNL     1      20.551   3.758  48.496  1.00  0.00    -0.193 OA
BRANCH  15  18
HETATM   18  C11 UNL     1      21.070   2.605  50.869  1.00  0.00     0.086 A 
HETATM   19  C12 UNL     1      20.683   2.759  52.190  1.00  0.00     0.027 A 
HETATM   20  C13 UNL     1      20.543   1.712  53.072  1.00  0.00     0.020 A 
HETATM   21  C14 UNL     1      20.811   0.449  52.583  1.00  0.00     0.037 A 
HETATM   22  C16 UNL     1      21.202   0.191  51.286  1.00  0.00     0.020 A 
HETATM   23  C17 UNL     1      21.319   1.300  50.458  1.00  0.00     0.027 A 
BRANCH  21  24
HETATM   24  C15 UNL     1      20.659  -0.654  53.531  1.00  0.00     0.176 C 
HETATM   25  O4  UNL     1      21.663  -1.153  54.100  1.00  0.00    -0.646 OA
BRANCH  24  26
HETATM   26  O5  UNL     1      19.462  -1.244  53.893  1.00  0.00    -0.773 OA
HETATM   27  H19 UNL     1      19.141  -1.297  54.868  1.00  0.00     0.167 HD
ENDBRANCH  24  26
ENDBRANCH  21  24
ENDBRANCH  15  18
ENDBRANCH   1  15
TORSDOF 9
ENDMDL
MODEL 7
REMARK VINA RESULT:      -7.0      3.379      7.388
REMARK  9 active torsions:
REMARK  status: ('A' for Active; 'I' for Inactive)
REMARK    1  A    between atoms: N1_2  and  C3_4 
REMARK    2  A    between atoms: C3_4  and  C4_5 
REMARK    3  A    between atoms: C7_8  and  C8_9 
REMARK    4  A    between atoms: C9_10  and  C10_11 
REMARK    5  A    between atoms: C10_11  and  O1_12 
REMARK    6  A    between atoms: O1_12  and  S1_13 
REMARK    7  A    between atoms: S1_13  and  C11_16 
REMARK    8  A    between atoms: C14_19  and  C15_20 
REMARK    9  A    between atoms: C15_20  and  O5_22 
ROOT
HETATM    1  O1  UNL     1      19.781   3.635  51.927  1.00  0.00    -0.268 OA
ENDROOT
BRANCH   1   2
HETATM    2  C10 UNL     1      19.964   2.283  52.188  1.00  0.00     0.218 C 
BRANCH   2   3
HETATM    3  C9  UNL     1      21.348   2.152  52.712  1.00  0.00     0.001 C 
HETATM    4  C8  UNL     1      22.222   1.290  52.231  1.00  0.00     0.013 C 
BRANCH   4   5
HETATM    5  C7  UNL     1      23.549   1.246  52.819  1.00  0.00     0.006 C 
HETATM    6  C6  UNL     1      24.340   2.294  52.964  1.00  0.00    -0.011 C 
HETATM    7  C5  UNL     1      25.665   2.072  53.585  1.00  0.00     0.042 C 
HETATM    8  C4  UNL     1      25.729   0.567  53.695  1.00  0.00     0.081 C 
HETATM    9  C18 UNL     1      24.340   0.163  53.375  1.00  0.00     0.165 C 
HETATM   10  O6  UNL     1      23.834  -1.001  53.549  1.00  0.00    -0.292 OA
BRANCH   8  11
HETATM   11  C3  UNL     1      26.703   0.069  52.653  1.00  0.00     0.128 C 
BRANCH  11  12
HETATM   12  N1  UNL     1      27.445  -1.080  53.003  1.00  0.00    -0.420 N 
HETATM   13  C1  UNL     1      27.059  -2.325  52.452  1.00  0.00     0.142 C 
HETATM   14  C2  UNL     1      28.791  -0.922  53.410  1.00  0.00     0.142 C 
ENDBRANCH  11  12
ENDBRANCH   8  11
ENDBRANCH   4   5
ENDBRANCH   2   3
ENDBRANCH   1   2
BRANCH   1  15
HETATM   15  S1  UNL     1      20.285   4.127  50.429  1.00  0.00     0.298 S 
HETATM   16  O2  UNL     1      19.745   3.124  49.429  1.00  0.00    -0.193 OA
HETATM   17  O3  UNL     1      19.590   5.425  50.100  1.00  0.00    -0.193 OA
BRANCH  15  18
HETATM   18  C11 UNL     1      22.004   4.254  50.259  1.00  0.00     0.086 A 
HETATM   19  C12 UNL     1      22.695   3.372  49.443  1.00  0.00     0.027 A 
HETATM   20  C13 UNL     1      24.059   3.412  49.258  1.00  0.00     0.020 A 
HETATM   21  C14 UNL     1      24.749   4.397  49.937  1.00  0.00     0.037 A 
HETATM   22  C16 UNL     1      24.154   5.321  50.771  1.00  0.00     0.020 A 
HETATM   23  C17 UNL     1      22.775   5.215  50.904  1.00  0.00     0.027 A 
BRANCH  21  24
HETATM   24  C15 UNL     1      26.195   4.428  49.731  1.00  0.00     0.176 C 
HETATM   25  O4  UNL     1      26.697   5.130  48.816  1.00  0.00    -0.646 OA
BRANCH  24  26
HETATM   26  O5  UNL     1      27.129   3.729  50.474  1.00  0.00    -0.773 OA
HETATM   27  H19 UNL     1      26.868   3.071  51.218  1.00  0.00     0.167 HD
ENDBRANCH  24  26
ENDBRANCH  21  24
ENDBRANCH  15  18
ENDBRANCH   1  15
TORSDOF 9
ENDMDL
MODEL 8
REMARK VINA RESULT:      -7.0      2.476      4.974
REMARK  9 active torsions:
REMARK  status: ('A' for Active; 'I' for Inactive)
REMARK    1  A    between atoms: N1_2  and  C3_4 
REMARK    2  A    between atoms: C3_4  and  C4_5 
REMARK    3  A    between atoms: C7_8  and  C8_9 
REMARK    4  A    between atoms: C9_10  and  C10_11 
REMARK    5  A    between atoms: C10_11  and  O1_12 
REMARK    6  A    between atoms: O1_12  and  S1_13 
REMARK    7  A    between atoms: S1_13  and  C11_16 
REMARK    8  A    between atoms: C14_19  and  C15_20 
REMARK    9  A    between atoms: C15_20  and  O5_22 
ROOT
HETATM    1  O1  UNL     1      21.447   2.509  52.344  1.00  0.00    -0.268 OA
ENDROOT
BRANCH   1   2
HETATM    2  C10 UNL     1      21.284   2.754  50.986  1.00  0.00     0.218 C 
BRANCH   2   3
HETATM    3  C9  UNL     1      22.474   3.539  50.567  1.00  0.00     0.001 C 
HETATM    4  C8  UNL     1      23.365   3.091  49.704  1.00  0.00     0.013 C 
BRANCH   4   5
HETATM    5  C7  UNL     1      24.491   3.943  49.366  1.00  0.00     0.006 C 
HETATM    6  C6  UNL     1      25.754   3.652  49.621  1.00  0.00    -0.011 C 
HETATM    7  C5  UNL     1      26.780   4.635  49.208  1.00  0.00     0.042 C 
HETATM    8  C4  UNL     1      25.947   5.808  48.749  1.00  0.00     0.081 C 
HETATM    9  C18 UNL     1      24.581   5.236  48.712  1.00  0.00     0.165 C 
HETATM   10  O6  UNL     1      23.552   5.776  48.175  1.00  0.00    -0.292 OA
BRANCH   8  11
HETATM   11  C3  UNL     1      26.063   6.893  49.794  1.00  0.00     0.128 C 
BRANCH  11  12
HETATM   12  N1  UNL     1      26.553   8.137  49.338  1.00  0.00    -0.420 N 
HETATM   13  C1  UNL     1      26.033   8.665  48.133  1.00  0.00     0.142 C 
HETATM   14  C2  UNL     1      27.092   9.043  50.282  1.00  0.00     0.142 C 
ENDBRANCH  11  12
ENDBRANCH   8  11
ENDBRANCH   4   5
ENDBRANCH   2   3
ENDBRANCH   1   2
BRANCH   1  15
HETATM   15  S1  UNL     1      21.990   0.989  52.715  1.00  0.00     0.298 S 
HETATM   16  O2  UNL     1      21.124   0.473  53.845  1.00  0.00    -0.193 OA
HETATM   17  O3  UNL     1      21.693   0.084  51.544  1.00  0.00    -0.193 OA
BRANCH  15  18
HETATM   18  C11 UNL     1      23.658   0.920  53.178  1.00  0.00     0.086 A 
HETATM   19  C12 UNL     1      24.217  -0.273  53.609  1.00  0.00     0.027 A 
HETATM   20  C13 UNL     1      25.532  -0.406  53.991  1.00  0.00     0.020 A 
HETATM   21  C14 UNL     1      26.314   0.731  53.932  1.00  0.00     0.037 A 
HETATM   22  C16 UNL     1      25.853   1.963  53.518  1.00  0.00     0.020 A 
HETATM   23  C17 UNL     1      24.515   2.015  53.148  1.00  0.00     0.027 A 
BRANCH  21  24
HETATM   24  C15 UNL     1      27.708   0.575  54.340  1.00  0.00     0.176 C 
HETATM   25  O4  UNL     1      28.419   1.582  54.590  1.00  0.00    -0.646 OA
BRANCH  24  26
HETATM   26  O5  UNL     1      28.373  -0.628  54.492  1.00  0.00    -0.773 OA
HETATM   27  H19 UNL     1      29.373  -0.686  54.722  1.00  0.00     0.167 HD
ENDBRANCH  24  26
ENDBRANCH  21  24
ENDBRANCH  15  18
ENDBRANCH   1  15
TORSDOF 9
ENDMDL
MODEL 9
REMARK VINA RESULT:      -7.0      4.827      7.320
REMARK  9 active torsions:
REMARK  status: ('A' for Active; 'I' for Inactive)
REMARK    1  A    between atoms: N1_2  and  C3_4 
REMARK    2  A    between atoms: C3_4  and  C4_5 
REMARK    3  A    between atoms: C7_8  and  C8_9 
REMARK    4  A    between atoms: C9_10  and  C10_11 
REMARK    5  A    between atoms: C10_11  and  O1_12 
REMARK    6  A    between atoms: O1_12  and  S1_13 
REMARK    7  A    between atoms: S1_13  and  C11_16 
REMARK    8  A    between atoms: C14_19  and  C15_20 
REMARK    9  A    between atoms: C15_20  and  O5_22 
ROOT
HETATM    1  O1  UNL     1      26.197   4.645  49.691  1.00  0.00    -0.268 OA
ENDROOT
BRANCH   1   2
HETATM    2  C10 UNL     1      25.957   5.774  48.918  1.00  0.00     0.218 C 
BRANCH   2   3
HETATM    3  C9  UNL     1      27.291   6.259  48.479  1.00  0.00     0.001 C 
HETATM    4  C8  UNL     1      28.364   5.492  48.453  1.00  0.00     0.013 C 
BRANCH   4   5
HETATM    5  C7  UNL     1      29.619   6.070  48.007  1.00  0.00     0.006 C 
HETATM    6  C6  UNL     1      29.733   6.948  47.026  1.00  0.00    -0.011 C 
HETATM    7  C5  UNL     1      31.091   7.436  46.699  1.00  0.00     0.042 C 
HETATM    8  C4  UNL     1      31.972   6.562  47.560  1.00  0.00     0.081 C 
HETATM    9  C18 UNL     1      30.991   5.892  48.446  1.00  0.00     0.165 C 
HETATM   10  O6  UNL     1      31.264   5.216  49.498  1.00  0.00    -0.292 OA
BRANCH   8  11
HETATM   11  C3  UNL     1      32.665   5.571  46.654  1.00  0.00     0.128 C 
BRANCH  11  12
HETATM   12  N1  UNL     1      33.717   4.833  47.239  1.00  0.00    -0.420 N 
HETATM   13  C1  UNL     1      34.069   3.589  46.665  1.00  0.00     0.142 C 
HETATM   14  C2  UNL     1      34.705   5.527  47.977  1.00  0.00     0.142 C 
ENDBRANCH  11  12
ENDBRANCH   8  11
ENDBRANCH   4   5
ENDBRANCH   2   3
ENDBRANCH   1   2
BRANCH   1  15
HETATM   15  S1  UNL     1      24.837   3.866  50.222  1.00  0.00     0.298 S 
HETATM   16  O2  UNL     1      24.016   4.882  50.990  1.00  0.00    -0.193 OA
HETATM   17  O3  UNL     1      23.998   3.508  49.020  1.00  0.00    -0.193 OA
BRANCH  15  18
HETATM   18  C11 UNL     1      25.148   2.488  51.226  1.00  0.00     0.086 A 
HETATM   19  C12 UNL     1      26.410   1.918  51.261  1.00  0.00     0.027 A 
HETATM   20  C13 UNL     1      26.733   0.825  52.033  1.00  0.00     0.020 A 
HETATM   21  C14 UNL     1      25.721   0.289  52.804  1.00  0.00     0.037 A 
HETATM   22  C16 UNL     1      24.434   0.784  52.839  1.00  0.00     0.020 A 
HETATM   23  C17 UNL     1      24.188   1.888  52.033  1.00  0.00     0.027 A 
BRANCH  21  24
HETATM   24  C15 UNL     1      26.078  -0.871  53.619  1.00  0.00     0.176 C 
HETATM   25  O4  UNL     1      26.915  -1.712  53.202  1.00  0.00    -0.646 OA
BRANCH  24  26
HETATM   26  O5  UNL     1      25.569  -1.164  54.870  1.00  0.00    -0.773 OA
HETATM   27  H19 UNL     1      24.573  -1.356  55.034  1.00  0.00     0.167 HD
ENDBRANCH  24  26
ENDBRANCH  21  24
ENDBRANCH  15  18
ENDBRANCH   1  15
TORSDOF 9
ENDMDL
