MODEL 1
REMARK VINA RESULT:      -8.4      0.000      0.000
REMARK  6 active torsions:
REMARK  status: ('A' for Active; 'I' for Inactive)
REMARK    1  A    between atoms: C1_2  and  N1_3 
REMARK    2  A    between atoms: N1_3  and  C2_4 
REMARK    3  A    between atoms: N4_10  and  C6_11 
REMARK    4  A    between atoms: C9_14  and  O2_15 
REMARK    5  A    between atoms: N5_19  and  C13_20 
REMARK    6  A    between atoms: C16_23  and  O3_24 
ROOT
HETATM    1  C2  UNL     1      20.258  -1.237  53.978  1.00  0.00     0.730 A 
HETATM    2  N2  UNL     1      21.136  -1.972  54.690  1.00  0.00    -0.074 NA
HETATM    3  C3  UNL     1      22.446  -1.614  54.764  1.00  0.00     0.149 A 
HETATM    4  C4  UNL     1      22.901  -0.489  54.112  1.00  0.00     0.024 A 
HETATM    5  C5  UNL     1      21.964   0.229  53.398  1.00  0.00     0.154 A 
HETATM    6  N3  UNL     1      20.668  -0.122  53.322  1.00  0.00    -0.044 NA
HETATM    7  N4  UNL     1      22.230   1.416  52.657  1.00  0.00    -0.358 N 
HETATM    8  C11 UNL     1      23.494   1.989  52.263  1.00  0.00     0.145 C 
HETATM    9  C12 UNL     1      24.455   0.821  52.068  1.00  0.00     0.143 C 
HETATM   10  N5  UNL     1      25.030   0.434  53.338  1.00  0.00    -0.375 N 
HETATM   11  C19 UNL     1      24.358  -0.351  54.372  1.00  0.00     0.167 C 
ENDROOT
BRANCH  10  12
HETATM   12  C13 UNL     1      26.356   0.821  53.671  1.00  0.00     0.030 A 
HETATM   13  C14 UNL     1      27.176   0.120  54.523  1.00  0.00     0.032 A 
HETATM   14  C15 UNL     1      28.461   0.498  54.848  1.00  0.00     0.039 A 
HETATM   15  C16 UNL     1      28.988   1.657  54.296  1.00  0.00     0.065 A 
HETATM   16  C17 UNL     1      28.176   2.381  53.434  1.00  0.00     0.039 A 
HETATM   17  C18 UNL     1      26.909   1.964  53.143  1.00  0.00     0.032 A 
BRANCH  15  18
HETATM   18  O3  UNL     1      30.279   2.058  54.609  1.00  0.00    -0.361 OA
HETATM   19  H19 UNL     1      31.065   1.779  54.034  1.00  0.00     0.217 HD
ENDBRANCH  15  18
ENDBRANCH  10  12
BRANCH   7  20
HETATM   20  C6  UNL     1      21.132   2.191  52.214  1.00  0.00     0.088 C 
HETATM   21  C7  UNL     1      20.715   1.971  50.791  1.00  0.00     0.028 C 
HETATM   22  C8  UNL     1      20.587   3.365  50.181  1.00  0.00     0.034 C 
HETATM   23  C9  UNL     1      20.192   4.175  51.423  1.00  0.00     0.120 C 
HETATM   24  C10 UNL     1      21.284   3.685  52.384  1.00  0.00     0.057 C 
BRANCH  23  25
HETATM   25  O2  UNL     1      18.938   3.734  51.836  1.00  0.00    -0.396 OA
HETATM   26  H10 UNL     1      18.523   3.182  51.125  1.00  0.00     0.210 HD
ENDBRANCH  23  25
ENDBRANCH   7  20
BRANCH   1  27
HETATM   27  N1  UNL     1      18.895  -1.652  53.931  1.00  0.00    -0.164 N 
HETATM   28  H2  UNL     1      18.551  -2.435  54.525  1.00  0.00     0.186 HD
BRANCH  27  29
HETATM   29  C1  UNL     1      18.019  -0.966  53.053  1.00  0.00     0.368 C 
HETATM   30  O1  UNL     1      16.795  -0.840  53.302  1.00  0.00    -0.283 OA
ENDBRANCH  27  29
ENDBRANCH   1  27
TORSDOF 6
ENDMDL
MODEL 2
REMARK VINA RESULT:      -8.3      2.140      7.319
REMARK  6 active torsions:
REMARK  status: ('A' for Active; 'I' for Inactive)
REMARK    1  A    between atoms: C1_2  and  N1_3 
REMARK    2  A    between atoms: N1_3  and  C2_4 
REMARK    3  A    between atoms: N4_10  and  C6_11 
REMARK    4  A    between atoms: C9_14  and  O2_15 
REMARK    5  A    between atoms: N5_19  and  C13_20 
REMARK    6  A    between atoms: C16_23  and  O3_24 
ROOT
HETATM    1  C2  UNL     1      26.478   0.365  54.367  1.00  0.00     0.730 A 
HETATM    2  N2  UNL     1      25.761  -0.624  54.938  1.00  0.00    -0.074 NA
HETATM    3  C3  UNL     1      24.455  -0.814  54.612  1.00  0.00     0.149 A 
HETATM    4  C4  UNL     1      23.838   0.001  53.690  1.00  0.00     0.024 A 
HETATM    5  C5  UNL     1      24.614   0.998  53.135  1.00  0.00     0.154 A 
HETATM    6  N3  UNL     1      25.906   1.190  53.454  1.00  0.00    -0.044 NA
HETATM    7  N4  UNL     1      24.167   1.944  52.167  1.00  0.00    -0.358 N 
HETATM    8  C11 UNL     1      22.825   2.259  51.743  1.00  0.00     0.145 C 
HETATM    9  C12 UNL     1      21.925   2.028  52.952  1.00  0.00     0.143 C 
HETATM   10  N5  UNL     1      21.564   0.630  53.043  1.00  0.00    -0.375 N 
HETATM   11  C19 UNL     1      22.427  -0.440  53.538  1.00  0.00     0.167 C 
ENDROOT
BRANCH  10  12
HETATM   12  C13 UNL     1      20.277   0.195  52.628  1.00  0.00     0.030 A 
HETATM   13  C14 UNL     1      19.675   0.573  51.452  1.00  0.00     0.032 A 
HETATM   14  C15 UNL     1      18.424   0.154  51.050  1.00  0.00     0.039 A 
HETATM   15  C16 UNL     1      17.703  -0.706  51.866  1.00  0.00     0.065 A 
HETATM   16  C17 UNL     1      18.293  -1.101  53.059  1.00  0.00     0.039 A 
HETATM   17  C18 UNL     1      19.535  -0.657  53.411  1.00  0.00     0.032 A 
BRANCH  15  18
HETATM   18  O3  UNL     1      16.442  -1.142  51.483  1.00  0.00    -0.361 OA
HETATM   19  H19 UNL     1      16.088  -2.041  51.785  1.00  0.00     0.217 HD
ENDBRANCH  15  18
ENDBRANCH  10  12
BRANCH   7  20
HETATM   20  C6  UNL     1      25.137   2.718  51.487  1.00  0.00     0.088 C 
HETATM   21  C7  UNL     1      24.653   4.022  50.930  1.00  0.00     0.028 C 
HETATM   22  C8  UNL     1      25.147   4.061  49.486  1.00  0.00     0.034 C 
HETATM   23  C9  UNL     1      26.427   3.224  49.611  1.00  0.00     0.120 C 
HETATM   24  C10 UNL     1      25.851   2.014  50.356  1.00  0.00     0.057 C 
BRANCH  23  25
HETATM   25  O2  UNL     1      27.315   3.926  50.422  1.00  0.00    -0.396 OA
HETATM   26  H10 UNL     1      27.629   4.742  49.954  1.00  0.00     0.210 HD
ENDBRANCH  23  25
ENDBRANCH   7  20
BRANCH   1  27
HETATM   27  N1  UNL     1      27.844   0.525  54.740  1.00  0.00    -0.164 N 
HETATM   28  H2  UNL     1      28.238   0.028  55.566  1.00  0.00     0.186 HD
BRANCH  27  29
HETATM   29  C1  UNL     1      28.656   1.380  53.952  1.00  0.00     0.368 C 
HETATM   30  O1  UNL     1      28.984   2.528  54.342  1.00  0.00    -0.283 OA
ENDBRANCH  27  29
ENDBRANCH   1  27
TORSDOF 6
ENDMDL
MODEL 3
REMARK VINA RESULT:      -8.2      2.886      7.882
REMARK  6 active torsions:
REMARK  status: ('A' for Active; 'I' for Inactive)
REMARK    1  A    between atoms: C1_2  and  N1_3 
REMARK    2  A    between atoms: N1_3  and  C2_4 
REMARK    3  A    between atoms: N4_10  and  C6_11 
REMARK    4  A    between atoms: C9_14  and  O2_15 
REMARK    5  A    between atoms: N5_19  and  C13_20 
REMARK    6  A    between atoms: C16_23  and  O3_24 
ROOT
HETATM    1  C2  UNL     1      23.862   5.821  51.446  1.00  0.00     0.730 A 
HETATM    2  N2  UNL     1      22.534   6.052  51.466  1.00  0.00    -0.074 NA
HETATM    3  C3  UNL     1      21.655   5.042  51.700  1.00  0.00     0.149 A 
HETATM    4  C4  UNL     1      22.106   3.760  51.923  1.00  0.00     0.024 A 
HETATM    5  C5  UNL     1      23.473   3.575  51.893  1.00  0.00     0.154 A 
HETATM    6  N3  UNL     1      24.346   4.572  51.662  1.00  0.00    -0.044 NA
HETATM    7  N4  UNL     1      24.138   2.332  52.097  1.00  0.00    -0.358 N 
HETATM    8  C11 UNL     1      23.599   0.995  52.120  1.00  0.00     0.145 C 
HETATM    9  C12 UNL     1      22.408   0.994  51.169  1.00  0.00     0.143 C 
HETATM   10  N5  UNL     1      21.226   1.478  51.851  1.00  0.00    -0.375 N 
HETATM   11  C19 UNL     1      20.931   2.878  52.147  1.00  0.00     0.167 C 
ENDROOT
BRANCH  10  12
HETATM   12  C13 UNL     1      20.234   0.566  52.299  1.00  0.00     0.030 A 
HETATM   13  C14 UNL     1      18.974   0.467  51.760  1.00  0.00     0.032 A 
HETATM   14  C15 UNL     1      18.010  -0.416  52.197  1.00  0.00     0.039 A 
HETATM   15  C16 UNL     1      18.302  -1.274  53.248  1.00  0.00     0.065 A 
HETATM   16  C17 UNL     1      19.570  -1.190  53.807  1.00  0.00     0.039 A 
HETATM   17  C18 UNL     1      20.490  -0.297  53.338  1.00  0.00     0.032 A 
BRANCH  15  18
HETATM   18  O3  UNL     1      17.348  -2.172  53.705  1.00  0.00    -0.361 OA
HETATM   19  H19 UNL     1      17.614  -3.092  54.032  1.00  0.00     0.217 HD
ENDBRANCH  15  18
ENDBRANCH  10  12
BRANCH   7  20
HETATM   20  C6  UNL     1      25.536   2.347  52.316  1.00  0.00     0.088 C 
HETATM   21  C7  UNL     1      26.327   1.345  51.530  1.00  0.00     0.028 C 
HETATM   22  C8  UNL     1      27.242   0.660  52.542  1.00  0.00     0.034 C 
HETATM   23  C9  UNL     1      27.437   1.799  53.552  1.00  0.00     0.120 C 
HETATM   24  C10 UNL     1      25.968   2.191  53.756  1.00  0.00     0.057 C 
BRANCH  23  25
HETATM   25  O2  UNL     1      28.136   2.818  52.913  1.00  0.00    -0.396 OA
HETATM   26  H10 UNL     1      27.743   3.698  53.149  1.00  0.00     0.210 HD
ENDBRANCH  23  25
ENDBRANCH   7  20
BRANCH   1  27
HETATM   27  N1  UNL     1      24.745   6.912  51.197  1.00  0.00    -0.164 N 
HETATM   28  H2  UNL     1      24.804   7.717  51.856  1.00  0.00     0.186 HD
BRANCH  27  29
HETATM   29  C1  UNL     1      25.545   6.871  50.028  1.00  0.00     0.368 C 
HETATM   30  O1  UNL     1      25.067   6.566  48.907  1.00  0.00    -0.283 OA
ENDBRANCH  27  29
ENDBRANCH   1  27
TORSDOF 6
ENDMDL
MODEL 4
REMARK VINA RESULT:      -8.0      2.415      7.379
REMARK  6 active torsions:
REMARK  status: ('A' for Active; 'I' for Inactive)
REMARK    1  A    between atoms: C1_2  and  N1_3 
REMARK    2  A    between atoms: N1_3  and  C2_4 
REMARK    3  A    between atoms: N4_10  and  C6_11 
REMARK    4  A    between atoms: C9_14  and  O2_15 
REMARK    5  A    between atoms: N5_19  and  C13_20 
REMARK    6  A    between atoms: C16_23  and  O3_24 
ROOT
HETATM    1  C2  UNL     1      25.852   0.555  53.636  1.00  0.00     0.730 A 
HETATM    2  N2  UNL     1      25.179  -0.548  54.020  1.00  0.00    -0.074 NA
HETATM    3  C3  UNL     1      23.881  -0.733  53.659  1.00  0.00     0.149 A 
HETATM    4  C4  UNL     1      23.228   0.206  52.892  1.00  0.00     0.024 A 
HETATM    5  C5  UNL     1      23.959   1.316  52.525  1.00  0.00     0.154 A 
HETATM    6  N3  UNL     1      25.244   1.503  52.879  1.00  0.00    -0.044 NA
HETATM    7  N4  UNL     1      23.471   2.397  51.736  1.00  0.00    -0.358 N 
HETATM    8  C11 UNL     1      22.116   2.726  51.368  1.00  0.00     0.145 C 
HETATM    9  C12 UNL     1      21.230   2.248  52.513  1.00  0.00     0.143 C 
HETATM   10  N5  UNL     1      20.928   0.841  52.354  1.00  0.00    -0.375 N 
HETATM   11  C19 UNL     1      21.837  -0.262  52.657  1.00  0.00     0.167 C 
ENDROOT
BRANCH  10  12
HETATM   12  C13 UNL     1      19.659   0.432  51.862  1.00  0.00     0.030 A 
HETATM   13  C14 UNL     1      19.140   0.816  50.649  1.00  0.00     0.032 A 
HETATM   14  C15 UNL     1      17.908   0.421  50.174  1.00  0.00     0.039 A 
HETATM   15  C16 UNL     1      17.118  -0.416  50.948  1.00  0.00     0.065 A 
HETATM   16  C17 UNL     1      17.623  -0.815  52.177  1.00  0.00     0.039 A 
HETATM   17  C18 UNL     1      18.851  -0.396  52.604  1.00  0.00     0.032 A 
BRANCH  15  18
HETATM   18  O3  UNL     1      15.874  -0.826  50.490  1.00  0.00    -0.361 OA
HETATM   19  H19 UNL     1      15.270  -1.400  51.066  1.00  0.00     0.217 HD
ENDBRANCH  15  18
ENDBRANCH  10  12
BRANCH   7  20
HETATM   20  C6  UNL     1      24.405   3.319  51.208  1.00  0.00     0.088 C 
HETATM   21  C7  UNL     1      24.092   4.766  51.441  1.00  0.00     0.028 C 
HETATM   22  C8  UNL     1      24.251   5.444  50.082  1.00  0.00     0.034 C 
HETATM   23  C9  UNL     1      25.324   4.548  49.450  1.00  0.00     0.120 C 
HETATM   24  C10 UNL     1      24.688   3.180  49.730  1.00  0.00     0.057 C 
BRANCH  23  25
HETATM   25  O2  UNL     1      26.495   4.706  50.185  1.00  0.00    -0.396 OA
HETATM   26  H10 UNL     1      26.914   5.579  49.971  1.00  0.00     0.210 HD
ENDBRANCH  23  25
ENDBRANCH   7  20
BRANCH   1  27
HETATM   27  N1  UNL     1      27.211   0.705  54.038  1.00  0.00    -0.164 N 
HETATM   28  H2  UNL     1      27.640   0.060  54.735  1.00  0.00     0.186 HD
BRANCH  27  29
HETATM   29  C1  UNL     1      27.967   1.756  53.461  1.00  0.00     0.368 C 
HETATM   30  O1  UNL     1      28.405   2.712  54.145  1.00  0.00    -0.283 OA
ENDBRANCH  27  29
ENDBRANCH   1  27
TORSDOF 6
ENDMDL
MODEL 5
REMARK VINA RESULT:      -7.7      3.293      6.375
REMARK  6 active torsions:
REMARK  status: ('A' for Active; 'I' for Inactive)
REMARK    1  A    between atoms: C1_2  and  N1_3 
REMARK    2  A    between atoms: N1_3  and  C2_4 
REMARK    3  A    between atoms: N4_10  and  C6_11 
REMARK    4  A    between atoms: C9_14  and  O2_15 
REMARK    5  A    between atoms: N5_19  and  C13_20 
REMARK    6  A    between atoms: C16_23  and  O3_24 
ROOT
HETATM    1  C2  UNL     1      21.386   0.363  53.725  1.00  0.00     0.730 A 
HETATM    2  N2  UNL     1      20.386   0.989  53.073  1.00  0.00    -0.074 NA
HETATM    3  C3  UNL     1      20.652   1.938  52.137  1.00  0.00     0.149 A 
HETATM    4  C4  UNL     1      21.952   2.279  51.836  1.00  0.00     0.024 A 
HETATM    5  C5  UNL     1      22.938   1.611  52.530  1.00  0.00     0.154 A 
HETATM    6  N3  UNL     1      22.680   0.671  53.457  1.00  0.00    -0.044 NA
HETATM    7  N4  UNL     1      24.339   1.816  52.368  1.00  0.00    -0.358 N 
HETATM    8  C11 UNL     1      25.039   2.878  51.689  1.00  0.00     0.145 C 
HETATM    9  C12 UNL     1      24.168   4.123  51.822  1.00  0.00     0.143 C 
HETATM   10  N5  UNL     1      23.155   4.133  50.788  1.00  0.00    -0.375 N 
HETATM   11  C19 UNL     1      21.933   3.332  50.788  1.00  0.00     0.167 C 
ENDROOT
BRANCH  10  12
HETATM   12  C13 UNL     1      23.305   4.968  49.648  1.00  0.00     0.030 A 
HETATM   13  C14 UNL     1      22.519   4.890  48.523  1.00  0.00     0.032 A 
HETATM   14  C15 UNL     1      22.667   5.698  47.416  1.00  0.00     0.039 A 
HETATM   15  C16 UNL     1      23.665   6.661  47.407  1.00  0.00     0.065 A 
HETATM   16  C17 UNL     1      24.471   6.757  48.534  1.00  0.00     0.039 A 
HETATM   17  C18 UNL     1      24.284   5.932  49.606  1.00  0.00     0.032 A 
BRANCH  15  18
HETATM   18  O3  UNL     1      23.833   7.486  46.304  1.00  0.00    -0.361 OA
HETATM   19  H19 UNL     1      23.039   7.929  45.860  1.00  0.00     0.217 HD
ENDBRANCH  15  18
ENDBRANCH  10  12
BRANCH   7  20
HETATM   20  C6  UNL     1      25.226   0.871  52.936  1.00  0.00     0.088 C 
HETATM   21  C7  UNL     1      26.062   1.368  54.076  1.00  0.00     0.028 C 
HETATM   22  C8  UNL     1      27.492   0.940  53.754  1.00  0.00     0.034 C 
HETATM   23  C9  UNL     1      27.222  -0.338  52.948  1.00  0.00     0.120 C 
HETATM   24  C10 UNL     1      26.182   0.215  51.965  1.00  0.00     0.057 C 
BRANCH  23  25
HETATM   25  O2  UNL     1      26.643  -1.268  53.807  1.00  0.00    -0.396 OA
HETATM   26  H10 UNL     1      26.078  -1.898  53.292  1.00  0.00     0.210 HD
ENDBRANCH  23  25
ENDBRANCH   7  20
BRANCH   1  27
HETATM   27  N1  UNL     1      21.058  -0.626  54.698  1.00  0.00    -0.164 N 
HETATM   28  H2  UNL     1      20.214  -0.529  55.299  1.00  0.00     0.186 HD
BRANCH  27  29
HETATM   29  C1  UNL     1      21.913  -1.750  54.822  1.00  0.00     0.368 C 
HETATM   30  O1  UNL     1      22.801  -1.813  55.707  1.00  0.00    -0.283 OA
ENDBRANCH  27  29
ENDBRANCH   1  27
TORSDOF 6
ENDMDL
MODEL 6
REMARK VINA RESULT:      -7.7      2.957      5.200
REMARK  6 active torsions:
REMARK  status: ('A' for Active; 'I' for Inactive)
REMARK    1  A    between atoms: C1_2  and  N1_3 
REMARK    2  A    between atoms: N1_3  and  C2_4 
REMARK    3  A    between atoms: N4_10  and  C6_11 
REMARK    4  A    between atoms: C9_14  and  O2_15 
REMARK    5  A    between atoms: N5_19  and  C13_20 
REMARK    6  A    between atoms: C16_23  and  O3_24 
ROOT
HETATM    1  C2  UNL     1      23.406   4.884  49.117  1.00  0.00     0.730 A 
HETATM    2  N2  UNL     1      24.729   5.072  48.941  1.00  0.00    -0.074 NA
HETATM    3  C3  UNL     1      25.636   4.293  49.588  1.00  0.00     0.149 A 
HETATM    4  C4  UNL     1      25.218   3.293  50.439  1.00  0.00     0.024 A 
HETATM    5  C5  UNL     1      23.855   3.141  50.585  1.00  0.00     0.154 A 
HETATM    6  N3  UNL     1      22.955   3.909  49.946  1.00  0.00    -0.044 NA
HETATM    7  N4  UNL     1      23.222   2.171  51.414  1.00  0.00    -0.358 N 
HETATM    8  C11 UNL     1      23.786   1.335  52.445  1.00  0.00     0.145 C 
HETATM    9  C12 UNL     1      24.937   2.125  53.059  1.00  0.00     0.143 C 
HETATM   10  N5  UNL     1      26.137   1.952  52.267  1.00  0.00    -0.375 N 
HETATM   11  C19 UNL     1      26.418   2.616  50.996  1.00  0.00     0.167 C 
ENDROOT
BRANCH  10  12
HETATM   12  C13 UNL     1      27.163   1.074  52.705  1.00  0.00     0.030 A 
HETATM   13  C14 UNL     1      27.092  -0.297  52.632  1.00  0.00     0.032 A 
HETATM   14  C15 UNL     1      28.087  -1.149  53.061  1.00  0.00     0.039 A 
HETATM   15  C16 UNL     1      29.247  -0.618  53.606  1.00  0.00     0.065 A 
HETATM   16  C17 UNL     1      29.339   0.764  53.690  1.00  0.00     0.039 A 
HETATM   17  C18 UNL     1      28.325   1.566  53.251  1.00  0.00     0.032 A 
BRANCH  15  18
HETATM   18  O3  UNL     1      30.263  -1.456  54.044  1.00  0.00    -0.361 OA
HETATM   19  H19 UNL     1      31.170  -1.086  54.299  1.00  0.00     0.217 HD
ENDBRANCH  15  18
ENDBRANCH  10  12
BRANCH   7  20
HETATM   20  C6  UNL     1      21.834   1.949  51.249  1.00  0.00     0.088 C 
HETATM   21  C7  UNL     1      20.997   2.125  52.480  1.00  0.00     0.028 C 
HETATM   22  C8  UNL     1      20.112   0.884  52.556  1.00  0.00     0.034 C 
HETATM   23  C9  UNL     1      19.976   0.551  51.064  1.00  0.00     0.120 C 
HETATM   24  C10 UNL     1      21.457   0.604  50.671  1.00  0.00     0.057 C 
BRANCH  23  25
HETATM   25  O2  UNL     1      19.268   1.587  50.462  1.00  0.00    -0.396 OA
HETATM   26  H10 UNL     1      18.586   1.941  51.089  1.00  0.00     0.210 HD
ENDBRANCH  23  25
ENDBRANCH   7  20
BRANCH   1  27
HETATM   27  N1  UNL     1      22.493   5.724  48.416  1.00  0.00    -0.164 N 
HETATM   28  H2  UNL     1      22.427   6.742  48.630  1.00  0.00     0.186 HD
BRANCH  27  29
HETATM   29  C1  UNL     1      21.678   5.138  47.415  1.00  0.00     0.368 C 
HETATM   30  O1  UNL     1      22.168   4.530  46.432  1.00  0.00    -0.283 OA
ENDBRANCH  27  29
ENDBRANCH   1  27
TORSDOF 6
ENDMDL
MODEL 7
REMARK VINA RESULT:      -7.7      1.974      7.196
REMARK  6 active torsions:
REMARK  status: ('A' for Active; 'I' for Inactive)
REMARK    1  A    between atoms: C1_2  and  N1_3 
REMARK    2  A    between atoms: N1_3  and  C2_4 
REMARK    3  A    between atoms: N4_10  and  C6_11 
REMARK    4  A    between atoms: C9_14  and  O2_15 
REMARK    5  A    between atoms: N5_19  and  C13_20 
REMARK    6  A    between atoms: C16_23  and  O3_24 
ROOT
HETATM    1  C2  UNL     1      25.753   1.111  53.020  1.00  0.00     0.730 A 
HETATM    2  N2  UNL     1      25.468  -0.004  53.724  1.00  0.00    -0.074 NA
HETATM    3  C3  UNL     1      24.202  -0.497  53.767  1.00  0.00     0.149 A 
HETATM    4  C4  UNL     1      23.182   0.135  53.090  1.00  0.00     0.024 A 
HETATM    5  C5  UNL     1      23.524   1.271  52.386  1.00  0.00     0.154 A 
HETATM    6  N3  UNL     1      24.775   1.761  52.340  1.00  0.00    -0.044 NA
HETATM    7  N4  UNL     1      22.621   2.067  51.624  1.00  0.00    -0.358 N 
HETATM    8  C11 UNL     1      21.179   2.056  51.606  1.00  0.00     0.145 C 
HETATM    9  C12 UNL     1      20.732   1.651  53.006  1.00  0.00     0.143 C 
HETATM   10  N5  UNL     1      20.737   0.209  53.132  1.00  0.00    -0.375 N 
HETATM   11  C19 UNL     1      21.924  -0.623  53.318  1.00  0.00     0.167 C 
ENDROOT
BRANCH  10  12
HETATM   12  C13 UNL     1      19.519  -0.519  53.073  1.00  0.00     0.030 A 
HETATM   13  C14 UNL     1      19.267  -1.664  53.789  1.00  0.00     0.032 A 
HETATM   14  C15 UNL     1      18.086  -2.372  53.729  1.00  0.00     0.039 A 
HETATM   15  C16 UNL     1      17.067  -1.924  52.901  1.00  0.00     0.065 A 
HETATM   16  C17 UNL     1      17.301  -0.769  52.168  1.00  0.00     0.039 A 
HETATM   17  C18 UNL     1      18.489  -0.103  52.262  1.00  0.00     0.032 A 
BRANCH  15  18
HETATM   18  O3  UNL     1      15.869  -2.620  52.824  1.00  0.00    -0.361 OA
HETATM   19  H19 UNL     1      14.985  -2.154  52.985  1.00  0.00     0.217 HD
ENDBRANCH  15  18
ENDBRANCH  10  12
BRANCH   7  20
HETATM   20  C6  UNL     1      23.158   3.028  50.736  1.00  0.00     0.088 C 
HETATM   21  C7  UNL     1      22.697   4.439  50.949  1.00  0.00     0.028 C 
HETATM   22  C8  UNL     1      22.282   4.948  49.571  1.00  0.00     0.034 C 
HETATM   23  C9  UNL     1      23.225   4.128  48.679  1.00  0.00     0.120 C 
HETATM   24  C10 UNL     1      22.958   2.736  49.266  1.00  0.00     0.057 C 
BRANCH  23  25
HETATM   25  O2  UNL     1      24.527   4.536  48.950  1.00  0.00    -0.396 OA
HETATM   26  H10 UNL     1      24.917   3.972  49.666  1.00  0.00     0.210 HD
ENDBRANCH  23  25
ENDBRANCH   7  20
BRANCH   1  27
HETATM   27  N1  UNL     1      27.095   1.589  53.004  1.00  0.00    -0.164 N 
HETATM   28  H2  UNL     1      27.400   2.312  52.319  1.00  0.00     0.186 HD
BRANCH  27  29
HETATM   29  C1  UNL     1      28.006   1.054  53.949  1.00  0.00     0.368 C 
HETATM   30  O1  UNL     1      28.809   1.782  54.582  1.00  0.00    -0.283 OA
ENDBRANCH  27  29
ENDBRANCH   1  27
TORSDOF 6
ENDMDL
MODEL 8
REMARK VINA RESULT:      -7.5      4.044      7.479
REMARK  6 active torsions:
REMARK  status: ('A' for Active; 'I' for Inactive)
REMARK    1  A    between atoms: C1_2  and  N1_3 
REMARK    2  A    between atoms: N1_3  and  C2_4 
REMARK    3  A    between atoms: N4_10  and  C6_11 
REMARK    4  A    between atoms: C9_14  and  O2_15 
REMARK    5  A    between atoms: N5_19  and  C13_20 
REMARK    6  A    between atoms: C16_23  and  O3_24 
ROOT
HETATM    1  C2  UNL     1      26.641   4.931  49.114  1.00  0.00     0.730 A 
HETATM    2  N2  UNL     1      27.147   3.726  49.446  1.00  0.00    -0.074 NA
HETATM    3  C3  UNL     1      26.429   2.852  50.200  1.00  0.00     0.149 A 
HETATM    4  C4  UNL     1      25.167   3.182  50.640  1.00  0.00     0.024 A 
HETATM    5  C5  UNL     1      24.694   4.425  50.275  1.00  0.00     0.154 A 
HETATM    6  N3  UNL     1      25.401   5.293  49.529  1.00  0.00    -0.044 NA
HETATM    7  N4  UNL     1      23.419   4.955  50.628  1.00  0.00    -0.358 N 
HETATM    8  C11 UNL     1      22.468   4.485  51.604  1.00  0.00     0.145 C 
HETATM    9  C12 UNL     1      23.280   3.835  52.719  1.00  0.00     0.143 C 
HETATM   10  N5  UNL     1      23.594   2.465  52.372  1.00  0.00    -0.375 N 
HETATM   11  C19 UNL     1      24.631   2.044  51.432  1.00  0.00     0.167 C 
ENDROOT
BRANCH  10  12
HETATM   12  C13 UNL     1      22.866   1.394  52.955  1.00  0.00     0.030 A 
HETATM   13  C14 UNL     1      21.498   1.367  53.081  1.00  0.00     0.032 A 
HETATM   14  C15 UNL     1      20.792   0.328  53.651  1.00  0.00     0.039 A 
HETATM   15  C16 UNL     1      21.481  -0.774  54.137  1.00  0.00     0.065 A 
HETATM   16  C17 UNL     1      22.864  -0.766  54.020  1.00  0.00     0.039 A 
HETATM   17  C18 UNL     1      23.517   0.287  53.448  1.00  0.00     0.032 A 
BRANCH  15  18
HETATM   18  O3  UNL     1      20.792  -1.831  54.714  1.00  0.00    -0.361 OA
HETATM   19  H19 UNL     1      21.262  -2.701  54.934  1.00  0.00     0.217 HD
ENDBRANCH  15  18
ENDBRANCH  10  12
BRANCH   7  20
HETATM   20  C6  UNL     1      22.964   6.113  49.955  1.00  0.00     0.088 C 
HETATM   21  C7  UNL     1      22.588   7.269  50.832  1.00  0.00     0.028 C 
HETATM   22  C8  UNL     1      21.219   7.731  50.339  1.00  0.00     0.034 C 
HETATM   23  C9  UNL     1      21.317   7.348  48.856  1.00  0.00     0.120 C 
HETATM   24  C10 UNL     1      21.799   5.901  49.014  1.00  0.00     0.057 C 
BRANCH  23  25
HETATM   25  O2  UNL     1      22.307   8.137  48.278  1.00  0.00    -0.396 OA
HETATM   26  H10 UNL     1      22.020   9.087  48.267  1.00  0.00     0.210 HD
ENDBRANCH  23  25
ENDBRANCH   7  20
BRANCH   1  27
HETATM   27  N1  UNL     1      27.432   5.813  48.322  1.00  0.00    -0.164 N 
HETATM   28  H2  UNL     1      27.004   6.632  47.841  1.00  0.00     0.186 HD
BRANCH  27  29
HETATM   29  C1  UNL     1      28.819   5.547  48.208  1.00  0.00     0.368 C 
HETATM   30  O1  UNL     1      29.687   6.375  48.580  1.00  0.00    -0.283 OA
ENDBRANCH  27  29
ENDBRANCH   1  27
TORSDOF 6
ENDMDL
MODEL 9
REMARK VINA RESULT:      -6.9      3.784      9.014
REMARK  6 active torsions:
REMARK  status: ('A' for Active; 'I' for Inactive)
REMARK    1  A    between atoms: C1_2  and  N1_3 
REMARK    2  A    between atoms: N1_3  and  C2_4 
REMARK    3  A    between atoms: N4_10  and  C6_11 
REMARK    4  A    between atoms: C9_14  and  O2_15 
REMARK    5  A    between atoms: N5_19  and  C13_20 
REMARK    6  A    between atoms: C16_23  and  O3_24 
ROOT
HETATM    1  C2  UNL     1      27.293   4.967  49.054  1.00  0.00     0.730 A 
HETATM    2  N2  UNL     1      26.323   5.748  48.540  1.00  0.00    -0.074 NA
HETATM    3  C3  UNL     1      25.016   5.527  48.844  1.00  0.00     0.149 A 
HETATM    4  C4  UNL     1      24.658   4.497  49.685  1.00  0.00     0.024 A 
HETATM    5  C5  UNL     1      25.687   3.726  50.185  1.00  0.00     0.154 A 
HETATM    6  N3  UNL     1      26.981   3.942  49.887  1.00  0.00    -0.044 NA
HETATM    7  N4  UNL     1      25.530   2.618  51.066  1.00  0.00    -0.358 N 
HETATM    8  C11 UNL     1      24.336   1.895  51.428  1.00  0.00     0.145 C 
HETATM    9  C12 UNL     1      23.413   1.952  50.216  1.00  0.00     0.143 C 
HETATM   10  N5  UNL     1      22.661   3.189  50.220  1.00  0.00    -0.375 N 
HETATM   11  C19 UNL     1      23.179   4.498  49.831  1.00  0.00     0.167 C 
ENDROOT
BRANCH  10  12
HETATM   12  C13 UNL     1      21.302   3.198  50.632  1.00  0.00     0.030 A 
HETATM   13  C14 UNL     1      20.235   3.049  49.779  1.00  0.00     0.032 A 
HETATM   14  C15 UNL     1      18.915   3.062  50.178  1.00  0.00     0.039 A 
HETATM   15  C16 UNL     1      18.614   3.235  51.521  1.00  0.00     0.065 A 
HETATM   16  C17 UNL     1      19.677   3.389  52.400  1.00  0.00     0.039 A 
HETATM   17  C18 UNL     1      20.968   3.369  51.954  1.00  0.00     0.032 A 
BRANCH  15  18
HETATM   18  O3  UNL     1      17.293   3.252  51.946  1.00  0.00    -0.361 OA
HETATM   19  H19 UNL     1      16.531   3.225  51.280  1.00  0.00     0.217 HD
ENDBRANCH  15  18
ENDBRANCH  10  12
BRANCH   7  20
HETATM   20  C6  UNL     1      26.680   2.105  51.712  1.00  0.00     0.088 C 
HETATM   21  C7  UNL     1      26.912   0.633  51.554  1.00  0.00     0.028 C 
HETATM   22  C8  UNL     1      27.183   0.106  52.961  1.00  0.00     0.034 C 
HETATM   23  C9  UNL     1      27.819   1.347  53.602  1.00  0.00     0.120 C 
HETATM   24  C10 UNL     1      26.771   2.390  53.194  1.00  0.00     0.057 C 
BRANCH  23  25
HETATM   25  O2  UNL     1      29.029   1.584  52.957  1.00  0.00    -0.396 OA
HETATM   26  H10 UNL     1      29.513   0.730  52.820  1.00  0.00     0.210 HD
ENDBRANCH  23  25
ENDBRANCH   7  20
BRANCH   1  27
HETATM   27  N1  UNL     1      28.649   5.238  48.709  1.00  0.00    -0.164 N 
HETATM   28  H2  UNL     1      29.401   4.542  48.895  1.00  0.00     0.186 HD
BRANCH  27  29
HETATM   29  C1  UNL     1      28.946   6.484  48.101  1.00  0.00     0.368 C 
HETATM   30  O1  UNL     1      29.954   7.158  48.427  1.00  0.00    -0.283 OA
ENDBRANCH  27  29
ENDBRANCH   1  27
TORSDOF 6
ENDMDL
