MODEL 1
REMARK VINA RESULT:      -8.8      0.000      0.000
REMARK  8 active torsions:
REMARK  status: ('A' for Active; 'I' for Inactive)
REMARK    1  A    between atoms: C2_2  and  C3_3 
REMARK    2  A    between atoms: C3_3  and  C4_4 
REMARK    3  A    between atoms: C4_4  and  N1_6 
REMARK    4  A    between atoms: C4_4  and  C6_7 
REMARK    5  A    between atoms: C6_7  and  C7_8 
REMARK    6  A    between atoms: C8_9  and  C9_10 
REMARK       I    between atoms: C9_10  and  N2_12 
REMARK    7  A    between atoms: C14_19  and  N5_20 
REMARK    8  A    between atoms: N5_20  and  C15_21 
ROOT
HETATM    1  C9  UNL     1      26.034   3.185  50.524  1.00  0.00     0.322 C 
HETATM    2  O1  UNL     1      27.067   2.538  50.736  1.00  0.00    -0.256 OA
HETATM    3  N2  UNL     1      24.783   2.716  51.069  1.00  0.00    -0.201 N 
HETATM    4  C10 UNL     1      24.725   1.518  51.843  1.00  0.00     0.136 A 
HETATM    5  C11 UNL     1      23.583   1.058  52.361  1.00  0.00     0.034 A 
HETATM    6  C12 UNL     1      22.380   1.859  52.083  1.00  0.00     0.088 A 
HETATM    7  N3  UNL     1      21.306   1.356  52.614  1.00  0.00    -0.240 NA
HETATM    8  C13 UNL     1      21.441   0.134  53.368  1.00  0.00     0.230 A 
HETATM    9  N4  UNL     1      22.465  -0.596  53.633  1.00  0.00    -0.252 NA
HETATM   10  C14 UNL     1      23.748  -0.190  53.123  1.00  0.00     0.245 A 
HETATM   11  C21 UNL     1      22.439   3.064  51.304  1.00  0.00     0.171 A 
HETATM   12  N6  UNL     1      23.594   3.420  50.852  1.00  0.00    -0.175 NA
ENDROOT
BRANCH   1  13
HETATM   13  C8  UNL     1      26.018   4.398  49.754  1.00  0.00    -0.003 C 
HETATM   14  C7  UNL     1      25.994   5.412  49.088  1.00  0.00    -0.094 C 
BRANCH  14  15
HETATM   15  C6  UNL     1      25.964   6.639  48.252  1.00  0.00     0.135 C 
BRANCH  15  16
HETATM   16  C4  UNL     1      27.353   7.191  48.316  1.00  0.00     0.161 C 
HETATM   17  C5  UNL     1      28.421   6.181  48.073  1.00  0.00     0.049 C 
BRANCH  16  18
HETATM   18  C3  UNL     1      27.431   8.376  47.377  1.00  0.00     0.041 C 
BRANCH  18  19
HETATM   19  C2  UNL     1      28.532   8.240  46.346  1.00  0.00    -0.002 C 
HETATM   20  C1  UNL     1      27.893   8.441  44.966  1.00  0.00     0.005 C 
ENDBRANCH  18  19
ENDBRANCH  16  18
BRANCH  16  21
HETATM   21  N1  UNL     1      27.511   7.760  49.663  1.00  0.00     0.088 N 
HETATM   22  H11 UNL     1      28.217   8.535  49.530  1.00  0.00     0.313 HD
HETATM   23  H12 UNL     1      28.001   7.003  50.221  1.00  0.00     0.313 HD
ENDBRANCH  16  21
ENDBRANCH  15  16
ENDBRANCH  14  15
ENDBRANCH   1  13
BRANCH  10  24
HETATM   24  N5  UNL     1      24.766  -0.137  54.143  1.00  0.00    -0.363 N 
HETATM   25  H18 UNL     1      24.438   0.019  55.099  1.00  0.00     0.162 HD
BRANCH  24  26
HETATM   26  C15 UNL     1      26.175  -0.287  53.900  1.00  0.00     0.031 A 
HETATM   27  C16 UNL     1      26.689  -1.356  53.218  1.00  0.00     0.032 A 
HETATM   28  C17 UNL     1      28.061  -1.442  53.017  1.00  0.00     0.046 A 
HETATM   29  C18 UNL     1      28.935  -0.484  53.482  1.00  0.00     0.138 A 
HETATM   30  F1  UNL     1      30.285  -0.577  53.280  1.00  0.00    -0.204 F 
HETATM   31  C19 UNL     1      28.437   0.600  54.171  1.00  0.00     0.074 A 
HETATM   32 CL1  UNL     1      29.528   1.829  54.771  1.00  0.00    -0.081 Cl
HETATM   33  C20 UNL     1      27.060   0.668  54.362  1.00  0.00     0.056 A 
ENDBRANCH  24  26
ENDBRANCH  10  24
TORSDOF 8
ENDMDL
MODEL 2
REMARK VINA RESULT:      -8.7      1.485      2.420
REMARK  8 active torsions:
REMARK  status: ('A' for Active; 'I' for Inactive)
REMARK    1  A    between atoms: C2_2  and  C3_3 
REMARK    2  A    between atoms: C3_3  and  C4_4 
REMARK    3  A    between atoms: C4_4  and  N1_6 
REMARK    4  A    between atoms: C4_4  and  C6_7 
REMARK    5  A    between atoms: C6_7  and  C7_8 
REMARK    6  A    between atoms: C8_9  and  C9_10 
REMARK       I    between atoms: C9_10  and  N2_12 
REMARK    7  A    between atoms: C14_19  and  N5_20 
REMARK    8  A    between atoms: N5_20  and  C15_21 
ROOT
HETATM    1  C9  UNL     1      25.798   3.159  50.736  1.00  0.00     0.322 C 
HETATM    2  O1  UNL     1      26.877   2.571  50.883  1.00  0.00    -0.256 OA
HETATM    3  N2  UNL     1      24.602   2.593  51.312  1.00  0.00    -0.201 N 
HETATM    4  C10 UNL     1      24.651   1.370  52.045  1.00  0.00     0.136 A 
HETATM    5  C11 UNL     1      23.563   0.820  52.591  1.00  0.00     0.034 A 
HETATM    6  C12 UNL     1      22.301   1.553  52.391  1.00  0.00     0.088 A 
HETATM    7  N3  UNL     1      21.283   0.966  52.945  1.00  0.00    -0.240 NA
HETATM    8  C13 UNL     1      21.526  -0.270  53.649  1.00  0.00     0.230 A 
HETATM    9  N4  UNL     1      22.603  -0.943  53.847  1.00  0.00    -0.252 NA
HETATM   10  C14 UNL     1      23.836  -0.439  53.301  1.00  0.00     0.245 A 
HETATM   11  C21 UNL     1      22.253   2.784  51.652  1.00  0.00     0.171 A 
HETATM   12  N6  UNL     1      23.364   3.227  51.168  1.00  0.00    -0.175 NA
ENDROOT
BRANCH   1  13
HETATM   13  C8  UNL     1      25.674   4.393  50.011  1.00  0.00    -0.003 C 
HETATM   14  C7  UNL     1      25.583   5.445  49.413  1.00  0.00    -0.094 C 
BRANCH  14  15
HETATM   15  C6  UNL     1      25.477   6.744  48.701  1.00  0.00     0.135 C 
BRANCH  15  16
HETATM   16  C4  UNL     1      25.302   7.767  49.778  1.00  0.00     0.161 C 
HETATM   17  C5  UNL     1      25.100   9.154  49.273  1.00  0.00     0.049 C 
BRANCH  16  18
HETATM   18  C3  UNL     1      24.191   7.301  50.694  1.00  0.00     0.041 C 
BRANCH  18  19
HETATM   19  C2  UNL     1      22.828   7.815  50.277  1.00  0.00    -0.002 C 
HETATM   20  C1  UNL     1      21.804   6.726  50.617  1.00  0.00     0.005 C 
ENDBRANCH  18  19
ENDBRANCH  16  18
BRANCH  16  21
HETATM   21  N1  UNL     1      26.521   7.716  50.601  1.00  0.00     0.088 N 
HETATM   22  H11 UNL     1      26.812   8.728  50.687  1.00  0.00     0.313 HD
HETATM   23  H12 UNL     1      27.245   7.249  49.982  1.00  0.00     0.313 HD
ENDBRANCH  16  21
ENDBRANCH  15  16
ENDBRANCH  14  15
ENDBRANCH   1  13
BRANCH  10  24
HETATM   24  N5  UNL     1      24.891  -0.355  54.280  1.00  0.00    -0.363 N 
HETATM   25  H18 UNL     1      24.594  -0.249  55.254  1.00  0.00     0.162 HD
BRANCH  24  26
HETATM   26  C15 UNL     1      26.295  -0.412  53.977  1.00  0.00     0.031 A 
HETATM   27  C16 UNL     1      26.843  -1.426  53.240  1.00  0.00     0.032 A 
HETATM   28  C17 UNL     1      28.208  -1.422  52.982  1.00  0.00     0.046 A 
HETATM   29  C18 UNL     1      29.042  -0.427  53.444  1.00  0.00     0.138 A 
HETATM   30  F1  UNL     1      30.385  -0.432  53.185  1.00  0.00    -0.204 F 
HETATM   31  C19 UNL     1      28.510   0.603  54.188  1.00  0.00     0.074 A 
HETATM   32 CL1  UNL     1      29.549   1.876  54.784  1.00  0.00    -0.081 Cl
HETATM   33  C20 UNL     1      27.140   0.581  54.436  1.00  0.00     0.056 A 
ENDBRANCH  24  26
ENDBRANCH  10  24
TORSDOF 8
ENDMDL
MODEL 3
REMARK VINA RESULT:      -8.4      2.443      4.056
REMARK  8 active torsions:
REMARK  status: ('A' for Active; 'I' for Inactive)
REMARK    1  A    between atoms: C2_2  and  C3_3 
REMARK    2  A    between atoms: C3_3  and  C4_4 
REMARK    3  A    between atoms: C4_4  and  N1_6 
REMARK    4  A    between atoms: C4_4  and  C6_7 
REMARK    5  A    between atoms: C6_7  and  C7_8 
REMARK    6  A    between atoms: C8_9  and  C9_10 
REMARK       I    between atoms: C9_10  and  N2_12 
REMARK    7  A    between atoms: C14_19  and  N5_20 
REMARK    8  A    between atoms: N5_20  and  C15_21 
ROOT
HETATM    1  C9  UNL     1      28.346   5.815  48.298  1.00  0.00     0.322 C 
HETATM    2  O1  UNL     1      29.298   5.121  48.673  1.00  0.00    -0.256 OA
HETATM    3  N2  UNL     1      27.010   5.468  48.718  1.00  0.00    -0.201 N 
HETATM    4  C10 UNL     1      26.777   4.337  49.556  1.00  0.00     0.136 A 
HETATM    5  C11 UNL     1      25.554   3.988  49.963  1.00  0.00     0.034 A 
HETATM    6  C12 UNL     1      24.451   4.843  49.492  1.00  0.00     0.088 A 
HETATM    7  N3  UNL     1      23.289   4.449  49.922  1.00  0.00    -0.240 NA
HETATM    8  C13 UNL     1      23.250   3.279  50.765  1.00  0.00     0.230 A 
HETATM    9  N4  UNL     1      24.181   2.506  51.198  1.00  0.00    -0.252 NA
HETATM   10  C14 UNL     1      25.540   2.792  50.819  1.00  0.00     0.245 A 
HETATM   11  C21 UNL     1      24.686   5.980  48.648  1.00  0.00     0.171 A 
HETATM   12  N6  UNL     1      25.908   6.228  48.315  1.00  0.00    -0.175 NA
ENDROOT
BRANCH   1  13
HETATM   13  C8  UNL     1      28.505   6.968  47.453  1.00  0.00    -0.003 C 
HETATM   14  C7  UNL     1      28.628   7.930  46.725  1.00  0.00    -0.094 C 
BRANCH  14  15
HETATM   15  C6  UNL     1      28.777   9.093  45.815  1.00  0.00     0.135 C 
BRANCH  15  16
HETATM   16  C4  UNL     1      28.838  10.288  46.712  1.00  0.00     0.161 C 
HETATM   17  C5  UNL     1      27.650  10.447  47.596  1.00  0.00     0.049 C 
BRANCH  16  18
HETATM   18  C3  UNL     1      30.145  10.236  47.476  1.00  0.00     0.041 C 
BRANCH  18  19
HETATM   19  C2  UNL     1      30.014  10.730  48.902  1.00  0.00    -0.002 C 
HETATM   20  C1  UNL     1      30.776  12.056  48.999  1.00  0.00     0.005 C 
ENDBRANCH  18  19
ENDBRANCH  16  18
BRANCH  16  21
HETATM   21  N1  UNL     1      28.958  11.461  45.832  1.00  0.00     0.088 N 
HETATM   22  H11 UNL     1      27.985  11.874  45.825  1.00  0.00     0.313 HD
HETATM   23  H12 UNL     1      29.117  11.058  44.865  1.00  0.00     0.313 HD
ENDBRANCH  16  21
ENDBRANCH  15  16
ENDBRANCH  14  15
ENDBRANCH   1  13
BRANCH  10  24
HETATM   24  N5  UNL     1      26.436   2.855  51.947  1.00  0.00    -0.363 N 
HETATM   25  H18 UNL     1      26.527   3.768  52.400  1.00  0.00     0.162 HD
BRANCH  24  26
HETATM   26  C15 UNL     1      27.187   1.740  52.458  1.00  0.00     0.031 A 
HETATM   27  C16 UNL     1      28.326   1.904  53.198  1.00  0.00     0.032 A 
HETATM   28  C17 UNL     1      29.006   0.785  53.662  1.00  0.00     0.046 A 
HETATM   29  C18 UNL     1      28.574  -0.498  53.405  1.00  0.00     0.138 A 
HETATM   30  F1  UNL     1      29.250  -1.594  53.866  1.00  0.00    -0.204 F 
HETATM   31  C19 UNL     1      27.429  -0.684  52.662  1.00  0.00     0.074 A 
HETATM   32 CL1  UNL     1      26.862  -2.304  52.323  1.00  0.00    -0.081 Cl
HETATM   33  C20 UNL     1      26.762   0.449  52.205  1.00  0.00     0.056 A 
ENDBRANCH  24  26
ENDBRANCH  10  24
TORSDOF 8
ENDMDL
MODEL 4
REMARK VINA RESULT:      -8.3      1.386      1.872
REMARK  8 active torsions:
REMARK  status: ('A' for Active; 'I' for Inactive)
REMARK    1  A    between atoms: C2_2  and  C3_3 
REMARK    2  A    between atoms: C3_3  and  C4_4 
REMARK    3  A    between atoms: C4_4  and  N1_6 
REMARK    4  A    between atoms: C4_4  and  C6_7 
REMARK    5  A    between atoms: C6_7  and  C7_8 
REMARK    6  A    between atoms: C8_9  and  C9_10 
REMARK       I    between atoms: C9_10  and  N2_12 
REMARK    7  A    between atoms: C14_19  and  N5_20 
REMARK    8  A    between atoms: N5_20  and  C15_21 
ROOT
HETATM    1  C9  UNL     1      26.059   4.006  50.125  1.00  0.00     0.322 C 
HETATM    2  O1  UNL     1      27.154   3.524  50.440  1.00  0.00    -0.256 OA
HETATM    3  N2  UNL     1      24.849   3.367  50.582  1.00  0.00    -0.201 N 
HETATM    4  C10 UNL     1      24.902   2.191  51.388  1.00  0.00     0.136 A 
HETATM    5  C11 UNL     1      23.801   1.575  51.827  1.00  0.00     0.034 A 
HETATM    6  C12 UNL     1      22.521   2.183  51.429  1.00  0.00     0.088 A 
HETATM    7  N3  UNL     1      21.491   1.536  51.888  1.00  0.00    -0.240 NA
HETATM    8  C13 UNL     1      21.741   0.363  52.690  1.00  0.00     0.230 A 
HETATM    9  N4  UNL     1      22.835  -0.201  53.059  1.00  0.00    -0.252 NA
HETATM   10  C14 UNL     1      24.083   0.382  52.641  1.00  0.00     0.245 A 
HETATM   11  C21 UNL     1      22.468   3.367  50.617  1.00  0.00     0.171 A 
HETATM   12  N6  UNL     1      23.592   3.882  50.248  1.00  0.00    -0.175 NA
ENDROOT
BRANCH   1  13
HETATM   13  C8  UNL     1      25.929   5.188  49.317  1.00  0.00    -0.003 C 
HETATM   14  C7  UNL     1      25.799   6.184  48.637  1.00  0.00    -0.094 C 
BRANCH  14  15
HETATM   15  C6  UNL     1      25.616   7.396  47.799  1.00  0.00     0.135 C 
BRANCH  15  16
HETATM   16  C4  UNL     1      26.895   8.161  47.931  1.00  0.00     0.161 C 
HETATM   17  C5  UNL     1      27.265   8.491  49.336  1.00  0.00     0.049 C 
BRANCH  16  18
HETATM   18  C3  UNL     1      27.977   7.397  47.196  1.00  0.00     0.041 C 
BRANCH  18  19
HETATM   19  C2  UNL     1      29.226   7.196  48.029  1.00  0.00    -0.002 C 
HETATM   20  C1  UNL     1      29.453   5.685  48.155  1.00  0.00     0.005 C 
ENDBRANCH  18  19
ENDBRANCH  16  18
BRANCH  16  21
HETATM   21  N1  UNL     1      26.717   9.403  47.164  1.00  0.00     0.088 N 
HETATM   22  H11 UNL     1      27.696   9.657  46.861  1.00  0.00     0.313 HD
HETATM   23  H12 UNL     1      26.430  10.126  47.884  1.00  0.00     0.313 HD
ENDBRANCH  16  21
ENDBRANCH  15  16
ENDBRANCH  14  15
ENDBRANCH   1  13
BRANCH  10  24
HETATM   24  N5  UNL     1      24.993   0.607  53.736  1.00  0.00    -0.363 N 
HETATM   25  H18 UNL     1      24.573   0.931  54.611  1.00  0.00     0.162 HD
BRANCH  24  26
HETATM   26  C15 UNL     1      26.415   0.408  53.672  1.00  0.00     0.031 A 
HETATM   27  C16 UNL     1      27.306   1.428  53.869  1.00  0.00     0.032 A 
HETATM   28  C17 UNL     1      28.668   1.169  53.793  1.00  0.00     0.046 A 
HETATM   29  C18 UNL     1      29.166  -0.088  53.523  1.00  0.00     0.138 A 
HETATM   30  F1  UNL     1      30.509  -0.334  53.450  1.00  0.00    -0.204 F 
HETATM   31  C19 UNL     1      28.285  -1.128  53.321  1.00  0.00     0.074 A 
HETATM   32 CL1  UNL     1      28.893  -2.732  52.977  1.00  0.00    -0.081 Cl
HETATM   33  C20 UNL     1      26.924  -0.849  53.401  1.00  0.00     0.056 A 
ENDBRANCH  24  26
ENDBRANCH  10  24
TORSDOF 8
ENDMDL
MODEL 5
REMARK VINA RESULT:      -8.1      5.632      8.473
REMARK  8 active torsions:
REMARK  status: ('A' for Active; 'I' for Inactive)
REMARK    1  A    between atoms: C2_2  and  C3_3 
REMARK    2  A    between atoms: C3_3  and  C4_4 
REMARK    3  A    between atoms: C4_4  and  N1_6 
REMARK    4  A    between atoms: C4_4  and  C6_7 
REMARK    5  A    between atoms: C6_7  and  C7_8 
REMARK    6  A    between atoms: C8_9  and  C9_10 
REMARK       I    between atoms: C9_10  and  N2_12 
REMARK    7  A    between atoms: C14_19  and  N5_20 
REMARK    8  A    between atoms: N5_20  and  C15_21 
ROOT
HETATM    1  C9  UNL     1      22.856  -0.732  53.435  1.00  0.00     0.322 C 
HETATM    2  O1  UNL     1      22.485  -1.898  53.621  1.00  0.00    -0.256 OA
HETATM    3  N2  UNL     1      21.911   0.238  52.938  1.00  0.00    -0.201 N 
HETATM    4  C10 UNL     1      20.562  -0.131  52.657  1.00  0.00     0.136 A 
HETATM    5  C11 UNL     1      19.663   0.743  52.197  1.00  0.00     0.034 A 
HETATM    6  C12 UNL     1      20.148   2.118  51.990  1.00  0.00     0.088 A 
HETATM    7  N3  UNL     1      19.226   2.916  51.541  1.00  0.00    -0.240 NA
HETATM    8  C13 UNL     1      17.913   2.362  51.317  1.00  0.00     0.230 A 
HETATM    9  N4  UNL     1      17.448   1.175  51.481  1.00  0.00    -0.252 NA
HETATM   10  C14 UNL     1      18.333   0.154  51.975  1.00  0.00     0.245 A 
HETATM   11  C21 UNL     1      21.507   2.489  52.272  1.00  0.00     0.171 A 
HETATM   12  N6  UNL     1      22.292   1.566  52.716  1.00  0.00    -0.175 NA
ENDROOT
BRANCH   1  13
HETATM   13  C8  UNL     1      24.198  -0.290  53.695  1.00  0.00    -0.003 C 
HETATM   14  C7  UNL     1      25.338   0.063  53.916  1.00  0.00    -0.094 C 
BRANCH  14  15
HETATM   15  C6  UNL     1      26.737   0.474  54.197  1.00  0.00     0.135 C 
BRANCH  15  16
HETATM   16  C4  UNL     1      26.942   1.730  53.411  1.00  0.00     0.161 C 
HETATM   17  C5  UNL     1      28.322   2.285  53.500  1.00  0.00     0.049 C 
BRANCH  16  18
HETATM   18  C3  UNL     1      26.496   1.472  51.987  1.00  0.00     0.041 C 
BRANCH  18  19
HETATM   19  C2  UNL     1      26.589   2.703  51.109  1.00  0.00    -0.002 C 
HETATM   20  C1  UNL     1      25.206   2.924  50.484  1.00  0.00     0.005 C 
ENDBRANCH  18  19
ENDBRANCH  16  18
BRANCH  16  21
HETATM   21  N1  UNL     1      25.982   2.711  53.940  1.00  0.00     0.088 N 
HETATM   22  H11 UNL     1      25.065   2.436  53.492  1.00  0.00     0.313 HD
HETATM   23  H12 UNL     1      26.265   3.632  53.497  1.00  0.00     0.313 HD
ENDBRANCH  16  21
ENDBRANCH  15  16
ENDBRANCH  14  15
ENDBRANCH   1  13
BRANCH  10  24
HETATM   24  N5  UNL     1      17.797  -0.553  53.112  1.00  0.00    -0.363 N 
HETATM   25  H18 UNL     1      17.889  -0.085  54.017  1.00  0.00     0.162 HD
BRANCH  24  26
HETATM   26  C15 UNL     1      17.157  -1.839  53.048  1.00  0.00     0.031 A 
HETATM   27  C16 UNL     1      17.693  -2.952  53.636  1.00  0.00     0.032 A 
HETATM   28  C17 UNL     1      17.025  -4.165  53.537  1.00  0.00     0.046 A 
HETATM   29  C18 UNL     1      15.830  -4.295  52.863  1.00  0.00     0.138 A 
HETATM   30  F1  UNL     1      15.179  -5.494  52.770  1.00  0.00    -0.204 F 
HETATM   31  C19 UNL     1      15.274  -3.186  52.263  1.00  0.00     0.074 A 
HETATM   32 CL1  UNL     1      13.758  -3.328  51.402  1.00  0.00    -0.081 Cl
HETATM   33  C20 UNL     1      15.959  -1.980  52.374  1.00  0.00     0.056 A 
ENDBRANCH  24  26
ENDBRANCH  10  24
TORSDOF 8
ENDMDL
MODEL 6
REMARK VINA RESULT:      -8.0      3.616      5.547
REMARK  8 active torsions:
REMARK  status: ('A' for Active; 'I' for Inactive)
REMARK    1  A    between atoms: C2_2  and  C3_3 
REMARK    2  A    between atoms: C3_3  and  C4_4 
REMARK    3  A    between atoms: C4_4  and  N1_6 
REMARK    4  A    between atoms: C4_4  and  C6_7 
REMARK    5  A    between atoms: C6_7  and  C7_8 
REMARK    6  A    between atoms: C8_9  and  C9_10 
REMARK       I    between atoms: C9_10  and  N2_12 
REMARK    7  A    between atoms: C14_19  and  N5_20 
REMARK    8  A    between atoms: N5_20  and  C15_21 
ROOT
HETATM    1  C9  UNL     1      27.175   4.853  49.118  1.00  0.00     0.322 C 
HETATM    2  O1  UNL     1      27.186   3.659  49.440  1.00  0.00    -0.256 OA
HETATM    3  N2  UNL     1      26.011   5.652  49.411  1.00  0.00    -0.201 N 
HETATM    4  C10 UNL     1      24.877   5.083  50.065  1.00  0.00     0.136 A 
HETATM    5  C11 UNL     1      23.784   5.795  50.351  1.00  0.00     0.034 A 
HETATM    6  C12 UNL     1      23.815   7.211  49.949  1.00  0.00     0.088 A 
HETATM    7  N3  UNL     1      22.723   7.846  50.255  1.00  0.00    -0.240 NA
HETATM    8  C13 UNL     1      21.680   7.101  50.918  1.00  0.00     0.230 A 
HETATM    9  N4  UNL     1      21.610   5.872  51.284  1.00  0.00    -0.252 NA
HETATM   10  C14 UNL     1      22.736   5.014  51.025  1.00  0.00     0.245 A 
HETATM   11  C21 UNL     1      24.956   7.784  49.290  1.00  0.00     0.171 A 
HETATM   12  N6  UNL     1      25.960   7.006  49.063  1.00  0.00    -0.175 NA
ENDROOT
BRANCH   1  13
HETATM   13  C8  UNL     1      28.280   5.493  48.457  1.00  0.00    -0.003 C 
HETATM   14  C7  UNL     1      29.198   6.047  47.890  1.00  0.00    -0.094 C 
BRANCH  14  15
HETATM   15  C6  UNL     1      30.307   6.731  47.177  1.00  0.00     0.135 C 
BRANCH  15  16
HETATM   16  C4  UNL     1      31.535   6.419  47.972  1.00  0.00     0.161 C 
HETATM   17  C5  UNL     1      31.529   6.987  49.349  1.00  0.00     0.049 C 
BRANCH  16  18
HETATM   18  C3  UNL     1      31.742   4.919  47.948  1.00  0.00     0.041 C 
BRANCH  18  19
HETATM   19  C2  UNL     1      32.345   4.429  46.648  1.00  0.00    -0.002 C 
HETATM   20  C1  UNL     1      31.994   2.942  46.513  1.00  0.00     0.005 C 
ENDBRANCH  18  19
ENDBRANCH  16  18
BRANCH  16  21
HETATM   21  N1  UNL     1      32.669   6.973  47.216  1.00  0.00     0.088 N 
HETATM   22  H11 UNL     1      33.059   7.719  47.855  1.00  0.00     0.313 HD
HETATM   23  H12 UNL     1      32.226   7.482  46.399  1.00  0.00     0.313 HD
ENDBRANCH  16  21
ENDBRANCH  15  16
ENDBRANCH  14  15
ENDBRANCH   1  13
BRANCH  10  24
HETATM   24  N5  UNL     1      23.181   4.301  52.196  1.00  0.00    -0.363 N 
HETATM   25  H18 UNL     1      23.608   4.869  52.933  1.00  0.00     0.162 HD
BRANCH  24  26
HETATM   26  C15 UNL     1      23.064   2.881  52.384  1.00  0.00     0.031 A 
HETATM   27  C16 UNL     1      24.128   2.102  52.751  1.00  0.00     0.032 A 
HETATM   28  C17 UNL     1      23.948   0.735  52.916  1.00  0.00     0.046 A 
HETATM   29  C18 UNL     1      22.728   0.124  52.722  1.00  0.00     0.138 A 
HETATM   30  F1  UNL     1      22.560  -1.224  52.887  1.00  0.00    -0.204 F 
HETATM   31  C19 UNL     1      21.645   0.891  52.353  1.00  0.00     0.074 A 
HETATM   32 CL1  UNL     1      20.087   0.137  52.102  1.00  0.00    -0.081 Cl
HETATM   33  C20 UNL     1      21.845   2.259  52.193  1.00  0.00     0.056 A 
ENDBRANCH  24  26
ENDBRANCH  10  24
TORSDOF 8
ENDMDL
MODEL 7
REMARK VINA RESULT:      -8.0      3.020      5.100
REMARK  8 active torsions:
REMARK  status: ('A' for Active; 'I' for Inactive)
REMARK    1  A    between atoms: C2_2  and  C3_3 
REMARK    2  A    between atoms: C3_3  and  C4_4 
REMARK    3  A    between atoms: C4_4  and  N1_6 
REMARK    4  A    between atoms: C4_4  and  C6_7 
REMARK    5  A    between atoms: C6_7  and  C7_8 
REMARK    6  A    between atoms: C8_9  and  C9_10 
REMARK       I    between atoms: C9_10  and  N2_12 
REMARK    7  A    between atoms: C14_19  and  N5_20 
REMARK    8  A    between atoms: N5_20  and  C15_21 
ROOT
HETATM    1  C9  UNL     1      29.269   6.184  48.105  1.00  0.00     0.322 C 
HETATM    2  O1  UNL     1      30.050   5.247  48.314  1.00  0.00    -0.256 OA
HETATM    3  N2  UNL     1      27.863   6.003  48.372  1.00  0.00    -0.201 N 
HETATM    4  C10 UNL     1      27.366   4.761  48.870  1.00  0.00     0.136 A 
HETATM    5  C11 UNL     1      26.071   4.562  49.127  1.00  0.00     0.034 A 
HETATM    6  C12 UNL     1      25.178   5.703  48.864  1.00  0.00     0.088 A 
HETATM    7  N3  UNL     1      23.934   5.442  49.134  1.00  0.00    -0.240 NA
HETATM    8  C13 UNL     1      23.620   4.125  49.633  1.00  0.00     0.230 A 
HETATM    9  N4  UNL     1      24.361   3.105  49.875  1.00  0.00    -0.252 NA
HETATM   10  C14 UNL     1      25.776   3.212  49.633  1.00  0.00     0.245 A 
HETATM   11  C21 UNL     1      25.679   6.952  48.362  1.00  0.00     0.171 A 
HETATM   12  N6  UNL     1      26.949   7.038  48.149  1.00  0.00    -0.175 NA
ENDROOT
BRANCH   1  13
HETATM   13  C8  UNL     1      29.698   7.461  47.604  1.00  0.00    -0.003 C 
HETATM   14  C7  UNL     1      30.063   8.530  47.162  1.00  0.00    -0.094 C 
BRANCH  14  15
HETATM   15  C6  UNL     1      30.522   9.827  46.603  1.00  0.00     0.135 C 
BRANCH  15  16
HETATM   16  C4  UNL     1      31.516  10.350  47.592  1.00  0.00     0.161 C 
HETATM   17  C5  UNL     1      32.362  11.462  47.074  1.00  0.00     0.049 C 
BRANCH  16  18
HETATM   18  C3  UNL     1      30.772  10.710  48.861  1.00  0.00     0.041 C 
BRANCH  18  19
HETATM   19  C2  UNL     1      30.687  12.204  49.090  1.00  0.00    -0.002 C 
HETATM   20  C1  UNL     1      29.209  12.600  48.982  1.00  0.00     0.005 C 
ENDBRANCH  18  19
ENDBRANCH  16  18
BRANCH  16  21
HETATM   21  N1  UNL     1      32.371   9.211  47.961  1.00  0.00     0.088 N 
HETATM   22  H11 UNL     1      31.738   8.595  48.540  1.00  0.00     0.313 HD
HETATM   23  H12 UNL     1      33.086   9.617  48.631  1.00  0.00     0.313 HD
ENDBRANCH  16  21
ENDBRANCH  15  16
ENDBRANCH  14  15
ENDBRANCH   1  13
BRANCH  10  24
HETATM   24  N5  UNL     1      26.572   2.811  50.767  1.00  0.00    -0.363 N 
HETATM   25  H18 UNL     1      27.491   3.253  50.850  1.00  0.00     0.162 HD
BRANCH  24  26
HETATM   26  C15 UNL     1      26.161   1.855  51.758  1.00  0.00     0.031 A 
HETATM   27  C16 UNL     1      25.283   2.173  52.759  1.00  0.00     0.032 A 
HETATM   28  C17 UNL     1      24.926   1.203  53.686  1.00  0.00     0.046 A 
HETATM   29  C18 UNL     1      25.425  -0.081  53.640  1.00  0.00     0.138 A 
HETATM   30  F1  UNL     1      25.068  -1.030  54.558  1.00  0.00    -0.204 F 
HETATM   31  C19 UNL     1      26.310  -0.420  52.640  1.00  0.00     0.074 A 
HETATM   32 CL1  UNL     1      26.958  -2.043  52.561  1.00  0.00    -0.081 Cl
HETATM   33  C20 UNL     1      26.656   0.566  51.720  1.00  0.00     0.056 A 
ENDBRANCH  24  26
ENDBRANCH  10  24
TORSDOF 8
ENDMDL
MODEL 8
REMARK VINA RESULT:      -8.0      2.532      4.090
REMARK  8 active torsions:
REMARK  status: ('A' for Active; 'I' for Inactive)
REMARK    1  A    between atoms: C2_2  and  C3_3 
REMARK    2  A    between atoms: C3_3  and  C4_4 
REMARK    3  A    between atoms: C4_4  and  N1_6 
REMARK    4  A    between atoms: C4_4  and  C6_7 
REMARK    5  A    between atoms: C6_7  and  C7_8 
REMARK    6  A    between atoms: C8_9  and  C9_10 
REMARK       I    between atoms: C9_10  and  N2_12 
REMARK    7  A    between atoms: C14_19  and  N5_20 
REMARK    8  A    between atoms: N5_20  and  C15_21 
ROOT
HETATM    1  C9  UNL     1      26.834   4.619  49.322  1.00  0.00     0.322 C 
HETATM    2  O1  UNL     1      27.131   3.595  49.948  1.00  0.00    -0.256 OA
HETATM    3  N2  UNL     1      25.462   5.068  49.312  1.00  0.00    -0.201 N 
HETATM    4  C10 UNL     1      24.451   4.345  50.013  1.00  0.00     0.136 A 
HETATM    5  C11 UNL     1      23.173   4.733  50.024  1.00  0.00     0.034 A 
HETATM    6  C12 UNL     1      22.865   5.957  49.266  1.00  0.00     0.088 A 
HETATM    7  N3  UNL     1      21.607   6.278  49.317  1.00  0.00    -0.240 NA
HETATM    8  C13 UNL     1      20.729   5.424  50.079  1.00  0.00     0.230 A 
HETATM    9  N4  UNL     1      20.952   4.352  50.751  1.00  0.00    -0.252 NA
HETATM   10  C14 UNL     1      22.298   3.845  50.806  1.00  0.00     0.245 A 
HETATM   11  C21 UNL     1      23.883   6.683  48.560  1.00  0.00     0.171 A 
HETATM   12  N6  UNL     1      25.087   6.221  48.616  1.00  0.00    -0.175 NA
ENDROOT
BRANCH   1  13
HETATM   13  C8  UNL     1      27.799   5.397  48.594  1.00  0.00    -0.003 C 
HETATM   14  C7  UNL     1      28.608   6.070  47.991  1.00  0.00    -0.094 C 
BRANCH  14  15
HETATM   15  C6  UNL     1      29.584   6.915  47.257  1.00  0.00     0.135 C 
BRANCH  15  16
HETATM   16  C4  UNL     1      29.725   8.156  48.079  1.00  0.00     0.161 C 
HETATM   17  C5  UNL     1      30.668   9.159  47.511  1.00  0.00     0.049 C 
BRANCH  16  18
HETATM   18  C3  UNL     1      28.340   8.716  48.325  1.00  0.00     0.041 C 
BRANCH  18  19
HETATM   19  C2  UNL     1      28.201   9.370  49.685  1.00  0.00    -0.002 C 
HETATM   20  C1  UNL     1      26.870   8.903  50.284  1.00  0.00     0.005 C 
ENDBRANCH  18  19
ENDBRANCH  16  18
BRANCH  16  21
HETATM   21  N1  UNL     1      30.202   7.725  49.402  1.00  0.00     0.088 N 
HETATM   22  H11 UNL     1      29.314   7.558  49.950  1.00  0.00     0.313 HD
HETATM   23  H12 UNL     1      30.653   8.588  49.821  1.00  0.00     0.313 HD
ENDBRANCH  16  21
ENDBRANCH  15  16
ENDBRANCH  14  15
ENDBRANCH   1  13
BRANCH  10  24
HETATM   24  N5  UNL     1      22.750   3.596  52.153  1.00  0.00    -0.363 N 
HETATM   25  H18 UNL     1      22.624   4.362  52.819  1.00  0.00     0.162 HD
BRANCH  24  26
HETATM   26  C15 UNL     1      23.350   2.368  52.600  1.00  0.00     0.031 A 
HETATM   27  C16 UNL     1      22.669   1.181  52.604  1.00  0.00     0.032 A 
HETATM   28  C17 UNL     1      23.306   0.030  53.049  1.00  0.00     0.046 A 
HETATM   29  C18 UNL     1      24.611   0.035  53.492  1.00  0.00     0.138 A 
HETATM   30  F1  UNL     1      25.230  -1.104  53.928  1.00  0.00    -0.204 F 
HETATM   31  C19 UNL     1      25.314   1.220  53.496  1.00  0.00     0.074 A 
HETATM   32 CL1  UNL     1      26.971   1.250  54.054  1.00  0.00    -0.081 Cl
HETATM   33  C20 UNL     1      24.658   2.363  53.046  1.00  0.00     0.056 A 
ENDBRANCH  24  26
ENDBRANCH  10  24
TORSDOF 8
ENDMDL
MODEL 9
REMARK VINA RESULT:      -8.0      3.310      5.125
REMARK  8 active torsions:
REMARK  status: ('A' for Active; 'I' for Inactive)
REMARK    1  A    between atoms: C2_2  and  C3_3 
REMARK    2  A    between atoms: C3_3  and  C4_4 
REMARK    3  A    between atoms: C4_4  and  N1_6 
REMARK    4  A    between atoms: C4_4  and  C6_7 
REMARK    5  A    between atoms: C6_7  and  C7_8 
REMARK    6  A    between atoms: C8_9  and  C9_10 
REMARK       I    between atoms: C9_10  and  N2_12 
REMARK    7  A    between atoms: C14_19  and  N5_20 
REMARK    8  A    between atoms: N5_20  and  C15_21 
ROOT
HETATM    1  C9  UNL     1      27.082   4.665  49.159  1.00  0.00     0.322 C 
HETATM    2  O1  UNL     1      27.077   3.458  49.431  1.00  0.00    -0.256 OA
HETATM    3  N2  UNL     1      25.919   5.462  49.463  1.00  0.00    -0.201 N 
HETATM    4  C10 UNL     1      24.768   4.876  50.070  1.00  0.00     0.136 A 
HETATM    5  C11 UNL     1      23.677   5.587  50.365  1.00  0.00     0.034 A 
HETATM    6  C12 UNL     1      23.727   7.018  50.023  1.00  0.00     0.088 A 
HETATM    7  N3  UNL     1      22.635   7.650  50.335  1.00  0.00    -0.240 NA
HETATM    8  C13 UNL     1      21.573   6.888  50.946  1.00  0.00     0.230 A 
HETATM    9  N4  UNL     1      21.485   5.645  51.259  1.00  0.00    -0.252 NA
HETATM   10  C14 UNL     1      22.608   4.788  50.985  1.00  0.00     0.245 A 
HETATM   11  C21 UNL     1      24.885   7.607  49.412  1.00  0.00     0.171 A 
HETATM   12  N6  UNL     1      25.887   6.830  49.171  1.00  0.00    -0.175 NA
ENDROOT
BRANCH   1  13
HETATM   13  C8  UNL     1      28.205   5.322  48.547  1.00  0.00    -0.003 C 
HETATM   14  C7  UNL     1      29.147   5.895  48.040  1.00  0.00    -0.094 C 
BRANCH  14  15
HETATM   15  C6  UNL     1      30.287   6.617  47.422  1.00  0.00     0.135 C 
BRANCH  15  16
HETATM   16  C4  UNL     1      31.096   7.129  48.571  1.00  0.00     0.161 C 
HETATM   17  C5  UNL     1      31.666   6.061  49.439  1.00  0.00     0.049 C 
BRANCH  16  18
HETATM   18  C3  UNL     1      32.146   8.073  48.023  1.00  0.00     0.041 C 
BRANCH  18  19
HETATM   19  C2  UNL     1      33.546   7.499  48.091  1.00  0.00    -0.002 C 
HETATM   20  C1  UNL     1      34.053   7.357  46.651  1.00  0.00     0.005 C 
ENDBRANCH  18  19
ENDBRANCH  16  18
BRANCH  16  21
HETATM   21  N1  UNL     1      30.196   7.981  49.365  1.00  0.00     0.088 N 
HETATM   22  H11 UNL     1      29.911   8.744  48.692  1.00  0.00     0.313 HD
HETATM   23  H12 UNL     1      30.824   8.438  50.086  1.00  0.00     0.313 HD
ENDBRANCH  16  21
ENDBRANCH  15  16
ENDBRANCH  14  15
ENDBRANCH   1  13
BRANCH  10  24
HETATM   24  N5  UNL     1      23.025   4.023  52.134  1.00  0.00    -0.363 N 
HETATM   25  H18 UNL     1      23.514   4.542  52.868  1.00  0.00     0.162 HD
BRANCH  24  26
HETATM   26  C15 UNL     1      22.798   2.613  52.305  1.00  0.00     0.031 A 
HETATM   27  C16 UNL     1      21.592   2.029  52.031  1.00  0.00     0.032 A 
HETATM   28  C17 UNL     1      21.438   0.661  52.218  1.00  0.00     0.046 A 
HETATM   29  C18 UNL     1      22.463  -0.140  52.672  1.00  0.00     0.138 A 
HETATM   30  F1  UNL     1      22.303  -1.486  52.852  1.00  0.00    -0.204 F 
HETATM   31  C19 UNL     1      23.686   0.429  52.952  1.00  0.00     0.074 A 
HETATM   32 CL1  UNL     1      25.002  -0.568  53.530  1.00  0.00    -0.081 Cl
HETATM   33  C20 UNL     1      23.820   1.801  52.760  1.00  0.00     0.056 A 
ENDBRANCH  24  26
ENDBRANCH  10  24
TORSDOF 8
ENDMDL
