MODEL 1
REMARK VINA RESULT:      -9.4      0.000      0.000
REMARK  1 active torsions:
REMARK  status: ('A' for Active; 'I' for Inactive)
REMARK    1  A    between atoms: O1_1  and  C1_2 
ROOT
HETATM    1  C1  UNL     1      23.123   4.552  52.469  1.00  0.00     0.172 C 
HETATM    2  C2  UNL     1      23.514   3.398  53.030  1.00  0.00     0.039 C 
HETATM    3  C3  UNL     1      23.189   2.347  52.367  1.00  0.00    -0.026 C 
HETATM    4  C4  UNL     1      23.082   2.424  50.922  1.00  0.00     0.099 C 
HETATM    5  C5  UNL     1      23.786   3.476  50.192  1.00  0.00     0.031 C 
HETATM    6  N1  UNL     1      22.759   4.057  49.937  1.00  0.00    -0.274 N 
HETATM    7  N2  UNL     1      22.328   5.116  49.323  1.00  0.00    -0.191 NA
HETATM    8  C6  UNL     1      21.621   4.757  50.594  1.00  0.00     0.322 A 
HETATM    9  N3  UNL     1      21.823   4.506  51.894  1.00  0.00    -0.223 NA
HETATM   10  C7  UNL     1      25.223   3.471  49.987  1.00  0.00     0.026 C 
HETATM   11  C8  UNL     1      26.439   2.997  50.181  1.00  0.00    -0.001 C 
HETATM   12  C9  UNL     1      26.740   1.862  51.046  1.00  0.00    -0.017 C 
HETATM   13  C10 UNL     1      26.676   0.851  51.882  1.00  0.00     0.042 C 
HETATM   14  C11 UNL     1      25.793   0.077  52.698  1.00  0.00    -0.016 C 
HETATM   15  C12 UNL     1      24.800  -0.448  53.347  1.00  0.00     0.009 C 
HETATM   16  C13 UNL     1      23.391  -0.090  53.426  1.00  0.00    -0.026 A 
HETATM   17  C14 UNL     1      22.549  -0.997  54.010  1.00  0.00     0.012 A 
HETATM   18  C15 UNL     1      21.203  -0.835  54.244  1.00  0.00     0.001 A 
HETATM   19  C16 UNL     1      20.638   0.356  53.855  1.00  0.00     0.001 A 
HETATM   20  C17 UNL     1      21.474   1.300  53.255  1.00  0.00     0.013 A 
HETATM   21  C18 UNL     1      22.814   1.105  53.034  1.00  0.00    -0.018 A 
HETATM   22  H4  UNL     1      21.628   5.849  49.393  1.00  0.00     0.151 HD
ENDROOT
BRANCH   1  23
HETATM   23  O1  UNL     1      23.843   5.749  52.396  1.00  0.00    -0.344 OA
HETATM   24  H1  UNL     1      23.423   6.466  51.792  1.00  0.00     0.219 HD
ENDBRANCH   1  23
TORSDOF 1
ENDMDL
MODEL 2
REMARK VINA RESULT:      -9.3      3.246      6.078
REMARK  1 active torsions:
REMARK  status: ('A' for Active; 'I' for Inactive)
REMARK    1  A    between atoms: O1_1  and  C1_2 
ROOT
HETATM    1  C1  UNL     1      26.740   1.345  54.076  1.00  0.00     0.172 C 
HETATM    2  C2  UNL     1      25.863   2.166  53.479  1.00  0.00     0.039 C 
HETATM    3  C3  UNL     1      25.514   1.804  52.297  1.00  0.00    -0.026 C 
HETATM    4  C4  UNL     1      25.492   0.392  51.965  1.00  0.00     0.099 C 
HETATM    5  C5  UNL     1      25.374  -0.607  53.025  1.00  0.00     0.031 C 
HETATM    6  N1  UNL     1      26.519  -0.963  52.887  1.00  0.00    -0.274 N 
HETATM    7  N2  UNL     1      27.375  -1.809  53.372  1.00  0.00    -0.191 NA
HETATM    8  C6  UNL     1      27.917  -0.464  52.999  1.00  0.00     0.322 A 
HETATM    9  N3  UNL     1      27.753   0.850  53.208  1.00  0.00    -0.223 NA
HETATM   10  C7  UNL     1      24.136  -0.857  53.741  1.00  0.00     0.026 C 
HETATM   11  C8  UNL     1      22.882  -0.594  54.053  1.00  0.00    -0.001 C 
HETATM   12  C9  UNL     1      22.123   0.519  53.495  1.00  0.00    -0.017 C 
HETATM   13  C10 UNL     1      21.734   1.587  52.835  1.00  0.00     0.042 C 
HETATM   14  C11 UNL     1      22.158   2.604  51.925  1.00  0.00    -0.016 C 
HETATM   15  C12 UNL     1      22.789   3.401  51.119  1.00  0.00     0.009 C 
HETATM   16  C13 UNL     1      24.174   3.439  50.675  1.00  0.00    -0.026 A 
HETATM   17  C14 UNL     1      24.470   4.266  49.625  1.00  0.00     0.012 A 
HETATM   18  C15 UNL     1      25.716   4.500  49.091  1.00  0.00     0.001 A 
HETATM   19  C16 UNL     1      26.778   3.843  49.664  1.00  0.00     0.001 A 
HETATM   20  C17 UNL     1      26.505   2.992  50.737  1.00  0.00     0.013 A 
HETATM   21  C18 UNL     1      25.249   2.778  51.244  1.00  0.00    -0.018 A 
HETATM   22  H4  UNL     1      28.359  -1.901  53.609  1.00  0.00     0.151 HD
ENDROOT
BRANCH   1  23
HETATM   23  O1  UNL     1      26.754   0.944  55.416  1.00  0.00    -0.344 OA
HETATM   24  H1  UNL     1      27.200   0.033  55.586  1.00  0.00     0.219 HD
ENDBRANCH   1  23
TORSDOF 1
ENDMDL
MODEL 3
REMARK VINA RESULT:      -9.0      2.044      4.702
REMARK  1 active torsions:
REMARK  status: ('A' for Active; 'I' for Inactive)
REMARK    1  A    between atoms: O1_1  and  C1_2 
ROOT
HETATM    1  C1  UNL     1      20.795   1.537  50.201  1.00  0.00     0.172 C 
HETATM    2  C2  UNL     1      22.061   1.153  50.424  1.00  0.00     0.039 C 
HETATM    3  C3  UNL     1      22.725   1.934  51.199  1.00  0.00    -0.026 C 
HETATM    4  C4  UNL     1      22.023   2.674  52.231  1.00  0.00     0.099 C 
HETATM    5  C5  UNL     1      20.728   2.202  52.717  1.00  0.00     0.031 C 
HETATM    6  N1  UNL     1      20.138   3.105  52.175  1.00  0.00    -0.274 N 
HETATM    7  N2  UNL     1      18.936   3.565  52.011  1.00  0.00    -0.191 NA
HETATM    8  C6  UNL     1      19.848   3.665  50.826  1.00  0.00     0.322 A 
HETATM    9  N3  UNL     1      20.638   2.940  50.023  1.00  0.00    -0.223 NA
HETATM   10  C7  UNL     1      20.583   1.048  53.585  1.00  0.00     0.026 C 
HETATM   11  C8  UNL     1      21.042  -0.011  54.225  1.00  0.00    -0.001 C 
HETATM   12  C9  UNL     1      22.429  -0.459  54.162  1.00  0.00    -0.017 C 
HETATM   13  C10 UNL     1      23.707  -0.599  53.891  1.00  0.00     0.042 C 
HETATM   14  C11 UNL     1      24.798  -0.062  53.139  1.00  0.00    -0.016 C 
HETATM   15  C12 UNL     1      25.596   0.601  52.361  1.00  0.00     0.009 C 
HETATM   16  C13 UNL     1      25.368   1.723  51.462  1.00  0.00    -0.026 A 
HETATM   17  C14 UNL     1      26.474   2.356  50.962  1.00  0.00     0.012 A 
HETATM   18  C15 UNL     1      26.488   3.389  50.054  1.00  0.00     0.001 A 
HETATM   19  C16 UNL     1      25.272   3.839  49.596  1.00  0.00     0.001 A 
HETATM   20  C17 UNL     1      24.127   3.213  50.091  1.00  0.00     0.013 A 
HETATM   21  C18 UNL     1      24.148   2.185  51.000  1.00  0.00    -0.018 A 
HETATM   22  H4  UNL     1      18.339   4.006  51.316  1.00  0.00     0.151 HD
ENDROOT
BRANCH   1  23
HETATM   23  O1  UNL     1      19.660   0.723  50.129  1.00  0.00    -0.344 OA
HETATM   24  H1  UNL     1      18.776   1.231  50.001  1.00  0.00     0.219 HD
ENDBRANCH   1  23
TORSDOF 1
ENDMDL
MODEL 4
REMARK VINA RESULT:      -8.9      0.894      1.181
REMARK  1 active torsions:
REMARK  status: ('A' for Active; 'I' for Inactive)
REMARK    1  A    between atoms: O1_1  and  C1_2 
ROOT
HETATM    1  C1  UNL     1      22.228   4.738  52.019  1.00  0.00     0.172 C 
HETATM    2  C2  UNL     1      23.018   3.779  52.524  1.00  0.00     0.039 C 
HETATM    3  C3  UNL     1      22.960   2.658  51.900  1.00  0.00    -0.026 C 
HETATM    4  C4  UNL     1      22.669   2.652  50.478  1.00  0.00     0.099 C 
HETATM    5  C5  UNL     1      22.925   3.845  49.674  1.00  0.00     0.031 C 
HETATM    6  N1  UNL     1      21.746   4.073  49.546  1.00  0.00    -0.274 N 
HETATM    7  N2  UNL     1      20.942   4.929  48.993  1.00  0.00    -0.191 NA
HETATM    8  C6  UNL     1      20.531   4.411  50.337  1.00  0.00     0.322 A 
HETATM    9  N3  UNL     1      20.949   4.277  51.603  1.00  0.00    -0.223 NA
HETATM   10  C7  UNL     1      24.260   4.274  49.299  1.00  0.00     0.026 C 
HETATM   11  C8  UNL     1      25.576   4.203  49.344  1.00  0.00    -0.001 C 
HETATM   12  C9  UNL     1      26.310   3.244  50.161  1.00  0.00    -0.017 C 
HETATM   13  C10 UNL     1      26.657   2.289  50.995  1.00  0.00     0.042 C 
HETATM   14  C11 UNL     1      26.157   1.308  51.907  1.00  0.00    -0.016 C 
HETATM   15  C12 UNL     1      25.456   0.526  52.667  1.00  0.00     0.009 C 
HETATM   16  C13 UNL     1      24.024   0.437  52.916  1.00  0.00    -0.026 A 
HETATM   17  C14 UNL     1      23.577  -0.666  53.592  1.00  0.00     0.012 A 
HETATM   18  C15 UNL     1      22.282  -0.917  53.986  1.00  0.00     0.001 A 
HETATM   19  C16 UNL     1      21.336   0.030  53.673  1.00  0.00     0.001 A 
HETATM   20  C17 UNL     1      21.765   1.164  52.981  1.00  0.00     0.013 A 
HETATM   21  C18 UNL     1      23.065   1.383  52.601  1.00  0.00    -0.018 A 
HETATM   22  H4  UNL     1      20.063   5.413  49.150  1.00  0.00     0.151 HD
ENDROOT
BRANCH   1  23
HETATM   23  O1  UNL     1      22.531   6.096  51.866  1.00  0.00    -0.344 OA
HETATM   24  H1  UNL     1      21.733   6.685  51.595  1.00  0.00     0.219 HD
ENDBRANCH   1  23
TORSDOF 1
ENDMDL
MODEL 5
REMARK VINA RESULT:      -8.8      1.584      4.053
REMARK  1 active torsions:
REMARK  status: ('A' for Active; 'I' for Inactive)
REMARK    1  A    between atoms: O1_1  and  C1_2 
ROOT
HETATM    1  C1  UNL     1      23.699   3.528  50.078  1.00  0.00     0.172 C 
HETATM    2  C2  UNL     1      23.897   2.326  50.642  1.00  0.00     0.039 C 
HETATM    3  C3  UNL     1      24.178   2.366  51.895  1.00  0.00    -0.026 C 
HETATM    4  C4  UNL     1      23.647   3.444  52.707  1.00  0.00     0.099 C 
HETATM    5  C5  UNL     1      22.453   4.167  52.274  1.00  0.00     0.031 C 
HETATM    6  N1  UNL     1      23.087   5.161  52.014  1.00  0.00    -0.274 N 
HETATM    7  N2  UNL     1      22.927   6.366  51.559  1.00  0.00    -0.191 NA
HETATM    8  C6  UNL     1      24.167   5.653  51.116  1.00  0.00     0.322 A 
HETATM    9  N3  UNL     1      24.602   4.533  50.523  1.00  0.00    -0.223 NA
HETATM   10  C7  UNL     1      21.119   3.598  52.333  1.00  0.00     0.026 C 
HETATM   11  C8  UNL     1      20.267   2.611  52.535  1.00  0.00    -0.001 C 
HETATM   12  C9  UNL     1      20.666   1.258  52.905  1.00  0.00    -0.017 C 
HETATM   13  C10 UNL     1      21.337   0.170  53.211  1.00  0.00     0.042 C 
HETATM   14  C11 UNL     1      22.649  -0.372  53.380  1.00  0.00    -0.016 C 
HETATM   15  C12 UNL     1      23.922  -0.610  53.456  1.00  0.00     0.009 C 
HETATM   16  C13 UNL     1      25.086   0.223  53.190  1.00  0.00    -0.026 A 
HETATM   17  C14 UNL     1      26.301  -0.255  53.603  1.00  0.00     0.012 A 
HETATM   18  C15 UNL     1      27.526   0.336  53.398  1.00  0.00     0.001 A 
HETATM   19  C16 UNL     1      27.542   1.526  52.709  1.00  0.00     0.001 A 
HETATM   20  C17 UNL     1      26.317   2.036  52.278  1.00  0.00     0.013 A 
HETATM   21  C18 UNL     1      25.110   1.422  52.502  1.00  0.00    -0.018 A 
HETATM   22  H4  UNL     1      23.373   7.061  50.966  1.00  0.00     0.151 HD
ENDROOT
BRANCH   1  23
HETATM   23  O1  UNL     1      22.728   3.873  49.133  1.00  0.00    -0.344 OA
HETATM   24  H1  UNL     1      21.844   3.355  49.216  1.00  0.00     0.219 HD
ENDBRANCH   1  23
TORSDOF 1
ENDMDL
MODEL 6
REMARK VINA RESULT:      -8.5      2.070      2.377
REMARK  1 active torsions:
REMARK  status: ('A' for Active; 'I' for Inactive)
REMARK    1  A    between atoms: O1_1  and  C1_2 
ROOT
HETATM    1  C1  UNL     1      20.564   3.076  51.500  1.00  0.00     0.172 C 
HETATM    2  C2  UNL     1      21.548   2.626  52.295  1.00  0.00     0.039 C 
HETATM    3  C3  UNL     1      21.995   1.463  51.981  1.00  0.00    -0.026 C 
HETATM    4  C4  UNL     1      21.966   1.043  50.592  1.00  0.00     0.099 C 
HETATM    5  C5  UNL     1      21.912   2.042  49.527  1.00  0.00     0.031 C 
HETATM    6  N1  UNL     1      20.768   1.766  49.257  1.00  0.00    -0.274 N 
HETATM    7  N2  UNL     1      19.816   2.107  48.443  1.00  0.00    -0.191 NA
HETATM    8  C6  UNL     1      19.398   1.771  49.842  1.00  0.00     0.322 A 
HETATM    9  N3  UNL     1      19.620   2.080  51.126  1.00  0.00    -0.223 NA
HETATM   10  C7  UNL     1      23.050   2.861  49.152  1.00  0.00     0.026 C 
HETATM   11  C8  UNL     1      24.279   3.313  49.311  1.00  0.00    -0.001 C 
HETATM   12  C9  UNL     1      25.159   2.908  50.402  1.00  0.00    -0.017 C 
HETATM   13  C10 UNL     1      25.678   2.362  51.478  1.00  0.00     0.042 C 
HETATM   14  C11 UNL     1      25.415   1.483  52.574  1.00  0.00    -0.016 C 
HETATM   15  C12 UNL     1      24.921   0.672  53.457  1.00  0.00     0.009 C 
HETATM   16  C13 UNL     1      23.594   0.094  53.614  1.00  0.00    -0.026 A 
HETATM   17  C14 UNL     1      23.460  -0.924  54.519  1.00  0.00     0.012 A 
HETATM   18  C15 UNL     1      22.293  -1.564  54.868  1.00  0.00     0.001 A 
HETATM   19  C16 UNL     1      21.139  -1.144  54.251  1.00  0.00     0.001 A 
HETATM   20  C17 UNL     1      21.246  -0.108  53.322  1.00  0.00     0.013 A 
HETATM   21  C18 UNL     1      22.428   0.508  52.995  1.00  0.00    -0.018 A 
HETATM   22  H4  UNL     1      18.809   2.238  48.403  1.00  0.00     0.151 HD
ENDROOT
BRANCH   1  23
HETATM   23  O1  UNL     1      20.386   4.379  51.023  1.00  0.00    -0.344 OA
HETATM   24  H1  UNL     1      19.824   4.985  51.634  1.00  0.00     0.219 HD
ENDBRANCH   1  23
TORSDOF 1
ENDMDL
MODEL 7
REMARK VINA RESULT:      -8.4      8.023     11.592
REMARK  1 active torsions:
REMARK  status: ('A' for Active; 'I' for Inactive)
REMARK    1  A    between atoms: O1_1  and  C1_2 
ROOT
HETATM    1  C1  UNL     1      31.958   6.378  49.760  1.00  0.00     0.172 C 
HETATM    2  C2  UNL     1      31.460   7.596  49.498  1.00  0.00     0.039 C 
HETATM    3  C3  UNL     1      31.351   7.869  48.248  1.00  0.00    -0.026 C 
HETATM    4  C4  UNL     1      31.106   6.793  47.305  1.00  0.00     0.099 C 
HETATM    5  C5  UNL     1      30.510   5.540  47.764  1.00  0.00     0.031 C 
HETATM    6  N1  UNL     1      31.547   4.938  47.627  1.00  0.00    -0.274 N 
HETATM    7  N2  UNL     1      32.047   3.749  47.777  1.00  0.00    -0.191 NA
HETATM    8  C6  UNL     1      32.945   4.893  48.137  1.00  0.00     0.322 A 
HETATM    9  N3  UNL     1      33.024   5.990  48.901  1.00  0.00    -0.223 NA
HETATM   10  C7  UNL     1      29.108   5.416  48.119  1.00  0.00     0.026 C 
HETATM   11  C8  UNL     1      27.903   5.902  48.351  1.00  0.00    -0.001 C 
HETATM   12  C9  UNL     1      27.571   7.319  48.272  1.00  0.00    -0.017 C 
HETATM   13  C10 UNL     1      27.604   8.625  48.131  1.00  0.00     0.042 C 
HETATM   14  C11 UNL     1      28.454   9.740  47.853  1.00  0.00    -0.016 C 
HETATM   15  C12 UNL     1      29.426  10.558  47.592  1.00  0.00     0.009 C 
HETATM   16  C13 UNL     1      30.853  10.344  47.398  1.00  0.00    -0.026 A 
HETATM   17  C14 UNL     1      31.577  11.391  46.892  1.00  0.00     0.012 A 
HETATM   18  C15 UNL     1      32.938  11.425  46.691  1.00  0.00     0.001 A 
HETATM   19  C16 UNL     1      33.652  10.301  47.032  1.00  0.00     0.001 A 
HETATM   20  C17 UNL     1      32.938   9.218  47.549  1.00  0.00     0.013 A 
HETATM   21  C18 UNL     1      31.579   9.215  47.734  1.00  0.00    -0.018 A 
HETATM   22  H4  UNL     1      32.895   3.272  48.071  1.00  0.00     0.151 HD
ENDROOT
BRANCH   1  23
HETATM   23  O1  UNL     1      31.545   5.486  50.756  1.00  0.00    -0.344 OA
HETATM   24  H1  UNL     1      31.573   4.496  50.483  1.00  0.00     0.219 HD
ENDBRANCH   1  23
TORSDOF 1
ENDMDL
MODEL 8
REMARK VINA RESULT:      -8.3      2.536      3.630
REMARK  1 active torsions:
REMARK  status: ('A' for Active; 'I' for Inactive)
REMARK    1  A    between atoms: O1_1  and  C1_2 
ROOT
HETATM    1  C1  UNL     1      20.049   3.065  51.250  1.00  0.00     0.172 C 
HETATM    2  C2  UNL     1      20.014   2.146  52.227  1.00  0.00     0.039 C 
HETATM    3  C3  UNL     1      20.086   0.931  51.816  1.00  0.00    -0.026 C 
HETATM    4  C4  UNL     1      20.817   0.635  50.599  1.00  0.00     0.099 C 
HETATM    5  C5  UNL     1      21.846   1.557  50.121  1.00  0.00     0.031 C 
HETATM    6  N1  UNL     1      21.164   1.918  49.193  1.00  0.00    -0.274 N 
HETATM    7  N2  UNL     1      21.191   2.728  48.179  1.00  0.00    -0.191 NA
HETATM    8  C6  UNL     1      19.878   2.604  48.889  1.00  0.00     0.322 A 
HETATM    9  N3  UNL     1      19.300   2.711  50.093  1.00  0.00    -0.223 NA
HETATM   10  C7  UNL     1      23.146   1.687  50.754  1.00  0.00     0.026 C 
HETATM   11  C8  UNL     1      24.022   1.438  51.708  1.00  0.00    -0.001 C 
HETATM   12  C9  UNL     1      23.742   0.600  52.868  1.00  0.00    -0.017 C 
HETATM   13  C10 UNL     1      23.182  -0.173  53.771  1.00  0.00     0.042 C 
HETATM   14  C11 UNL     1      21.968  -0.830  54.141  1.00  0.00    -0.016 C 
HETATM   15  C12 UNL     1      20.764  -1.303  54.248  1.00  0.00     0.009 C 
HETATM   16  C13 UNL     1      19.571  -1.121  53.435  1.00  0.00    -0.026 A 
HETATM   17  C14 UNL     1      18.515  -1.958  53.682  1.00  0.00     0.012 A 
HETATM   18  C15 UNL     1      17.280  -1.919  53.078  1.00  0.00     0.001 A 
HETATM   19  C16 UNL     1      17.074  -0.944  52.131  1.00  0.00     0.001 A 
HETATM   20  C17 UNL     1      18.134  -0.078  51.859  1.00  0.00     0.013 A 
HETATM   21  C18 UNL     1      19.357  -0.146  52.477  1.00  0.00    -0.018 A 
HETATM   22  H4  UNL     1      20.600   3.359  47.646  1.00  0.00     0.151 HD
ENDROOT
BRANCH   1  23
HETATM   23  O1  UNL     1      20.724   4.290  51.259  1.00  0.00    -0.344 OA
HETATM   24  H1  UNL     1      21.104   4.564  52.174  1.00  0.00     0.219 HD
ENDBRANCH   1  23
TORSDOF 1
ENDMDL
MODEL 9
REMARK VINA RESULT:      -7.9      2.058      3.587
REMARK  1 active torsions:
REMARK  status: ('A' for Active; 'I' for Inactive)
REMARK    1  A    between atoms: O1_1  and  C1_2 
ROOT
HETATM    1  C1  UNL     1      23.132   3.770  52.293  1.00  0.00     0.172 C 
HETATM    2  C2  UNL     1      22.164   2.906  52.632  1.00  0.00     0.039 C 
HETATM    3  C3  UNL     1      22.016   1.925  51.816  1.00  0.00    -0.026 C 
HETATM    4  C4  UNL     1      23.165   1.438  51.077  1.00  0.00     0.099 C 
HETATM    5  C5  UNL     1      24.516   1.683  51.580  1.00  0.00     0.031 C 
HETATM    6  N1  UNL     1      24.750   2.484  50.707  1.00  0.00    -0.274 N 
HETATM    7  N2  UNL     1      25.696   3.267  50.289  1.00  0.00    -0.191 NA
HETATM    8  C6  UNL     1      24.301   3.804  50.185  1.00  0.00     0.322 A 
HETATM    9  N3  UNL     1      23.197   4.052  50.901  1.00  0.00    -0.223 NA
HETATM   10  C7  UNL     1      25.074   0.980  52.720  1.00  0.00     0.026 C 
HETATM   11  C8  UNL     1      24.999   0.159  53.751  1.00  0.00    -0.001 C 
HETATM   12  C9  UNL     1      23.778  -0.526  54.155  1.00  0.00    -0.017 C 
HETATM   13  C10 UNL     1      22.544  -0.967  54.261  1.00  0.00     0.042 C 
HETATM   14  C11 UNL     1      21.230  -0.877  53.706  1.00  0.00    -0.016 C 
HETATM   15  C12 UNL     1      20.154  -0.608  53.033  1.00  0.00     0.009 C 
HETATM   16  C13 UNL     1      19.897   0.315  51.937  1.00  0.00    -0.026 A 
HETATM   17  C14 UNL     1      18.702   0.186  51.281  1.00  0.00     0.012 A 
HETATM   18  C15 UNL     1      18.233   0.988  50.266  1.00  0.00     0.001 A 
HETATM   19  C16 UNL     1      19.037   2.027  49.865  1.00  0.00     0.001 A 
HETATM   20  C17 UNL     1      20.262   2.182  50.516  1.00  0.00     0.013 A 
HETATM   21  C18 UNL     1      20.702   1.361  51.524  1.00  0.00    -0.018 A 
HETATM   22  H4  UNL     1      25.850   4.185  49.881  1.00  0.00     0.151 HD
ENDROOT
BRANCH   1  23
HETATM   23  O1  UNL     1      24.049   4.396  53.144  1.00  0.00    -0.344 OA
HETATM   24  H1  UNL     1      24.126   5.413  53.018  1.00  0.00     0.219 HD
ENDBRANCH   1  23
TORSDOF 1
ENDMDL
