MODEL 1
REMARK VINA RESULT:      -7.4      0.000      0.000
REMARK  5 active torsions:
REMARK  status: ('A' for Active; 'I' for Inactive)
REMARK    1  A    between atoms: C6_8  and  N1_9 
REMARK    2  A    between atoms: N1_9  and  C7_10 
REMARK    3  A    between atoms: C7_10  and  O1_11 
REMARK    4  A    between atoms: O1_11  and  C8_12 
REMARK    5  A    between atoms: C8_12  and  C9_13 
ROOT
HETATM    1  C7  UNL     1      23.918   2.932  52.460  1.00  0.00     0.290 C 
ENDROOT
BRANCH   1   2
HETATM    2  N1  UNL     1      24.182   2.814  51.048  1.00  0.00    -0.366 N 
HETATM    3  H4  UNL     1      23.736   2.019  50.509  1.00  0.00     0.162 HD
BRANCH   2   4
HETATM    4  C6  UNL     1      25.010   3.704  50.338  1.00  0.00     0.068 A 
HETATM    5  C1  UNL     1      26.299   3.364  49.948  1.00  0.00     0.144 A 
HETATM    6  F1  UNL     1      26.757   2.114  50.279  1.00  0.00    -0.204 F 
HETATM    7  C2  UNL     1      27.077   4.267  49.252  1.00  0.00     0.063 A 
HETATM    8  C3  UNL     1      26.607   5.523  48.924  1.00  0.00     0.014 A 
HETATM    9 BR1  UNL     1      27.766   6.688  47.962  1.00  0.00    -0.051 Br
HETATM   10  C4  UNL     1      25.317   5.879  49.307  1.00  0.00     0.021 A 
HETATM   11  C5  UNL     1      24.564   4.960  49.999  1.00  0.00     0.034 A 
ENDBRANCH   2   4
ENDBRANCH   1   2
BRANCH   1  12
HETATM   12  O1  UNL     1      24.820   2.201  53.211  1.00  0.00    -0.368 OA
BRANCH  12  13
HETATM   13  C8  UNL     1      24.913   0.892  52.782  1.00  0.00     0.205 C 
BRANCH  13  14
HETATM   14  C9  UNL     1      26.121   0.199  53.306  1.00  0.00    -0.039 C 
HETATM   15  C10 UNL     1      26.992  -0.561  52.634  1.00  0.00    -0.005 C 
HETATM   16  C11 UNL     1      27.993  -1.002  53.609  1.00  0.00     0.083 A 
HETATM   17  C12 UNL     1      29.312  -1.437  53.103  1.00  0.00    -0.010 A 
HETATM   18  C14 UNL     1      28.796   0.054  54.228  1.00  0.00     0.040 A 
HETATM   19  C13 UNL     1      30.059  -0.474  53.670  1.00  0.00     0.025 A 
HETATM   20  N2  UNL     1      27.899   0.753  54.847  1.00  0.00    -0.289 NA
HETATM   21  C15 UNL     1      26.489   0.335  54.756  1.00  0.00     0.185 C 
ENDBRANCH  13  14
ENDBRANCH  12  13
ENDBRANCH   1  12
TORSDOF 5
ENDMDL
MODEL 2
REMARK VINA RESULT:      -7.2      1.160      1.559
REMARK  5 active torsions:
REMARK  status: ('A' for Active; 'I' for Inactive)
REMARK    1  A    between atoms: C6_8  and  N1_9 
REMARK    2  A    between atoms: N1_9  and  C7_10 
REMARK    3  A    between atoms: C7_10  and  O1_11 
REMARK    4  A    between atoms: O1_11  and  C8_12 
REMARK    5  A    between atoms: C8_12  and  C9_13 
ROOT
HETATM    1  C7  UNL     1      24.190   3.193  52.479  1.00  0.00     0.290 C 
ENDROOT
BRANCH   1   2
HETATM    2  N1  UNL     1      24.209   3.286  51.041  1.00  0.00    -0.366 N 
HETATM    3  H4  UNL     1      23.521   2.707  50.481  1.00  0.00     0.162 HD
BRANCH   2   4
HETATM    4  C6  UNL     1      25.102   4.111  50.330  1.00  0.00     0.068 A 
HETATM    5  C1  UNL     1      24.892   5.477  50.187  1.00  0.00     0.144 A 
HETATM    6  F1  UNL     1      23.771   6.014  50.765  1.00  0.00    -0.204 F 
HETATM    7  C2  UNL     1      25.793   6.249  49.482  1.00  0.00     0.063 A 
HETATM    8  C3  UNL     1      26.919   5.698  48.903  1.00  0.00     0.014 A 
HETATM    9 BR1  UNL     1      28.094   6.858  47.954  1.00  0.00    -0.051 Br
HETATM   10  C4  UNL     1      27.144   4.331  49.038  1.00  0.00     0.021 A 
HETATM   11  C5  UNL     1      26.230   3.586  49.745  1.00  0.00     0.034 A 
ENDBRANCH   2   4
ENDBRANCH   1   2
BRANCH   1  12
HETATM   12  O1  UNL     1      25.263   2.465  52.958  1.00  0.00    -0.368 OA
BRANCH  12  13
HETATM   13  C8  UNL     1      25.194   1.135  52.589  1.00  0.00     0.205 C 
BRANCH  13  14
HETATM   14  C9  UNL     1      26.290   0.318  53.177  1.00  0.00    -0.039 C 
HETATM   15  C10 UNL     1      27.142  -0.496  52.544  1.00  0.00    -0.005 C 
HETATM   16  C11 UNL     1      28.018  -1.059  53.574  1.00  0.00     0.083 A 
HETATM   17  C12 UNL     1      29.329  -1.596  53.155  1.00  0.00    -0.010 A 
HETATM   18  C14 UNL     1      28.860  -0.102  54.294  1.00  0.00     0.040 A 
HETATM   19  C13 UNL     1      30.111  -0.725  53.814  1.00  0.00     0.025 A 
HETATM   20  N2  UNL     1      27.982   0.656  54.871  1.00  0.00    -0.289 NA
HETATM   21  C15 UNL     1      26.552   0.372  54.655  1.00  0.00     0.185 C 
ENDBRANCH  13  14
ENDBRANCH  12  13
ENDBRANCH   1  12
TORSDOF 5
ENDMDL
MODEL 3
REMARK VINA RESULT:      -7.1      4.676      5.926
REMARK  5 active torsions:
REMARK  status: ('A' for Active; 'I' for Inactive)
REMARK    1  A    between atoms: C6_8  and  N1_9 
REMARK    2  A    between atoms: N1_9  and  C7_10 
REMARK    3  A    between atoms: C7_10  and  O1_11 
REMARK    4  A    between atoms: O1_11  and  C8_12 
REMARK    5  A    between atoms: C8_12  and  C9_13 
ROOT
HETATM    1  C7  UNL     1      23.365   1.369  52.794  1.00  0.00     0.290 C 
ENDROOT
BRANCH   1   2
HETATM    2  N1  UNL     1      22.714   0.084  52.843  1.00  0.00    -0.366 N 
HETATM    3  H4  UNL     1      23.302  -0.782  53.004  1.00  0.00     0.162 HD
BRANCH   2   4
HETATM    4  C6  UNL     1      21.324  -0.086  52.686  1.00  0.00     0.068 A 
HETATM    5  C1  UNL     1      20.540  -0.690  53.660  1.00  0.00     0.144 A 
HETATM    6  F1  UNL     1      21.162  -1.128  54.801  1.00  0.00    -0.204 F 
HETATM    7  C2  UNL     1      19.181  -0.837  53.467  1.00  0.00     0.063 A 
HETATM    8  C3  UNL     1      18.564  -0.393  52.314  1.00  0.00     0.014 A 
HETATM    9 BR1  UNL     1      16.683  -0.647  52.154  1.00  0.00    -0.051 Br
HETATM   10  C4  UNL     1      19.337   0.215  51.329  1.00  0.00     0.021 A 
HETATM   11  C5  UNL     1      20.687   0.348  51.549  1.00  0.00     0.034 A 
ENDBRANCH   2   4
ENDBRANCH   1   2
BRANCH   1  12
HETATM   12  O1  UNL     1      24.485   1.342  51.981  1.00  0.00    -0.368 OA
BRANCH  12  13
HETATM   13  C8  UNL     1      25.600   1.852  52.617  1.00  0.00     0.205 C 
BRANCH  13  14
HETATM   14  C9  UNL     1      26.488   0.789  53.162  1.00  0.00    -0.039 C 
HETATM   15  C10 UNL     1      27.174  -0.138  52.485  1.00  0.00    -0.005 C 
HETATM   16  C11 UNL     1      27.885  -0.936  53.486  1.00  0.00     0.083 A 
HETATM   17  C12 UNL     1      29.072  -1.703  53.051  1.00  0.00    -0.010 A 
HETATM   18  C14 UNL     1      28.882  -0.224  54.287  1.00  0.00     0.040 A 
HETATM   19  C13 UNL     1      29.994  -1.058  53.784  1.00  0.00     0.025 A 
HETATM   20  N2  UNL     1      28.159   0.658  54.903  1.00  0.00    -0.289 NA
HETATM   21  C15 UNL     1      26.709   0.689  54.644  1.00  0.00     0.185 C 
ENDBRANCH  13  14
ENDBRANCH  12  13
ENDBRANCH   1  12
TORSDOF 5
ENDMDL
MODEL 4
REMARK VINA RESULT:      -7.0      3.398      4.190
REMARK  5 active torsions:
REMARK  status: ('A' for Active; 'I' for Inactive)
REMARK    1  A    between atoms: C6_8  and  N1_9 
REMARK    2  A    between atoms: N1_9  and  C7_10 
REMARK    3  A    between atoms: C7_10  and  O1_11 
REMARK    4  A    between atoms: O1_11  and  C8_12 
REMARK    5  A    between atoms: C8_12  and  C9_13 
ROOT
HETATM    1  C7  UNL     1      22.019  -0.664  54.502  1.00  0.00     0.290 C 
ENDROOT
BRANCH   1   2
HETATM    2  N1  UNL     1      21.494   0.537  53.904  1.00  0.00    -0.366 N 
HETATM    3  H4  UNL     1      20.911   1.192  54.498  1.00  0.00     0.162 HD
BRANCH   2   4
HETATM    4  C6  UNL     1      21.715   0.894  52.559  1.00  0.00     0.068 A 
HETATM    5  C1  UNL     1      22.748   1.743  52.180  1.00  0.00     0.144 A 
HETATM    6  F1  UNL     1      23.563   2.236  53.166  1.00  0.00    -0.204 F 
HETATM    7  C2  UNL     1      22.929   2.066  50.851  1.00  0.00     0.063 A 
HETATM    8  C3  UNL     1      22.102   1.565  49.866  1.00  0.00     0.014 A 
HETATM    9 BR1  UNL     1      22.446   2.078  48.065  1.00  0.00    -0.051 Br
HETATM   10  C4  UNL     1      21.063   0.713  50.230  1.00  0.00     0.021 A 
HETATM   11  C5  UNL     1      20.906   0.407  51.561  1.00  0.00     0.034 A 
ENDBRANCH   2   4
ENDBRANCH   1   2
BRANCH   1  12
HETATM   12  O1  UNL     1      23.246  -1.007  53.963  1.00  0.00    -0.368 OA
BRANCH  12  13
HETATM   13  C8  UNL     1      24.258  -0.958  54.903  1.00  0.00     0.205 C 
BRANCH  13  14
HETATM   14  C9  UNL     1      25.543  -0.464  54.339  1.00  0.00    -0.039 C 
HETATM   15  C10 UNL     1      26.593   0.039  54.997  1.00  0.00    -0.005 C 
HETATM   16  C11 UNL     1      27.594   0.374  53.982  1.00  0.00     0.083 A 
HETATM   17  C12 UNL     1      29.005   0.491  54.408  1.00  0.00    -0.010 A 
HETATM   18  C14 UNL     1      28.125  -0.749  53.207  1.00  0.00     0.040 A 
HETATM   19  C13 UNL     1      29.503  -0.536  53.699  1.00  0.00     0.025 A 
HETATM   20  N2  UNL     1      27.066  -1.193  52.609  1.00  0.00    -0.289 NA
HETATM   21  C15 UNL     1      25.778  -0.521  52.856  1.00  0.00     0.185 C 
ENDBRANCH  13  14
ENDBRANCH  12  13
ENDBRANCH   1  12
TORSDOF 5
ENDMDL
MODEL 5
REMARK VINA RESULT:      -6.9      5.031      6.082
REMARK  5 active torsions:
REMARK  status: ('A' for Active; 'I' for Inactive)
REMARK    1  A    between atoms: C6_8  and  N1_9 
REMARK    2  A    between atoms: N1_9  and  C7_10 
REMARK    3  A    between atoms: C7_10  and  O1_11 
REMARK    4  A    between atoms: O1_11  and  C8_12 
REMARK    5  A    between atoms: C8_12  and  C9_13 
ROOT
HETATM    1  C7  UNL     1      22.392  -1.118  54.485  1.00  0.00     0.290 C 
ENDROOT
BRANCH   1   2
HETATM    2  N1  UNL     1      21.368  -0.109  54.391  1.00  0.00    -0.366 N 
HETATM    3  H4  UNL     1      21.342   0.663  55.116  1.00  0.00     0.162 HD
BRANCH   2   4
HETATM    4  C6  UNL     1      20.388  -0.090  53.379  1.00  0.00     0.068 A 
HETATM    5  C1  UNL     1      20.553   0.632  52.205  1.00  0.00     0.144 A 
HETATM    6  F1  UNL     1      21.716   1.343  52.050  1.00  0.00    -0.204 F 
HETATM    7  C2  UNL     1      19.569   0.623  51.237  1.00  0.00     0.063 A 
HETATM    8  C3  UNL     1      18.401  -0.096  51.403  1.00  0.00     0.014 A 
HETATM    9 BR1  UNL     1      17.111  -0.037  50.004  1.00  0.00    -0.051 Br
HETATM   10  C4  UNL     1      18.221  -0.825  52.575  1.00  0.00     0.021 A 
HETATM   11  C5  UNL     1      19.219  -0.798  53.520  1.00  0.00     0.034 A 
ENDBRANCH   2   4
ENDBRANCH   1   2
BRANCH   1  12
HETATM   12  O1  UNL     1      23.562  -0.717  53.867  1.00  0.00    -0.368 OA
BRANCH  12  13
HETATM   13  C8  UNL     1      24.648  -0.782  54.719  1.00  0.00     0.205 C 
BRANCH  13  14
HETATM   14  C9  UNL     1      25.944  -0.584  54.015  1.00  0.00    -0.039 C 
HETATM   15  C10 UNL     1      26.927   0.269  54.322  1.00  0.00    -0.005 C 
HETATM   16  C11 UNL     1      27.975   0.068  53.319  1.00  0.00     0.083 A 
HETATM   17  C12 UNL     1      29.350   0.498  53.654  1.00  0.00    -0.010 A 
HETATM   18  C14 UNL     1      28.602  -1.254  53.301  1.00  0.00     0.040 A 
HETATM   19  C13 UNL     1      29.936  -0.711  53.637  1.00  0.00     0.025 A 
HETATM   20  N2  UNL     1      27.604  -2.027  53.012  1.00  0.00    -0.289 NA
HETATM   21  C15 UNL     1      26.275  -1.421  52.813  1.00  0.00     0.185 C 
ENDBRANCH  13  14
ENDBRANCH  12  13
ENDBRANCH   1  12
TORSDOF 5
ENDMDL
MODEL 6
REMARK VINA RESULT:      -6.8      3.279      5.881
REMARK  5 active torsions:
REMARK  status: ('A' for Active; 'I' for Inactive)
REMARK    1  A    between atoms: C6_8  and  N1_9 
REMARK    2  A    between atoms: N1_9  and  C7_10 
REMARK    3  A    between atoms: C7_10  and  O1_11 
REMARK    4  A    between atoms: O1_11  and  C8_12 
REMARK    5  A    between atoms: C8_12  and  C9_13 
ROOT
HETATM    1  C7  UNL     1      24.538  -1.129  55.515  1.00  0.00     0.290 C 
ENDROOT
BRANCH   1   2
HETATM    2  N1  UNL     1      25.811  -0.602  55.096  1.00  0.00    -0.366 N 
HETATM    3  H4  UNL     1      26.677  -0.855  55.651  1.00  0.00     0.162 HD
BRANCH   2   4
HETATM    4  C6  UNL     1      25.971   0.241  53.979  1.00  0.00     0.068 A 
HETATM    5  C1  UNL     1      26.319  -0.250  52.728  1.00  0.00     0.144 A 
HETATM    6  F1  UNL     1      26.509  -1.602  52.602  1.00  0.00    -0.204 F 
HETATM    7  C2  UNL     1      26.465   0.611  51.659  1.00  0.00     0.063 A 
HETATM    8  C3  UNL     1      26.273   1.972  51.796  1.00  0.00     0.014 A 
HETATM    9 BR1  UNL     1      26.501   3.065  50.254  1.00  0.00    -0.051 Br
HETATM   10  C4  UNL     1      25.923   2.479  53.044  1.00  0.00     0.021 A 
HETATM   11  C5  UNL     1      25.784   1.598  54.090  1.00  0.00     0.034 A 
ENDBRANCH   2   4
ENDBRANCH   1   2
BRANCH   1  12
HETATM   12  O1  UNL     1      23.677  -1.295  54.445  1.00  0.00    -0.368 OA
BRANCH  12  13
HETATM   13  C8  UNL     1      22.463  -0.670  54.653  1.00  0.00     0.205 C 
BRANCH  13  14
HETATM   14  C9  UNL     1      22.027   0.142  53.485  1.00  0.00    -0.039 C 
HETATM   15  C10 UNL     1      22.774   0.597  52.473  1.00  0.00    -0.005 C 
HETATM   16  C11 UNL     1      21.868   1.339  51.593  1.00  0.00     0.083 A 
HETATM   17  C12 UNL     1      22.275   1.543  50.187  1.00  0.00    -0.010 A 
HETATM   18  C14 UNL     1      20.799   0.560  50.966  1.00  0.00     0.040 A 
HETATM   19  C13 UNL     1      21.296   0.832  49.601  1.00  0.00     0.025 A 
HETATM   20  N2  UNL     1      20.126   0.143  51.992  1.00  0.00    -0.289 NA
HETATM   21  C15 UNL     1      20.582   0.526  53.340  1.00  0.00     0.185 C 
ENDBRANCH  13  14
ENDBRANCH  12  13
ENDBRANCH   1  12
TORSDOF 5
ENDMDL
MODEL 7
REMARK VINA RESULT:      -6.8      2.185      2.759
REMARK  5 active torsions:
REMARK  status: ('A' for Active; 'I' for Inactive)
REMARK    1  A    between atoms: C6_8  and  N1_9 
REMARK    2  A    between atoms: N1_9  and  C7_10 
REMARK    3  A    between atoms: C7_10  and  O1_11 
REMARK    4  A    between atoms: O1_11  and  C8_12 
REMARK    5  A    between atoms: C8_12  and  C9_13 
ROOT
HETATM    1  C7  UNL     1      25.526   3.379  49.645  1.00  0.00     0.290 C 
ENDROOT
BRANCH   1   2
HETATM    2  N1  UNL     1      25.503   4.787  49.341  1.00  0.00    -0.366 N 
HETATM    3  H4  UNL     1      24.626   5.342  49.552  1.00  0.00     0.162 HD
BRANCH   2   4
HETATM    4  C6  UNL     1      26.593   5.475  48.772  1.00  0.00     0.068 A 
HETATM    5  C1  UNL     1      26.476   6.770  48.284  1.00  0.00     0.144 A 
HETATM    6  F1  UNL     1      25.248   7.376  48.369  1.00  0.00    -0.204 F 
HETATM    7  C2  UNL     1      27.570   7.408  47.735  1.00  0.00     0.063 A 
HETATM    8  C3  UNL     1      28.801   6.789  47.654  1.00  0.00     0.014 A 
HETATM    9 BR1  UNL     1      30.241   7.763  46.877  1.00  0.00    -0.051 Br
HETATM   10  C4  UNL     1      28.935   5.491  48.140  1.00  0.00     0.021 A 
HETATM   11  C5  UNL     1      27.829   4.880  48.681  1.00  0.00     0.034 A 
ENDBRANCH   2   4
ENDBRANCH   1   2
BRANCH   1  12
HETATM   12  O1  UNL     1      26.017   3.139  50.916  1.00  0.00    -0.368 OA
BRANCH  12  13
HETATM   13  C8  UNL     1      25.381   2.075  51.526  1.00  0.00     0.205 C 
BRANCH  13  14
HETATM   14  C9  UNL     1      26.278   1.318  52.441  1.00  0.00    -0.039 C 
HETATM   15  C10 UNL     1      26.909   0.163  52.207  1.00  0.00    -0.005 C 
HETATM   16  C11 UNL     1      27.659  -0.152  53.425  1.00  0.00     0.083 A 
HETATM   17  C12 UNL     1      28.806  -1.078  53.318  1.00  0.00    -0.010 A 
HETATM   18  C14 UNL     1      28.710   0.797  53.796  1.00  0.00     0.040 A 
HETATM   19  C13 UNL     1      29.778  -0.216  53.660  1.00  0.00     0.025 A 
HETATM   20  N2  UNL     1      28.038   1.886  53.997  1.00  0.00    -0.289 NA
HETATM   21  C15 UNL     1      26.577   1.860  53.809  1.00  0.00     0.185 C 
ENDBRANCH  13  14
ENDBRANCH  12  13
ENDBRANCH   1  12
TORSDOF 5
ENDMDL
MODEL 8
REMARK VINA RESULT:      -6.7      3.077      6.098
REMARK  5 active torsions:
REMARK  status: ('A' for Active; 'I' for Inactive)
REMARK    1  A    between atoms: C6_8  and  N1_9 
REMARK    2  A    between atoms: N1_9  and  C7_10 
REMARK    3  A    between atoms: C7_10  and  O1_11 
REMARK    4  A    between atoms: O1_11  and  C8_12 
REMARK    5  A    between atoms: C8_12  and  C9_13 
ROOT
HETATM    1  C7  UNL     1      22.724   1.309  51.776  1.00  0.00     0.290 C 
ENDROOT
BRANCH   1   2
HETATM    2  N1  UNL     1      23.588   1.516  52.911  1.00  0.00    -0.366 N 
HETATM    3  H4  UNL     1      23.253   2.133  53.703  1.00  0.00     0.162 HD
BRANCH   2   4
HETATM    4  C6  UNL     1      24.868   0.938  53.025  1.00  0.00     0.068 A 
HETATM    5  C1  UNL     1      25.051  -0.376  53.435  1.00  0.00     0.144 A 
HETATM    6  F1  UNL     1      23.933  -1.114  53.732  1.00  0.00    -0.204 F 
HETATM    7  C2  UNL     1      26.322  -0.904  53.533  1.00  0.00     0.063 A 
HETATM    8  C3  UNL     1      27.441  -0.153  53.232  1.00  0.00     0.014 A 
HETATM    9 BR1  UNL     1      29.146  -0.982  53.404  1.00  0.00    -0.051 Br
HETATM   10  C4  UNL     1      27.274   1.166  52.820  1.00  0.00     0.021 A 
HETATM   11  C5  UNL     1      25.996   1.665  52.731  1.00  0.00     0.034 A 
ENDBRANCH   2   4
ENDBRANCH   1   2
BRANCH   1  12
HETATM   12  O1  UNL     1      22.317   2.508  51.220  1.00  0.00    -0.368 OA
BRANCH  12  13
HETATM   13  C8  UNL     1      22.871   2.716  49.972  1.00  0.00     0.205 C 
BRANCH  13  14
HETATM   14  C9  UNL     1      24.154   3.467  50.031  1.00  0.00    -0.039 C 
HETATM   15  C10 UNL     1      25.279   3.233  49.345  1.00  0.00    -0.005 C 
HETATM   16  C11 UNL     1      26.240   4.253  49.770  1.00  0.00     0.083 A 
HETATM   17  C12 UNL     1      27.375   4.556  48.872  1.00  0.00    -0.010 A 
HETATM   18  C14 UNL     1      25.883   5.639  49.466  1.00  0.00     0.040 A 
HETATM   19  C13 UNL     1      27.057   5.831  48.589  1.00  0.00     0.025 A 
HETATM   20  N2  UNL     1      24.791   5.796  50.145  1.00  0.00    -0.289 NA
HETATM   21  C15 UNL     1      24.280   4.661  50.933  1.00  0.00     0.185 C 
ENDBRANCH  13  14
ENDBRANCH  12  13
ENDBRANCH   1  12
TORSDOF 5
ENDMDL
MODEL 9
REMARK VINA RESULT:      -6.7      4.020      6.725
REMARK  5 active torsions:
REMARK  status: ('A' for Active; 'I' for Inactive)
REMARK    1  A    between atoms: C6_8  and  N1_9 
REMARK    2  A    between atoms: N1_9  and  C7_10 
REMARK    3  A    between atoms: C7_10  and  O1_11 
REMARK    4  A    between atoms: O1_11  and  C8_12 
REMARK    5  A    between atoms: C8_12  and  C9_13 
ROOT
HETATM    1  C7  UNL     1      25.848   0.130  54.931  1.00  0.00     0.290 C 
ENDROOT
BRANCH   1   2
HETATM    2  N1  UNL     1      25.119  -0.822  54.131  1.00  0.00    -0.366 N 
HETATM    3  H4  UNL     1      25.647  -1.624  53.684  1.00  0.00     0.162 HD
BRANCH   2   4
HETATM    4  C6  UNL     1      23.731  -0.745  53.908  1.00  0.00     0.068 A 
HETATM    5  C1  UNL     1      22.806  -1.156  54.858  1.00  0.00     0.144 A 
HETATM    6  F1  UNL     1      23.285  -1.650  56.044  1.00  0.00    -0.204 F 
HETATM    7  C2  UNL     1      21.453  -1.062  54.599  1.00  0.00     0.063 A 
HETATM    8  C3  UNL     1      20.980  -0.564  53.401  1.00  0.00     0.014 A 
HETATM    9 BR1  UNL     1      19.095  -0.480  53.151  1.00  0.00    -0.051 Br
HETATM   10  C4  UNL     1      21.895  -0.147  52.439  1.00  0.00     0.021 A 
HETATM   11  C5  UNL     1      23.236  -0.251  52.724  1.00  0.00     0.034 A 
ENDBRANCH   2   4
ENDBRANCH   1   2
BRANCH   1  12
HETATM   12  O1  UNL     1      26.670   0.927  54.154  1.00  0.00    -0.368 OA
BRANCH  12  13
HETATM   13  C8  UNL     1      26.121   2.174  53.926  1.00  0.00     0.205 C 
BRANCH  13  14
HETATM   14  C9  UNL     1      25.744   2.385  52.502  1.00  0.00    -0.039 C 
HETATM   15  C10 UNL     1      24.627   2.941  52.019  1.00  0.00    -0.005 C 
HETATM   16  C11 UNL     1      24.749   2.907  50.560  1.00  0.00     0.083 A 
HETATM   17  C12 UNL     1      23.931   3.853  49.771  1.00  0.00    -0.010 A 
HETATM   18  C14 UNL     1      25.848   3.686  49.988  1.00  0.00     0.040 A 
HETATM   19  C13 UNL     1      24.933   4.572  49.239  1.00  0.00     0.025 A 
HETATM   20  N2  UNL     1      26.889   3.108  50.500  1.00  0.00    -0.289 NA
HETATM   21  C15 UNL     1      26.687   1.967  51.411  1.00  0.00     0.185 C 
ENDBRANCH  13  14
ENDBRANCH  12  13
ENDBRANCH   1  12
TORSDOF 5
ENDMDL
