MODEL 1
REMARK VINA RESULT:      -8.4      0.000      0.000
REMARK  9 active torsions:
REMARK  status: ('A' for Active; 'I' for Inactive)
REMARK    1  A    between atoms: N1_3  and  C2_4 
REMARK    2  A    between atoms: C3_5  and  C18_24 
REMARK    3  A    between atoms: C4_6  and  C18_24 
REMARK    4  A    between atoms: C7_9  and  N2_10 
REMARK    5  A    between atoms: N2_10  and  C8_11 
REMARK    6  A    between atoms: C8_11  and  C9_12 
REMARK    7  A    between atoms: C8_11  and  C10_14 
REMARK    8  A    between atoms: C9_12  and  O2_13 
REMARK    9  A    between atoms: C17_23  and  C18_24 
ROOT
HETATM    1  C2  UNL     1      29.771  -0.601  54.068  1.00  0.00     0.116 A 
HETATM    2  C3  UNL     1      28.841  -1.116  53.138  1.00  0.00     0.046 A 
HETATM    3  C4  UNL     1      28.744   0.350  53.329  1.00  0.00     0.037 A 
HETATM    4  C5  UNL     1      28.769   1.809  53.439  1.00  0.00     0.047 C 
HETATM    5  C6  UNL     1      27.383   2.386  53.305  1.00  0.00     0.024 C 
HETATM    6  C7  UNL     1      26.093   2.095  53.134  1.00  0.00     0.121 C 
HETATM    7  N3  UNL     1      25.085   1.112  52.964  1.00  0.00    -0.226 NA
HETATM    8  C16 UNL     1      25.418  -0.033  52.493  1.00  0.00     0.230 C 
HETATM    9  N4  UNL     1      26.557  -0.743  52.030  1.00  0.00    -0.267 NA
HETATM   10  C17 UNL     1      27.589  -0.822  52.706  1.00  0.00     0.107 A 
ENDROOT
BRANCH   6  11
HETATM   11  N2  UNL     1      25.063   3.118  53.069  1.00  0.00    -0.364 N 
HETATM   12  H6  UNL     1      24.901   3.563  54.026  1.00  0.00     0.162 HD
BRANCH  11  13
HETATM   13  C8  UNL     1      24.297   3.563  51.916  1.00  0.00     0.140 C 
BRANCH  13  14
HETATM   14  C9  UNL     1      23.304   4.603  52.388  1.00  0.00     0.194 C 
BRANCH  14  15
HETATM   15  O2  UNL     1      23.753   5.247  53.539  1.00  0.00    -0.399 OA
HETATM   16  H10 UNL     1      23.934   6.224  53.366  1.00  0.00     0.209 HD
ENDBRANCH  14  15
ENDBRANCH  13  14
BRANCH  13  17
HETATM   17  C10 UNL     1      25.152   4.131  50.835  1.00  0.00    -0.034 A 
HETATM   18  C11 UNL     1      24.968   5.455  50.479  1.00  0.00     0.009 A 
HETATM   19  C12 UNL     1      25.798   5.932  49.457  1.00  0.00     0.001 A 
HETATM   20  C13 UNL     1      26.755   5.172  48.817  1.00  0.00     0.000 A 
HETATM   21  C14 UNL     1      26.910   3.837  49.207  1.00  0.00     0.001 A 
HETATM   22  C15 UNL     1      26.105   3.332  50.214  1.00  0.00     0.009 A 
ENDBRANCH  13  17
ENDBRANCH  11  13
ENDBRANCH   6  11
BRANCH   3  23
HETATM   23  C18 UNL     1      27.615  -0.176  54.021  1.00  0.00     0.120 A 
HETATM   24  C1  UNL     1      26.943  -0.211  55.170  1.00  0.00     0.226 A 
HETATM   25  O1  UNL     1      25.781  -0.302  55.635  1.00  0.00    -0.277 OA
HETATM   26  N1  UNL     1      28.326  -0.087  55.330  1.00  0.00    -0.231 NA
ENDBRANCH   3  23
TORSDOF 9
ENDMDL
MODEL 2
REMARK VINA RESULT:      -8.0      2.479      2.950
REMARK  9 active torsions:
REMARK  status: ('A' for Active; 'I' for Inactive)
REMARK    1  A    between atoms: N1_3  and  C2_4 
REMARK    2  A    between atoms: C3_5  and  C18_24 
REMARK    3  A    between atoms: C4_6  and  C18_24 
REMARK    4  A    between atoms: C7_9  and  N2_10 
REMARK    5  A    between atoms: N2_10  and  C8_11 
REMARK    6  A    between atoms: C8_11  and  C9_12 
REMARK    7  A    between atoms: C8_11  and  C10_14 
REMARK    8  A    between atoms: C9_12  and  O2_13 
REMARK    9  A    between atoms: C17_23  and  C18_24 
ROOT
HETATM    1  C2  UNL     1      29.537   0.508  53.834  1.00  0.00     0.116 A 
HETATM    2  C3  UNL     1      28.861  -0.555  53.195  1.00  0.00     0.046 A 
HETATM    3  C4  UNL     1      28.163   0.748  53.086  1.00  0.00     0.037 A 
HETATM    4  C5  UNL     1      27.575   2.072  52.881  1.00  0.00     0.047 C 
HETATM    5  C6  UNL     1      26.070   1.997  52.852  1.00  0.00     0.024 C 
HETATM    6  C7  UNL     1      25.016   1.185  52.954  1.00  0.00     0.121 C 
HETATM    7  N3  UNL     1      24.512  -0.124  53.158  1.00  0.00    -0.226 NA
HETATM    8  C16 UNL     1      25.270  -1.123  52.890  1.00  0.00     0.230 C 
HETATM    9  N4  UNL     1      26.575  -1.416  52.412  1.00  0.00    -0.267 NA
HETATM   10  C17 UNL     1      27.580  -0.903  52.916  1.00  0.00     0.107 A 
ENDROOT
BRANCH   6  11
HETATM   11  N2  UNL     1      23.649   1.662  52.841  1.00  0.00    -0.364 N 
HETATM   12  H6  UNL     1      23.513   2.573  53.380  1.00  0.00     0.162 HD
BRANCH  11  13
HETATM   13  C8  UNL     1      22.537   1.067  52.117  1.00  0.00     0.140 C 
BRANCH  13  14
HETATM   14  C9  UNL     1      21.257   1.464  52.819  1.00  0.00     0.194 C 
BRANCH  14  15
HETATM   15  O2  UNL     1      20.895   0.525  53.783  1.00  0.00    -0.399 OA
HETATM   16  H10 UNL     1      21.619   0.412  54.476  1.00  0.00     0.209 HD
ENDBRANCH  14  15
ENDBRANCH  13  14
BRANCH  13  17
HETATM   17  C10 UNL     1      22.484   1.488  50.688  1.00  0.00    -0.034 A 
HETATM   18  C11 UNL     1      21.568   0.870  49.855  1.00  0.00     0.009 A 
HETATM   19  C12 UNL     1      21.563   1.306  48.524  1.00  0.00     0.001 A 
HETATM   20  C13 UNL     1      22.398   2.285  48.026  1.00  0.00     0.000 A 
HETATM   21  C14 UNL     1      23.310   2.885  48.901  1.00  0.00     0.001 A 
HETATM   22  C15 UNL     1      23.341   2.479  50.224  1.00  0.00     0.009 A 
ENDBRANCH  13  17
ENDBRANCH  11  13
ENDBRANCH   6  11
BRANCH   3  23
HETATM   23  C18 UNL     1      27.405   0.015  54.044  1.00  0.00     0.120 A 
HETATM   24  C1  UNL     1      26.878   0.015  55.267  1.00  0.00     0.226 A 
HETATM   25  O1  UNL     1      25.892  -0.407  55.919  1.00  0.00    -0.277 OA
HETATM   26  N1  UNL     1      28.083   0.715  55.175  1.00  0.00    -0.231 NA
ENDBRANCH   3  23
TORSDOF 9
ENDMDL
MODEL 3
REMARK VINA RESULT:      -7.9      3.257      4.983
REMARK  9 active torsions:
REMARK  status: ('A' for Active; 'I' for Inactive)
REMARK    1  A    between atoms: N1_3  and  C2_4 
REMARK    2  A    between atoms: C3_5  and  C18_24 
REMARK    3  A    between atoms: C4_6  and  C18_24 
REMARK    4  A    between atoms: C7_9  and  N2_10 
REMARK    5  A    between atoms: N2_10  and  C8_11 
REMARK    6  A    between atoms: C8_11  and  C9_12 
REMARK    7  A    between atoms: C8_11  and  C10_14 
REMARK    8  A    between atoms: C9_12  and  O2_13 
REMARK    9  A    between atoms: C17_23  and  C18_24 
ROOT
HETATM    1  C2  UNL     1      29.459  -0.521  54.226  1.00  0.00     0.116 A 
HETATM    2  C3  UNL     1      29.135   0.449  53.252  1.00  0.00     0.046 A 
HETATM    3  C4  UNL     1      28.054   0.207  54.237  1.00  0.00     0.037 A 
HETATM    4  C5  UNL     1      27.066   0.042  55.304  1.00  0.00     0.047 C 
HETATM    5  C6  UNL     1      25.665   0.188  54.771  1.00  0.00     0.024 C 
HETATM    6  C7  UNL     1      24.930   0.402  53.677  1.00  0.00     0.121 C 
HETATM    7  N3  UNL     1      24.878   0.632  52.280  1.00  0.00    -0.226 NA
HETATM    8  C16 UNL     1      25.905   1.138  51.702  1.00  0.00     0.230 C 
HETATM    9  N4  UNL     1      27.216   1.598  51.995  1.00  0.00    -0.267 NA
HETATM   10  C17 UNL     1      28.023   0.901  52.620  1.00  0.00     0.107 A 
ENDROOT
BRANCH   6  11
HETATM   11  N2  UNL     1      23.479   0.454  53.710  1.00  0.00    -0.364 N 
HETATM   12  H6  UNL     1      23.129   1.462  53.737  1.00  0.00     0.162 HD
BRANCH  11  13
HETATM   13  C8  UNL     1      22.531  -0.649  53.704  1.00  0.00     0.140 C 
BRANCH  13  14
HETATM   14  C9  UNL     1      22.143  -0.939  55.138  1.00  0.00     0.194 C 
BRANCH  14  15
HETATM   15  O2  UNL     1      23.023  -1.844  55.728  1.00  0.00    -0.399 OA
HETATM   16  H10 UNL     1      23.727  -2.151  55.074  1.00  0.00     0.209 HD
ENDBRANCH  14  15
ENDBRANCH  13  14
BRANCH  13  17
HETATM   17  C10 UNL     1      21.311  -0.362  52.896  1.00  0.00    -0.034 A 
HETATM   18  C11 UNL     1      21.469   0.229  51.656  1.00  0.00     0.009 A 
HETATM   19  C12 UNL     1      20.289   0.475  50.943  1.00  0.00     0.001 A 
HETATM   20  C13 UNL     1      19.026   0.165  51.404  1.00  0.00     0.000 A 
HETATM   21  C14 UNL     1      18.909  -0.432  52.664  1.00  0.00     0.001 A 
HETATM   22  C15 UNL     1      20.056  -0.689  53.396  1.00  0.00     0.009 A 
ENDBRANCH  13  17
ENDBRANCH  11  13
ENDBRANCH   6  11
BRANCH   3  23
HETATM   23  C18 UNL     1      27.606  -0.438  53.048  1.00  0.00     0.120 A 
HETATM   24  C1  UNL     1      27.194  -1.579  52.499  1.00  0.00     0.226 A 
HETATM   25  O1  UNL     1      26.418  -2.033  51.624  1.00  0.00    -0.277 OA
HETATM   26  N1  UNL     1      28.146  -1.750  53.508  1.00  0.00    -0.231 NA
ENDBRANCH   3  23
TORSDOF 9
ENDMDL
MODEL 4
REMARK VINA RESULT:      -7.8      3.322      6.375
REMARK  9 active torsions:
REMARK  status: ('A' for Active; 'I' for Inactive)
REMARK    1  A    between atoms: N1_3  and  C2_4 
REMARK    2  A    between atoms: C3_5  and  C18_24 
REMARK    3  A    between atoms: C4_6  and  C18_24 
REMARK    4  A    between atoms: C7_9  and  N2_10 
REMARK    5  A    between atoms: N2_10  and  C8_11 
REMARK    6  A    between atoms: C8_11  and  C9_12 
REMARK    7  A    between atoms: C8_11  and  C10_14 
REMARK    8  A    between atoms: C9_12  and  O2_13 
REMARK    9  A    between atoms: C17_23  and  C18_24 
ROOT
HETATM    1  C2  UNL     1      19.281   0.063  52.539  1.00  0.00     0.116 A 
HETATM    2  C3  UNL     1      19.696   0.260  51.204  1.00  0.00     0.046 A 
HETATM    3  C4  UNL     1      20.816   0.181  52.172  1.00  0.00     0.037 A 
HETATM    4  C5  UNL     1      21.897  -0.041  53.133  1.00  0.00     0.047 C 
HETATM    5  C6  UNL     1      23.101   0.801  52.796  1.00  0.00     0.024 C 
HETATM    6  C7  UNL     1      23.595   1.710  51.953  1.00  0.00     0.121 C 
HETATM    7  N3  UNL     1      23.406   2.538  50.818  1.00  0.00    -0.226 NA
HETATM    8  C16 UNL     1      22.520   2.202  49.954  1.00  0.00     0.230 C 
HETATM    9  N4  UNL     1      21.558   1.189  49.703  1.00  0.00    -0.267 NA
HETATM   10  C17 UNL     1      20.722   0.864  50.553  1.00  0.00     0.107 A 
ENDROOT
BRANCH   6  11
HETATM   11  N2  UNL     1      24.939   2.247  52.084  1.00  0.00    -0.364 N 
HETATM   12  H6  UNL     1      24.962   3.064  52.770  1.00  0.00     0.162 HD
BRANCH  11  13
HETATM   13  C8  UNL     1      26.159   1.809  51.425  1.00  0.00     0.140 C 
BRANCH  13  14
HETATM   14  C9  UNL     1      26.798   3.016  50.775  1.00  0.00     0.194 C 
BRANCH  14  15
HETATM   15  O2  UNL     1      25.972   4.134  50.858  1.00  0.00    -0.399 OA
HETATM   16  H10 UNL     1      26.477   4.981  50.647  1.00  0.00     0.209 HD
ENDBRANCH  14  15
ENDBRANCH  13  14
BRANCH  13  17
HETATM   17  C10 UNL     1      27.124   1.165  52.361  1.00  0.00    -0.034 A 
HETATM   18  C11 UNL     1      27.140  -0.216  52.441  1.00  0.00     0.009 A 
HETATM   19  C12 UNL     1      28.067  -0.764  53.336  1.00  0.00     0.001 A 
HETATM   20  C13 UNL     1      28.932  -0.018  54.109  1.00  0.00     0.000 A 
HETATM   21  C14 UNL     1      28.885   1.376  53.999  1.00  0.00     0.001 A 
HETATM   22  C15 UNL     1      27.980   1.951  53.123  1.00  0.00     0.009 A 
ENDBRANCH  13  17
ENDBRANCH  11  13
ENDBRANCH   6  11
BRANCH   3  23
HETATM   23  C18 UNL     1      20.726   1.564  51.841  1.00  0.00     0.120 A 
HETATM   24  C1  UNL     1      20.634   2.807  52.310  1.00  0.00     0.226 A 
HETATM   25  O1  UNL     1      20.985   3.986  52.063  1.00  0.00    -0.277 OA
HETATM   26  N1  UNL     1      19.980   1.857  53.099  1.00  0.00    -0.231 NA
ENDBRANCH   3  23
TORSDOF 9
ENDMDL
MODEL 5
REMARK VINA RESULT:      -7.8      2.664      4.230
REMARK  9 active torsions:
REMARK  status: ('A' for Active; 'I' for Inactive)
REMARK    1  A    between atoms: N1_3  and  C2_4 
REMARK    2  A    between atoms: C3_5  and  C18_24 
REMARK    3  A    between atoms: C4_6  and  C18_24 
REMARK    4  A    between atoms: C7_9  and  N2_10 
REMARK    5  A    between atoms: N2_10  and  C8_11 
REMARK    6  A    between atoms: C8_11  and  C9_12 
REMARK    7  A    between atoms: C8_11  and  C10_14 
REMARK    8  A    between atoms: C9_12  and  O2_13 
REMARK    9  A    between atoms: C17_23  and  C18_24 
ROOT
HETATM    1  C2  UNL     1      29.788   0.911  54.212  1.00  0.00     0.116 A 
HETATM    2  C3  UNL     1      29.422  -0.290  53.566  1.00  0.00     0.046 A 
HETATM    3  C4  UNL     1      28.557   0.863  53.219  1.00  0.00     0.037 A 
HETATM    4  C5  UNL     1      27.813   2.049  52.794  1.00  0.00     0.047 C 
HETATM    5  C6  UNL     1      26.372   1.711  52.513  1.00  0.00     0.024 C 
HETATM    6  C7  UNL     1      25.461   0.736  52.506  1.00  0.00     0.121 C 
HETATM    7  N3  UNL     1      25.143  -0.625  52.740  1.00  0.00    -0.226 NA
HETATM    8  C16 UNL     1      26.088  -1.491  52.701  1.00  0.00     0.230 C 
HETATM    9  N4  UNL     1      27.488  -1.583  52.484  1.00  0.00    -0.267 NA
HETATM   10  C17 UNL     1      28.287  -0.872  53.104  1.00  0.00     0.107 A 
ENDROOT
BRANCH   6  11
HETATM   11  N2  UNL     1      24.080   0.960  52.115  1.00  0.00    -0.364 N 
HETATM   12  H6  UNL     1      23.884   0.558  51.146  1.00  0.00     0.162 HD
BRANCH  11  13
HETATM   13  C8  UNL     1      23.022   1.624  52.860  1.00  0.00     0.140 C 
BRANCH  13  14
HETATM   14  C9  UNL     1      22.633   2.876  52.104  1.00  0.00     0.194 C 
BRANCH  14  15
HETATM   15  O2  UNL     1      23.359   3.980  52.543  1.00  0.00    -0.399 OA
HETATM   16  H10 UNL     1      23.109   4.233  53.487  1.00  0.00     0.209 HD
ENDBRANCH  14  15
ENDBRANCH  13  14
BRANCH  13  17
HETATM   17  C10 UNL     1      21.825   0.760  53.062  1.00  0.00    -0.034 A 
HETATM   18  C11 UNL     1      20.695   1.014  52.305  1.00  0.00     0.009 A 
HETATM   19  C12 UNL     1      19.602   0.171  52.538  1.00  0.00     0.001 A 
HETATM   20  C13 UNL     1      19.601  -0.862  53.453  1.00  0.00     0.000 A 
HETATM   21  C14 UNL     1      20.763  -1.086  54.199  1.00  0.00     0.001 A 
HETATM   22  C15 UNL     1      21.863  -0.271  53.994  1.00  0.00     0.009 A 
ENDBRANCH  13  17
ENDBRANCH  11  13
ENDBRANCH   6  11
BRANCH   3  23
HETATM   23  C18 UNL     1      27.762   0.070  54.096  1.00  0.00     0.120 A 
HETATM   24  C1  UNL     1      27.040   0.049  55.215  1.00  0.00     0.226 A 
HETATM   25  O1  UNL     1      26.029  -0.487  55.731  1.00  0.00    -0.277 OA
HETATM   26  N1  UNL     1      28.130   0.921  55.265  1.00  0.00    -0.231 NA
ENDBRANCH   3  23
TORSDOF 9
ENDMDL
MODEL 6
REMARK VINA RESULT:      -7.8      1.869      6.289
REMARK  9 active torsions:
REMARK  status: ('A' for Active; 'I' for Inactive)
REMARK    1  A    between atoms: N1_3  and  C2_4 
REMARK    2  A    between atoms: C3_5  and  C18_24 
REMARK    3  A    between atoms: C4_6  and  C18_24 
REMARK    4  A    between atoms: C7_9  and  N2_10 
REMARK    5  A    between atoms: N2_10  and  C8_11 
REMARK    6  A    between atoms: C8_11  and  C9_12 
REMARK    7  A    between atoms: C8_11  and  C10_14 
REMARK    8  A    between atoms: C9_12  and  O2_13 
REMARK    9  A    between atoms: C17_23  and  C18_24 
ROOT
HETATM    1  C2  UNL     1      24.998   5.177  48.971  1.00  0.00     0.116 A 
HETATM    2  C3  UNL     1      24.352   5.436  50.200  1.00  0.00     0.046 A 
HETATM    3  C4  UNL     1      25.292   4.290  50.248  1.00  0.00     0.037 A 
HETATM    4  C5  UNL     1      26.327   3.257  50.295  1.00  0.00     0.047 C 
HETATM    5  C6  UNL     1      25.937   2.142  51.231  1.00  0.00     0.024 C 
HETATM    6  C7  UNL     1      24.990   1.692  52.057  1.00  0.00     0.121 C 
HETATM    7  N3  UNL     1      23.717   1.874  52.652  1.00  0.00    -0.226 NA
HETATM    8  C16 UNL     1      23.244   3.062  52.740  1.00  0.00     0.230 C 
HETATM    9  N4  UNL     1      23.577   4.405  52.418  1.00  0.00    -0.267 NA
HETATM   10  C17 UNL     1      23.936   4.728  51.281  1.00  0.00     0.107 A 
ENDROOT
BRANCH   6  11
HETATM   11  N2  UNL     1      25.120   0.442  52.785  1.00  0.00    -0.364 N 
HETATM   12  H6  UNL     1      24.621  -0.354  52.277  1.00  0.00     0.162 HD
BRANCH  11  13
HETATM   13  C8  UNL     1      25.812   0.190  54.039  1.00  0.00     0.140 C 
BRANCH  13  14
HETATM   14  C9  UNL     1      25.080  -0.920  54.762  1.00  0.00     0.194 C 
BRANCH  14  15
HETATM   15  O2  UNL     1      25.470  -0.999  56.097  1.00  0.00    -0.399 OA
HETATM   16  H10 UNL     1      26.460  -0.834  56.201  1.00  0.00     0.209 HD
ENDBRANCH  14  15
ENDBRANCH  13  14
BRANCH  13  17
HETATM   17  C10 UNL     1      27.242  -0.186  53.847  1.00  0.00    -0.034 A 
HETATM   18  C11 UNL     1      28.217   0.679  54.311  1.00  0.00     0.009 A 
HETATM   19  C12 UNL     1      29.540   0.274  54.103  1.00  0.00     0.001 A 
HETATM   20  C13 UNL     1      29.902  -0.903  53.481  1.00  0.00     0.000 A 
HETATM   21  C14 UNL     1      28.887  -1.750  53.026  1.00  0.00     0.001 A 
HETATM   22  C15 UNL     1      27.566  -1.381  53.215  1.00  0.00     0.009 A 
ENDBRANCH  13  17
ENDBRANCH  11  13
ENDBRANCH   6  11
BRANCH   3  23
HETATM   23  C18 UNL     1      23.998   3.692  50.246  1.00  0.00     0.120 A 
HETATM   24  C1  UNL     1      23.189   2.816  49.654  1.00  0.00     0.226 A 
HETATM   25  O1  UNL     1      22.265   2.002  49.896  1.00  0.00    -0.277 OA
HETATM   26  N1  UNL     1      24.067   3.454  48.775  1.00  0.00    -0.231 NA
ENDBRANCH   3  23
TORSDOF 9
ENDMDL
MODEL 7
REMARK VINA RESULT:      -7.7      2.078      2.746
REMARK  9 active torsions:
REMARK  status: ('A' for Active; 'I' for Inactive)
REMARK    1  A    between atoms: N1_3  and  C2_4 
REMARK    2  A    between atoms: C3_5  and  C18_24 
REMARK    3  A    between atoms: C4_6  and  C18_24 
REMARK    4  A    between atoms: C7_9  and  N2_10 
REMARK    5  A    between atoms: N2_10  and  C8_11 
REMARK    6  A    between atoms: C8_11  and  C9_12 
REMARK    7  A    between atoms: C8_11  and  C10_14 
REMARK    8  A    between atoms: C9_12  and  O2_13 
REMARK    9  A    between atoms: C17_23  and  C18_24 
ROOT
HETATM    1  C2  UNL     1      29.866  -0.072  54.116  1.00  0.00     0.116 A 
HETATM    2  C3  UNL     1      29.076  -0.939  53.330  1.00  0.00     0.046 A 
HETATM    3  C4  UNL     1      28.678   0.485  53.232  1.00  0.00     0.037 A 
HETATM    4  C5  UNL     1      28.403   1.911  53.053  1.00  0.00     0.047 C 
HETATM    5  C6  UNL     1      26.931   2.157  52.845  1.00  0.00     0.024 C 
HETATM    6  C7  UNL     1      25.730   1.581  52.767  1.00  0.00     0.121 C 
HETATM    7  N3  UNL     1      24.947   0.400  52.820  1.00  0.00    -0.226 NA
HETATM    8  C16 UNL     1      25.514  -0.723  52.573  1.00  0.00     0.230 C 
HETATM    9  N4  UNL     1      26.781  -1.264  52.230  1.00  0.00    -0.267 NA
HETATM   10  C17 UNL     1      27.797  -0.997  52.881  1.00  0.00     0.107 A 
ENDROOT
BRANCH   6  11
HETATM   11  N2  UNL     1      24.514   2.340  52.529  1.00  0.00    -0.364 N 
HETATM   12  H6  UNL     1      23.855   2.285  53.368  1.00  0.00     0.162 HD
BRANCH  11  13
HETATM   13  C8  UNL     1      24.141   3.112  51.355  1.00  0.00     0.140 C 
BRANCH  13  14
HETATM   14  C9  UNL     1      25.404   3.428  50.583  1.00  0.00     0.194 C 
BRANCH  14  15
HETATM   15  O2  UNL     1      25.740   4.776  50.691  1.00  0.00    -0.399 OA
HETATM   16  H10 UNL     1      25.751   5.225  49.788  1.00  0.00     0.209 HD
ENDBRANCH  14  15
ENDBRANCH  13  14
BRANCH  13  17
HETATM   17  C10 UNL     1      23.173   2.398  50.475  1.00  0.00    -0.034 A 
HETATM   18  C11 UNL     1      23.156   2.710  49.127  1.00  0.00     0.009 A 
HETATM   19  C12 UNL     1      22.226   2.008  48.351  1.00  0.00     0.001 A 
HETATM   20  C13 UNL     1      21.362   1.055  48.849  1.00  0.00     0.000 A 
HETATM   21  C14 UNL     1      21.411   0.768  50.217  1.00  0.00     0.001 A 
HETATM   22  C15 UNL     1      22.318   1.444  51.015  1.00  0.00     0.009 A 
ENDBRANCH  13  17
ENDBRANCH  11  13
ENDBRANCH   6  11
BRANCH   3  23
HETATM   23  C18 UNL     1      27.671  -0.112  54.043  1.00  0.00     0.120 A 
HETATM   24  C1  UNL     1      26.986  -0.042  55.183  1.00  0.00     0.226 A 
HETATM   25  O1  UNL     1      25.858  -0.283  55.677  1.00  0.00    -0.277 OA
HETATM   26  N1  UNL     1      28.302   0.416  55.287  1.00  0.00    -0.231 NA
ENDBRANCH   3  23
TORSDOF 9
ENDMDL
MODEL 8
REMARK VINA RESULT:      -7.7      2.270      6.666
REMARK  9 active torsions:
REMARK  status: ('A' for Active; 'I' for Inactive)
REMARK    1  A    between atoms: N1_3  and  C2_4 
REMARK    2  A    between atoms: C3_5  and  C18_24 
REMARK    3  A    between atoms: C4_6  and  C18_24 
REMARK    4  A    between atoms: C7_9  and  N2_10 
REMARK    5  A    between atoms: N2_10  and  C8_11 
REMARK    6  A    between atoms: C8_11  and  C9_12 
REMARK    7  A    between atoms: C8_11  and  C10_14 
REMARK    8  A    between atoms: C9_12  and  O2_13 
REMARK    9  A    between atoms: C17_23  and  C18_24 
ROOT
HETATM    1  C2  UNL     1      23.607   5.492  48.377  1.00  0.00     0.116 A 
HETATM    2  C3  UNL     1      23.292   5.813  49.716  1.00  0.00     0.046 A 
HETATM    3  C4  UNL     1      24.493   4.956  49.574  1.00  0.00     0.037 A 
HETATM    4  C5  UNL     1      25.750   4.230  49.388  1.00  0.00     0.047 C 
HETATM    5  C6  UNL     1      25.979   3.250  50.510  1.00  0.00     0.024 C 
HETATM    6  C7  UNL     1      25.476   2.748  51.639  1.00  0.00     0.121 C 
HETATM    7  N3  UNL     1      24.428   2.726  52.593  1.00  0.00    -0.226 NA
HETATM    8  C16 UNL     1      23.679   3.760  52.707  1.00  0.00     0.230 C 
HETATM    9  N4  UNL     1      23.507   5.059  52.158  1.00  0.00    -0.267 NA
HETATM   10  C17 UNL     1      23.420   5.241  50.939  1.00  0.00     0.107 A 
ENDROOT
BRANCH   6  11
HETATM   11  N2  UNL     1      26.160   1.725  52.411  1.00  0.00    -0.364 N 
HETATM   12  H6  UNL     1      25.471   1.160  52.999  1.00  0.00     0.162 HD
BRANCH  11  13
HETATM   13  C8  UNL     1      27.580   1.416  52.452  1.00  0.00     0.140 C 
BRANCH  13  14
HETATM   14  C9  UNL     1      28.206   2.242  53.555  1.00  0.00     0.194 C 
BRANCH  14  15
HETATM   15  O2  UNL     1      29.140   3.142  53.048  1.00  0.00    -0.399 OA
HETATM   16  H10 UNL     1      29.444   2.875  52.124  1.00  0.00     0.209 HD
ENDBRANCH  14  15
ENDBRANCH  13  14
BRANCH  13  17
HETATM   17  C10 UNL     1      27.854  -0.031  52.682  1.00  0.00    -0.034 A 
HETATM   18  C11 UNL     1      29.077  -0.391  53.219  1.00  0.00     0.009 A 
HETATM   19  C12 UNL     1      29.278  -1.763  53.412  1.00  0.00     0.001 A 
HETATM   20  C13 UNL     1      28.346  -2.733  53.106  1.00  0.00     0.000 A 
HETATM   21  C14 UNL     1      27.121  -2.328  52.566  1.00  0.00     0.001 A 
HETATM   22  C15 UNL     1      26.889  -0.978  52.361  1.00  0.00     0.009 A 
ENDBRANCH  13  17
ENDBRANCH  11  13
ENDBRANCH   6  11
BRANCH   3  23
HETATM   23  C18 UNL     1      23.481   4.076  50.052  1.00  0.00     0.120 A 
HETATM   24  C1  UNL     1      22.818   2.939  49.844  1.00  0.00     0.226 A 
HETATM   25  O1  UNL     1      22.275   1.985  50.451  1.00  0.00    -0.277 OA
HETATM   26  N1  UNL     1      23.183   3.602  48.669  1.00  0.00    -0.231 NA
ENDBRANCH   3  23
TORSDOF 9
ENDMDL
MODEL 9
REMARK VINA RESULT:      -7.7      3.853      4.811
REMARK  9 active torsions:
REMARK  status: ('A' for Active; 'I' for Inactive)
REMARK    1  A    between atoms: N1_3  and  C2_4 
REMARK    2  A    between atoms: C3_5  and  C18_24 
REMARK    3  A    between atoms: C4_6  and  C18_24 
REMARK    4  A    between atoms: C7_9  and  N2_10 
REMARK    5  A    between atoms: N2_10  and  C8_11 
REMARK    6  A    between atoms: C8_11  and  C9_12 
REMARK    7  A    between atoms: C8_11  and  C10_14 
REMARK    8  A    between atoms: C9_12  and  O2_13 
REMARK    9  A    between atoms: C17_23  and  C18_24 
ROOT
HETATM    1  C2  UNL     1      21.648  -0.581  53.271  1.00  0.00     0.116 A 
HETATM    2  C3  UNL     1      21.593  -0.372  51.875  1.00  0.00     0.046 A 
HETATM    3  C4  UNL     1      22.655   0.408  52.555  1.00  0.00     0.037 A 
HETATM    4  C5  UNL     1      23.777   1.054  53.236  1.00  0.00     0.047 C 
HETATM    5  C6  UNL     1      24.079   2.398  52.627  1.00  0.00     0.024 C 
HETATM    6  C7  UNL     1      23.716   3.278  51.692  1.00  0.00     0.121 C 
HETATM    7  N3  UNL     1      22.842   3.627  50.632  1.00  0.00    -0.226 NA
HETATM    8  C16 UNL     1      22.239   2.690  49.999  1.00  0.00     0.230 C 
HETATM    9  N4  UNL     1      22.122   1.275  49.980  1.00  0.00    -0.267 NA
HETATM   10  C17 UNL     1      21.857   0.633  51.002  1.00  0.00     0.107 A 
ENDROOT
BRANCH   6  11
HETATM   11  N2  UNL     1      24.402   4.545  51.504  1.00  0.00    -0.364 N 
HETATM   12  H6  UNL     1      25.034   4.768  52.335  1.00  0.00     0.162 HD
BRANCH  11  13
HETATM   13  C8  UNL     1      24.319   5.464  50.381  1.00  0.00     0.140 C 
BRANCH  13  14
HETATM   14  C9  UNL     1      23.884   6.813  50.911  1.00  0.00     0.194 C 
BRANCH  14  15
HETATM   15  O2  UNL     1      24.281   6.990  52.234  1.00  0.00    -0.399 OA
HETATM   16  H10 UNL     1      25.256   7.241  52.295  1.00  0.00     0.209 HD
ENDBRANCH  14  15
ENDBRANCH  13  14
BRANCH  13  17
HETATM   17  C10 UNL     1      25.609   5.600  49.646  1.00  0.00    -0.034 A 
HETATM   18  C11 UNL     1      25.990   6.857  49.213  1.00  0.00     0.009 A 
HETATM   19  C12 UNL     1      27.210   6.923  48.529  1.00  0.00     0.001 A 
HETATM   20  C13 UNL     1      28.018   5.834  48.278  1.00  0.00     0.000 A 
HETATM   21  C14 UNL     1      27.597   4.579  48.732  1.00  0.00     0.001 A 
HETATM   22  C15 UNL     1      26.395   4.477  49.413  1.00  0.00     0.009 A 
ENDBRANCH  13  17
ENDBRANCH  11  13
ENDBRANCH   6  11
BRANCH   3  23
HETATM   23  C18 UNL     1      21.644   1.366  52.253  1.00  0.00     0.120 A 
HETATM   24  C1  UNL     1      20.800   2.271  52.745  1.00  0.00     0.226 A 
HETATM   25  O1  UNL     1      20.260   3.371  52.474  1.00  0.00    -0.277 OA
HETATM   26  N1  UNL     1      21.012   1.181  53.592  1.00  0.00    -0.231 NA
ENDBRANCH   3  23
TORSDOF 9
ENDMDL
