MODEL 1
REMARK VINA RESULT:      -7.7      0.000      0.000
REMARK  7 active torsions:
REMARK  status: ('A' for Active; 'I' for Inactive)
REMARK    1  A    between atoms: O1_2  and  C2_3 
REMARK    2  A    between atoms: C2_3  and  C3_4 
REMARK    3  A    between atoms: C3_4  and  O2_5 
REMARK    4  A    between atoms: O2_5  and  C4_6 
REMARK    5  A    between atoms: C6_9  and  C7_10 
REMARK    6  A    between atoms: C7_10  and  O4_11 
REMARK    7  A    between atoms: C12_18  and  N3_19 
ROOT
HETATM    1  C4  UNL     1      24.097  -0.321  53.473  1.00  0.00     0.091 C 
HETATM    2  C5  UNL     1      25.005  -0.831  54.293  1.00  0.00     0.172 C 
HETATM    3  O3  UNL     1      26.339  -0.473  54.487  1.00  0.00    -0.349 OA
HETATM    4  C6  UNL     1      27.447  -0.079  53.751  1.00  0.00     0.176 C 
HETATM    5  C9  UNL     1      27.265   0.960  52.742  1.00  0.00     0.040 C 
HETATM    6  C10 UNL     1      26.361   1.588  52.034  1.00  0.00     0.071 A 
HETATM    7  N1  UNL     1      26.962   2.497  51.245  1.00  0.00    -0.241 NA
HETATM    8  C11 UNL     1      26.238   3.289  50.402  1.00  0.00     0.236 A 
HETATM    9  N2  UNL     1      24.878   3.172  50.343  1.00  0.00    -0.223 NA
HETATM   10  C12 UNL     1      24.236   2.256  51.134  1.00  0.00     0.144 A 
HETATM   11  C19 UNL     1      25.014   1.482  51.965  1.00  0.00     0.041 A 
HETATM   12  C20 UNL     1      24.074   0.748  52.487  1.00  0.00     0.056 C 
ENDROOT
BRANCH  10  13
HETATM   13  N3  UNL     1      22.850   2.354  50.952  1.00  0.00    -0.332 N 
HETATM   14  C13 UNL     1      21.921   1.585  50.147  1.00  0.00     0.158 A 
HETATM   15  C14 UNL     1      20.533   2.109  50.273  1.00  0.00    -0.007 A 
HETATM   16  C15 UNL     1      20.074   3.120  50.990  1.00  0.00    -0.001 A 
HETATM   17  C16 UNL     1      21.071   3.837  51.778  1.00  0.00     0.024 A 
HETATM   18  C17 UNL     1      22.361   3.459  51.744  1.00  0.00     0.009 A 
HETATM   19  C18 UNL     1      23.181   4.350  52.638  1.00  0.00     0.068 C 
ENDBRANCH  10  13
BRANCH   1  20
HETATM   20  O2  UNL     1      22.866  -0.995  53.608  1.00  0.00    -0.347 OA
BRANCH  20  21
HETATM   21  C3  UNL     1      22.131  -0.778  54.799  1.00  0.00     0.201 C 
BRANCH  21  22
HETATM   22  C2  UNL     1      20.978   0.183  54.559  1.00  0.00     0.193 C 
BRANCH  22  23
HETATM   23  O1  UNL     1      20.631   0.171  53.211  1.00  0.00    -0.394 OA
HETATM   24  C1  UNL     1      19.354  -0.340  53.006  1.00  0.00     0.201 C 
ENDBRANCH  22  23
ENDBRANCH  21  22
ENDBRANCH  20  21
ENDBRANCH   1  20
BRANCH   4  25
HETATM   25  C7  UNL     1      28.557   0.377  54.673  1.00  0.00     0.203 C 
BRANCH  25  26
HETATM   26  O4  UNL     1      29.781   0.162  54.091  1.00  0.00    -0.393 OA
HETATM   27  C8  UNL     1      30.038  -1.118  53.679  1.00  0.00     0.201 C 
ENDBRANCH  25  26
ENDBRANCH   4  25
TORSDOF 7
ENDMDL
MODEL 2
REMARK VINA RESULT:      -7.1      1.073      1.649
REMARK  7 active torsions:
REMARK  status: ('A' for Active; 'I' for Inactive)
REMARK    1  A    between atoms: O1_2  and  C2_3 
REMARK    2  A    between atoms: C2_3  and  C3_4 
REMARK    3  A    between atoms: C3_4  and  O2_5 
REMARK    4  A    between atoms: O2_5  and  C4_6 
REMARK    5  A    between atoms: C6_9  and  C7_10 
REMARK    6  A    between atoms: C7_10  and  O4_11 
REMARK    7  A    between atoms: C12_18  and  N3_19 
ROOT
HETATM    1  C4  UNL     1      23.854   0.231  53.227  1.00  0.00     0.091 C 
HETATM    2  C5  UNL     1      24.905  -0.339  53.801  1.00  0.00     0.172 C 
HETATM    3  O3  UNL     1      26.256  -0.003  53.729  1.00  0.00    -0.349 OA
HETATM    4  C6  UNL     1      27.191   0.432  52.800  1.00  0.00     0.176 C 
HETATM    5  C9  UNL     1      26.820   1.536  51.921  1.00  0.00     0.040 C 
HETATM    6  C10 UNL     1      25.800   2.215  51.463  1.00  0.00     0.071 A 
HETATM    7  N1  UNL     1      26.239   3.171  50.623  1.00  0.00    -0.241 NA
HETATM    8  C11 UNL     1      25.369   4.022  50.005  1.00  0.00     0.236 A 
HETATM    9  N2  UNL     1      24.026   3.918  50.230  1.00  0.00    -0.223 NA
HETATM   10  C12 UNL     1      23.547   2.956  51.080  1.00  0.00     0.144 A 
HETATM   11  C19 UNL     1      24.468   2.123  51.676  1.00  0.00     0.041 A 
HETATM   12  C20 UNL     1      23.645   1.363  52.339  1.00  0.00     0.056 C 
ENDROOT
BRANCH  10  13
HETATM   13  N3  UNL     1      22.156   3.076  51.204  1.00  0.00    -0.332 N 
HETATM   14  C13 UNL     1      21.323   3.695  52.217  1.00  0.00     0.158 A 
HETATM   15  C14 UNL     1      19.877   3.527  51.906  1.00  0.00    -0.007 A 
HETATM   16  C15 UNL     1      19.298   2.928  50.879  1.00  0.00    -0.001 A 
HETATM   17  C16 UNL     1      20.207   2.338  49.901  1.00  0.00     0.024 A 
HETATM   18  C17 UNL     1      21.537   2.421  50.075  1.00  0.00     0.009 A 
HETATM   19  C18 UNL     1      22.248   1.742  48.936  1.00  0.00     0.068 C 
ENDBRANCH  10  13
BRANCH   1  20
HETATM   20  O2  UNL     1      22.666  -0.442  53.579  1.00  0.00    -0.347 OA
BRANCH  20  21
HETATM   21  C3  UNL     1      21.552  -0.293  52.717  1.00  0.00     0.201 C 
BRANCH  21  22
HETATM   22  C2  UNL     1      20.315   0.125  53.495  1.00  0.00     0.193 C 
BRANCH  22  23
HETATM   23  O1  UNL     1      19.180  -0.081  52.716  1.00  0.00    -0.394 OA
HETATM   24  C1  UNL     1      18.381  -1.102  53.220  1.00  0.00     0.201 C 
ENDBRANCH  22  23
ENDBRANCH  21  22
ENDBRANCH  20  21
ENDBRANCH   1  20
BRANCH   4  25
HETATM   25  C7  UNL     1      28.481   0.818  53.492  1.00  0.00     0.203 C 
BRANCH  25  26
HETATM   26  O4  UNL     1      28.951  -0.229  54.243  1.00  0.00    -0.393 OA
HETATM   27  C8  UNL     1      29.699  -1.163  53.578  1.00  0.00     0.201 C 
ENDBRANCH  25  26
ENDBRANCH   4  25
TORSDOF 7
ENDMDL
MODEL 3
REMARK VINA RESULT:      -6.9      2.662      4.937
REMARK  7 active torsions:
REMARK  status: ('A' for Active; 'I' for Inactive)
REMARK    1  A    between atoms: O1_2  and  C2_3 
REMARK    2  A    between atoms: C2_3  and  C3_4 
REMARK    3  A    between atoms: C3_4  and  O2_5 
REMARK    4  A    between atoms: O2_5  and  C4_6 
REMARK    5  A    between atoms: C6_9  and  C7_10 
REMARK    6  A    between atoms: C7_10  and  O4_11 
REMARK    7  A    between atoms: C12_18  and  N3_19 
ROOT
HETATM    1  C4  UNL     1      25.190   2.663  51.316  1.00  0.00     0.091 C 
HETATM    2  C5  UNL     1      26.420   2.170  51.319  1.00  0.00     0.172 C 
HETATM    3  O3  UNL     1      26.902   0.969  51.841  1.00  0.00    -0.349 OA
HETATM    4  C6  UNL     1      26.736   0.156  52.952  1.00  0.00     0.176 C 
HETATM    5  C9  UNL     1      25.374  -0.149  53.381  1.00  0.00     0.040 C 
HETATM    6  C10 UNL     1      24.128   0.231  53.262  1.00  0.00     0.071 A 
HETATM    7  N1  UNL     1      23.342  -0.577  53.998  1.00  0.00    -0.241 NA
HETATM    8  C11 UNL     1      21.990  -0.393  54.049  1.00  0.00     0.236 A 
HETATM    9  N2  UNL     1      21.406   0.623  53.347  1.00  0.00    -0.223 NA
HETATM   10  C12 UNL     1      22.179   1.462  52.588  1.00  0.00     0.144 A 
HETATM   11  C19 UNL     1      23.536   1.233  52.574  1.00  0.00     0.041 A 
HETATM   12  C20 UNL     1      23.894   2.224  51.809  1.00  0.00     0.056 C 
ENDROOT
BRANCH  10  13
HETATM   13  N3  UNL     1      21.365   2.383  51.914  1.00  0.00    -0.332 N 
HETATM   14  C13 UNL     1      20.939   3.728  52.250  1.00  0.00     0.158 A 
HETATM   15  C14 UNL     1      20.039   4.288  51.205  1.00  0.00    -0.007 A 
HETATM   16  C15 UNL     1      19.615   3.746  50.076  1.00  0.00    -0.001 A 
HETATM   17  C16 UNL     1      20.096   2.394  49.808  1.00  0.00     0.024 A 
HETATM   18  C17 UNL     1      20.913   1.780  50.682  1.00  0.00     0.009 A 
HETATM   19  C18 UNL     1      21.266   0.406  50.177  1.00  0.00     0.068 C 
ENDBRANCH  10  13
BRANCH   1  20
HETATM   20  O2  UNL     1      25.156   3.919  50.673  1.00  0.00    -0.347 OA
BRANCH  20  21
HETATM   21  C3  UNL     1      26.194   4.208  49.753  1.00  0.00     0.201 C 
BRANCH  21  22
HETATM   22  C2  UNL     1      25.967   5.554  49.084  1.00  0.00     0.193 C 
BRANCH  22  23
HETATM   23  O1  UNL     1      27.158   6.003  48.522  1.00  0.00    -0.394 OA
HETATM   24  C1  UNL     1      28.119   4.998  48.463  1.00  0.00     0.201 C 
ENDBRANCH  22  23
ENDBRANCH  21  22
ENDBRANCH  20  21
ENDBRANCH   1  20
BRANCH   4  25
HETATM   25  C7  UNL     1      27.452  -1.163  52.752  1.00  0.00     0.203 C 
BRANCH  25  26
HETATM   26  O4  UNL     1      28.309  -1.404  53.796  1.00  0.00    -0.393 OA
HETATM   27  C8  UNL     1      29.378  -0.557  53.909  1.00  0.00     0.201 C 
ENDBRANCH  25  26
ENDBRANCH   4  25
TORSDOF 7
ENDMDL
MODEL 4
REMARK VINA RESULT:      -6.9      2.528      4.855
REMARK  7 active torsions:
REMARK  status: ('A' for Active; 'I' for Inactive)
REMARK    1  A    between atoms: O1_2  and  C2_3 
REMARK    2  A    between atoms: C2_3  and  C3_4 
REMARK    3  A    between atoms: C3_4  and  O2_5 
REMARK    4  A    between atoms: O2_5  and  C4_6 
REMARK    5  A    between atoms: C6_9  and  C7_10 
REMARK    6  A    between atoms: C7_10  and  O4_11 
REMARK    7  A    between atoms: C12_18  and  N3_19 
ROOT
HETATM    1  C4  UNL     1      25.491   2.595  51.340  1.00  0.00     0.091 C 
HETATM    2  C5  UNL     1      26.694   2.427  51.873  1.00  0.00     0.172 C 
HETATM    3  O3  UNL     1      27.148   1.462  52.771  1.00  0.00    -0.349 OA
HETATM    4  C6  UNL     1      26.718   0.783  53.903  1.00  0.00     0.176 C 
HETATM    5  C9  UNL     1      25.378   0.208  53.888  1.00  0.00     0.040 C 
HETATM    6  C10 UNL     1      24.226   0.247  53.269  1.00  0.00     0.071 A 
HETATM    7  N1  UNL     1      23.379  -0.628  53.841  1.00  0.00    -0.241 NA
HETATM    8  C11 UNL     1      22.103  -0.782  53.381  1.00  0.00     0.236 A 
HETATM    9  N2  UNL     1      21.659  -0.043  52.321  1.00  0.00    -0.223 NA
HETATM   10  C12 UNL     1      22.497   0.857  51.716  1.00  0.00     0.144 A 
HETATM   11  C19 UNL     1      23.773   0.973  52.221  1.00  0.00     0.041 A 
HETATM   12  C20 UNL     1      24.210   1.914  51.436  1.00  0.00     0.056 C 
ENDROOT
BRANCH  10  13
HETATM   13  N3  UNL     1      21.852   1.451  50.623  1.00  0.00    -0.332 N 
HETATM   14  C13 UNL     1      21.889   1.164  49.202  1.00  0.00     0.158 A 
HETATM   15  C14 UNL     1      21.037   2.113  48.435  1.00  0.00    -0.007 A 
HETATM   16  C15 UNL     1      20.290   3.116  48.867  1.00  0.00    -0.001 A 
HETATM   17  C16 UNL     1      20.300   3.332  50.310  1.00  0.00     0.024 A 
HETATM   18  C17 UNL     1      21.037   2.541  51.108  1.00  0.00     0.009 A 
HETATM   19  C18 UNL     1      20.876   2.966  52.543  1.00  0.00     0.068 C 
ENDBRANCH  10  13
BRANCH   1  20
HETATM   20  O2  UNL     1      25.479   3.708  50.474  1.00  0.00    -0.347 OA
BRANCH  20  21
HETATM   21  C3  UNL     1      26.237   3.615  49.281  1.00  0.00     0.201 C 
BRANCH  21  22
HETATM   22  C2  UNL     1      26.913   4.938  48.961  1.00  0.00     0.193 C 
BRANCH  22  23
HETATM   23  O1  UNL     1      28.225   4.708  48.559  1.00  0.00    -0.394 OA
HETATM   24  C1  UNL     1      28.877   5.886  48.210  1.00  0.00     0.201 C 
ENDBRANCH  22  23
ENDBRANCH  21  22
ENDBRANCH  20  21
ENDBRANCH   1  20
BRANCH   4  25
HETATM   25  C7  UNL     1      27.685  -0.330  54.248  1.00  0.00     0.203 C 
BRANCH  25  26
HETATM   26  O4  UNL     1      28.889  -0.126  53.623  1.00  0.00    -0.393 OA
HETATM   27  C8  UNL     1      29.775  -1.169  53.665  1.00  0.00     0.201 C 
ENDBRANCH  25  26
ENDBRANCH   4  25
TORSDOF 7
ENDMDL
MODEL 5
REMARK VINA RESULT:      -6.9      1.831      6.021
REMARK  7 active torsions:
REMARK  status: ('A' for Active; 'I' for Inactive)
REMARK    1  A    between atoms: O1_2  and  C2_3 
REMARK    2  A    between atoms: C2_3  and  C3_4 
REMARK    3  A    between atoms: C3_4  and  O2_5 
REMARK    4  A    between atoms: O2_5  and  C4_6 
REMARK    5  A    between atoms: C6_9  and  C7_10 
REMARK    6  A    between atoms: C7_10  and  O4_11 
REMARK    7  A    between atoms: C12_18  and  N3_19 
ROOT
HETATM    1  C4  UNL     1      23.939   0.909  53.083  1.00  0.00     0.091 C 
HETATM    2  C5  UNL     1      23.610  -0.230  53.676  1.00  0.00     0.172 C 
HETATM    3  O3  UNL     1      22.355  -0.802  53.883  1.00  0.00    -0.349 OA
HETATM    4  C6  UNL     1      21.064  -0.427  54.226  1.00  0.00     0.176 C 
HETATM    5  C9  UNL     1      20.481   0.723  53.542  1.00  0.00     0.040 C 
HETATM    6  C10 UNL     1      20.774   1.772  52.818  1.00  0.00     0.071 A 
HETATM    7  N1  UNL     1      19.644   2.439  52.517  1.00  0.00    -0.241 NA
HETATM    8  C11 UNL     1      19.675   3.579  51.767  1.00  0.00     0.236 A 
HETATM    9  N2  UNL     1      20.864   4.068  51.304  1.00  0.00    -0.223 NA
HETATM   10  C12 UNL     1      22.031   3.412  51.593  1.00  0.00     0.144 A 
HETATM   11  C19 UNL     1      21.944   2.268  52.354  1.00  0.00     0.041 A 
HETATM   12  C20 UNL     1      23.212   1.988  52.434  1.00  0.00     0.056 C 
ENDROOT
BRANCH  10  13
HETATM   13  N3  UNL     1      23.109   4.056  50.968  1.00  0.00    -0.332 N 
HETATM   14  C13 UNL     1      24.008   5.100  51.420  1.00  0.00     0.158 A 
HETATM   15  C14 UNL     1      24.984   5.471  50.359  1.00  0.00    -0.007 A 
HETATM   16  C15 UNL     1      25.127   4.987  49.136  1.00  0.00    -0.001 A 
HETATM   17  C16 UNL     1      24.189   3.933  48.763  1.00  0.00     0.024 A 
HETATM   18  C17 UNL     1      23.256   3.516  49.637  1.00  0.00     0.009 A 
HETATM   19  C18 UNL     1      22.421   2.428  49.016  1.00  0.00     0.068 C 
ENDBRANCH  10  13
BRANCH   1  20
HETATM   20  O2  UNL     1      25.338   1.095  53.098  1.00  0.00    -0.347 OA
BRANCH  20  21
HETATM   21  C3  UNL     1      26.090   0.306  54.001  1.00  0.00     0.201 C 
BRANCH  21  22
HETATM   22  C2  UNL     1      27.267  -0.353  53.299  1.00  0.00     0.193 C 
BRANCH  22  23
HETATM   23  O1  UNL     1      28.179  -0.812  54.244  1.00  0.00    -0.394 OA
HETATM   24  C1  UNL     1      29.495  -0.614  53.836  1.00  0.00     0.201 C 
ENDBRANCH  22  23
ENDBRANCH  21  22
ENDBRANCH  20  21
ENDBRANCH   1  20
BRANCH   4  25
HETATM   25  C7  UNL     1      20.112  -1.590  54.046  1.00  0.00     0.203 C 
BRANCH  25  26
HETATM   26  O4  UNL     1      18.986  -1.186  53.375  1.00  0.00    -0.393 OA
HETATM   27  C8  UNL     1      17.881  -1.983  53.514  1.00  0.00     0.201 C 
ENDBRANCH  25  26
ENDBRANCH   4  25
TORSDOF 7
ENDMDL
MODEL 6
REMARK VINA RESULT:      -6.8      2.453      5.545
REMARK  7 active torsions:
REMARK  status: ('A' for Active; 'I' for Inactive)
REMARK    1  A    between atoms: O1_2  and  C2_3 
REMARK    2  A    between atoms: C2_3  and  C3_4 
REMARK    3  A    between atoms: C3_4  and  O2_5 
REMARK    4  A    between atoms: O2_5  and  C4_6 
REMARK    5  A    between atoms: C6_9  and  C7_10 
REMARK    6  A    between atoms: C7_10  and  O4_11 
REMARK    7  A    between atoms: C12_18  and  N3_19 
ROOT
HETATM    1  C4  UNL     1      25.926   1.408  52.121  1.00  0.00     0.091 C 
HETATM    2  C5  UNL     1      26.895   2.212  51.706  1.00  0.00     0.172 C 
HETATM    3  O3  UNL     1      26.854   3.266  50.793  1.00  0.00    -0.349 OA
HETATM    4  C6  UNL     1      26.271   3.591  49.577  1.00  0.00     0.176 C 
HETATM    5  C9  UNL     1      24.845   3.328  49.409  1.00  0.00     0.040 C 
HETATM    6  C10 UNL     1      23.837   2.659  49.906  1.00  0.00     0.071 A 
HETATM    7  N1  UNL     1      22.729   2.918  49.187  1.00  0.00    -0.241 NA
HETATM    8  C11 UNL     1      21.533   2.340  49.498  1.00  0.00     0.236 A 
HETATM    9  N2  UNL     1      21.437   1.480  50.556  1.00  0.00    -0.223 NA
HETATM   10  C12 UNL     1      22.546   1.196  51.308  1.00  0.00     0.144 A 
HETATM   11  C19 UNL     1      23.728   1.806  50.950  1.00  0.00     0.041 A 
HETATM   12  C20 UNL     1      24.506   1.265  51.842  1.00  0.00     0.056 C 
ENDROOT
BRANCH  10  13
HETATM   13  N3  UNL     1      22.201   0.346  52.368  1.00  0.00    -0.332 N 
HETATM   14  C13 UNL     1      22.625  -0.998  52.710  1.00  0.00     0.158 A 
HETATM   15  C14 UNL     1      21.937  -1.488  53.936  1.00  0.00    -0.007 A 
HETATM   16  C15 UNL     1      21.049  -0.881  54.705  1.00  0.00    -0.001 A 
HETATM   17  C16 UNL     1      20.682   0.472  54.297  1.00  0.00     0.024 A 
HETATM   18  C17 UNL     1      21.235   1.022  53.202  1.00  0.00     0.009 A 
HETATM   19  C18 UNL     1      20.697   2.413  52.999  1.00  0.00     0.068 C 
ENDBRANCH  10  13
BRANCH   1  20
HETATM   20  O2  UNL     1      26.417   0.476  53.058  1.00  0.00    -0.347 OA
BRANCH  20  21
HETATM   21  C3  UNL     1      26.900   0.982  54.290  1.00  0.00     0.201 C 
BRANCH  21  22
HETATM   22  C2  UNL     1      28.096   0.179  54.776  1.00  0.00     0.193 C 
BRANCH  22  23
HETATM   23  O1  UNL     1      29.163   0.350  53.898  1.00  0.00    -0.394 OA
HETATM   24  C1  UNL     1      29.804  -0.853  53.619  1.00  0.00     0.201 C 
ENDBRANCH  22  23
ENDBRANCH  21  22
ENDBRANCH  20  21
ENDBRANCH   1  20
BRANCH   4  25
HETATM   25  C7  UNL     1      26.502   5.053  49.256  1.00  0.00     0.203 C 
BRANCH  25  26
HETATM   26  O4  UNL     1      25.366   5.610  48.726  1.00  0.00    -0.393 OA
HETATM   27  C8  UNL     1      25.465   6.913  48.320  1.00  0.00     0.201 C 
ENDBRANCH  25  26
ENDBRANCH   4  25
TORSDOF 7
ENDMDL
MODEL 7
REMARK VINA RESULT:      -6.4      1.564      2.077
REMARK  7 active torsions:
REMARK  status: ('A' for Active; 'I' for Inactive)
REMARK    1  A    between atoms: O1_2  and  C2_3 
REMARK    2  A    between atoms: C2_3  and  C3_4 
REMARK    3  A    between atoms: C3_4  and  O2_5 
REMARK    4  A    between atoms: O2_5  and  C4_6 
REMARK    5  A    between atoms: C6_9  and  C7_10 
REMARK    6  A    between atoms: C7_10  and  O4_11 
REMARK    7  A    between atoms: C12_18  and  N3_19 
ROOT
HETATM    1  C4  UNL     1      22.961   0.730  52.324  1.00  0.00     0.091 C 
HETATM    2  C5  UNL     1      23.569  -0.142  53.116  1.00  0.00     0.172 C 
HETATM    3  O3  UNL     1      24.921  -0.269  53.437  1.00  0.00    -0.349 OA
HETATM    4  C6  UNL     1      26.166  -0.180  52.831  1.00  0.00     0.176 C 
HETATM    5  C9  UNL     1      26.428   0.970  51.972  1.00  0.00     0.040 C 
HETATM    6  C10 UNL     1      25.849   1.938  51.309  1.00  0.00     0.071 A 
HETATM    7  N1  UNL     1      26.787   2.683  50.694  1.00  0.00    -0.241 NA
HETATM    8  C11 UNL     1      26.444   3.762  49.931  1.00  0.00     0.236 A 
HETATM    9  N2  UNL     1      25.131   4.107  49.776  1.00  0.00    -0.223 NA
HETATM   10  C12 UNL     1      24.153   3.369  50.390  1.00  0.00     0.144 A 
HETATM   11  C19 UNL     1      24.554   2.291  51.146  1.00  0.00     0.041 A 
HETATM   12  C20 UNL     1      23.381   1.853  51.502  1.00  0.00     0.056 C 
ENDROOT
BRANCH  10  13
HETATM   13  N3  UNL     1      22.897   3.939  50.142  1.00  0.00    -0.332 N 
HETATM   14  C13 UNL     1      21.922   3.718  49.091  1.00  0.00     0.158 A 
HETATM   15  C14 UNL     1      20.738   4.606  49.255  1.00  0.00    -0.007 A 
HETATM   16  C15 UNL     1      20.481   5.507  50.188  1.00  0.00    -0.001 A 
HETATM   17  C16 UNL     1      21.508   5.662  51.214  1.00  0.00     0.024 A 
HETATM   18  C17 UNL     1      22.627   4.917  51.170  1.00  0.00     0.009 A 
HETATM   19  C18 UNL     1      23.519   5.262  52.332  1.00  0.00     0.068 C 
ENDBRANCH  10  13
BRANCH   1  20
HETATM   20  O2  UNL     1      21.571   0.489  52.289  1.00  0.00    -0.347 OA
BRANCH  20  21
HETATM   21  C3  UNL     1      20.812   1.189  51.321  1.00  0.00     0.201 C 
BRANCH  21  22
HETATM   22  C2  UNL     1      19.690   1.978  51.977  1.00  0.00     0.193 C 
BRANCH  22  23
HETATM   23  O1  UNL     1      18.461   1.507  51.525  1.00  0.00    -0.394 OA
HETATM   24  C1  UNL     1      18.523   1.073  50.204  1.00  0.00     0.201 C 
ENDBRANCH  22  23
ENDBRANCH  21  22
ENDBRANCH  20  21
ENDBRANCH   1  20
BRANCH   4  25
HETATM   25  C7  UNL     1      27.263  -0.226  53.873  1.00  0.00     0.203 C 
BRANCH  25  26
HETATM   26  O4  UNL     1      28.495  -0.218  53.269  1.00  0.00    -0.393 OA
HETATM   27  C8  UNL     1      29.480   0.477  53.917  1.00  0.00     0.201 C 
ENDBRANCH  25  26
ENDBRANCH   4  25
TORSDOF 7
ENDMDL
MODEL 8
REMARK VINA RESULT:      -6.4      4.050      6.697
REMARK  7 active torsions:
REMARK  status: ('A' for Active; 'I' for Inactive)
REMARK    1  A    between atoms: O1_2  and  C2_3 
REMARK    2  A    between atoms: C2_3  and  C3_4 
REMARK    3  A    between atoms: C3_4  and  O2_5 
REMARK    4  A    between atoms: O2_5  and  C4_6 
REMARK    5  A    between atoms: C6_9  and  C7_10 
REMARK    6  A    between atoms: C7_10  and  O4_11 
REMARK    7  A    between atoms: C12_18  and  N3_19 
ROOT
HETATM    1  C4  UNL     1      26.417   4.183  49.603  1.00  0.00     0.091 C 
HETATM    2  C5  UNL     1      27.385   4.971  49.154  1.00  0.00     0.172 C 
HETATM    3  O3  UNL     1      27.321   6.273  48.658  1.00  0.00    -0.349 OA
HETATM    4  C6  UNL     1      26.513   7.061  47.850  1.00  0.00     0.176 C 
HETATM    5  C9  UNL     1      25.073   7.028  48.083  1.00  0.00     0.040 C 
HETATM    6  C10 UNL     1      24.119   6.342  48.658  1.00  0.00     0.071 A 
HETATM    7  N1  UNL     1      22.938   6.953  48.446  1.00  0.00    -0.241 NA
HETATM    8  C11 UNL     1      21.776   6.436  48.943  1.00  0.00     0.236 A 
HETATM    9  N2  UNL     1      21.791   5.280  49.670  1.00  0.00    -0.223 NA
HETATM   10  C12 UNL     1      22.977   4.634  49.903  1.00  0.00     0.144 A 
HETATM   11  C19 UNL     1      24.119   5.198  49.379  1.00  0.00     0.041 A 
HETATM   12  C20 UNL     1      24.977   4.301  49.769  1.00  0.00     0.056 C 
ENDROOT
BRANCH  10  13
HETATM   13  N3  UNL     1      22.760   3.513  50.716  1.00  0.00    -0.332 N 
HETATM   14  C13 UNL     1      22.878   3.316  52.148  1.00  0.00     0.158 A 
HETATM   15  C14 UNL     1      22.560   1.912  52.529  1.00  0.00    -0.007 A 
HETATM   16  C15 UNL     1      22.198   0.892  51.770  1.00  0.00    -0.001 A 
HETATM   17  C16 UNL     1      22.094   1.176  50.342  1.00  0.00     0.024 A 
HETATM   18  C17 UNL     1      22.361   2.408  49.875  1.00  0.00     0.009 A 
HETATM   19  C18 UNL     1      22.180   2.442  48.381  1.00  0.00     0.068 C 
ENDBRANCH  10  13
BRANCH   1  20
HETATM   20  O2  UNL     1      26.936   2.937  50.010  1.00  0.00    -0.347 OA
BRANCH  20  21
HETATM   21  C3  UNL     1      26.120   2.130  50.840  1.00  0.00     0.201 C 
BRANCH  21  22
HETATM   22  C2  UNL     1      26.842   1.769  52.128  1.00  0.00     0.193 C 
BRANCH  22  23
HETATM   23  O1  UNL     1      27.973   2.567  52.270  1.00  0.00    -0.394 OA
HETATM   24  C1  UNL     1      28.578   2.396  53.511  1.00  0.00     0.201 C 
ENDBRANCH  22  23
ENDBRANCH  21  22
ENDBRANCH  20  21
ENDBRANCH   1  20
BRANCH   4  25
HETATM   25  C7  UNL     1      26.950   8.508  47.920  1.00  0.00     0.203 C 
BRANCH  25  26
HETATM   26  O4  UNL     1      27.891   8.676  48.904  1.00  0.00    -0.393 OA
HETATM   27  C8  UNL     1      27.477   9.336  50.029  1.00  0.00     0.201 C 
ENDBRANCH  25  26
ENDBRANCH   4  25
TORSDOF 7
ENDMDL
MODEL 9
REMARK VINA RESULT:      -6.2      2.408      6.811
REMARK  7 active torsions:
REMARK  status: ('A' for Active; 'I' for Inactive)
REMARK    1  A    between atoms: O1_2  and  C2_3 
REMARK    2  A    between atoms: C2_3  and  C3_4 
REMARK    3  A    between atoms: C3_4  and  O2_5 
REMARK    4  A    between atoms: O2_5  and  C4_6 
REMARK    5  A    between atoms: C6_9  and  C7_10 
REMARK    6  A    between atoms: C7_10  and  O4_11 
REMARK    7  A    between atoms: C12_18  and  N3_19 
ROOT
HETATM    1  C4  UNL     1      21.205   0.107  53.328  1.00  0.00     0.091 C 
HETATM    2  C5  UNL     1      20.637  -0.945  53.901  1.00  0.00     0.172 C 
HETATM    3  O3  UNL     1      19.395  -1.533  53.662  1.00  0.00    -0.349 OA
HETATM    4  C6  UNL     1      18.085  -1.166  53.388  1.00  0.00     0.176 C 
HETATM    5  C9  UNL     1      17.859  -0.155  52.360  1.00  0.00     0.040 C 
HETATM    6  C10 UNL     1      18.446   0.787  51.668  1.00  0.00     0.071 A 
HETATM    7  N1  UNL     1      17.553   1.354  50.835  1.00  0.00    -0.241 NA
HETATM    8  C11 UNL     1      17.913   2.371  49.999  1.00  0.00     0.236 A 
HETATM    9  N2  UNL     1      19.198   2.836  49.992  1.00  0.00    -0.223 NA
HETATM   10  C12 UNL     1      20.130   2.280  50.828  1.00  0.00     0.144 A 
HETATM   11  C19 UNL     1      19.713   1.258  51.651  1.00  0.00     0.041 A 
HETATM   12  C20 UNL     1      20.831   1.047  52.284  1.00  0.00     0.056 C 
ENDROOT
BRANCH  10  13
HETATM   13  N3  UNL     1      21.383   2.869  50.607  1.00  0.00    -0.332 N 
HETATM   14  C13 UNL     1      22.087   3.936  51.293  1.00  0.00     0.158 A 
HETATM   15  C14 UNL     1      23.397   4.222  50.647  1.00  0.00    -0.007 A 
HETATM   16  C15 UNL     1      23.964   3.652  49.597  1.00  0.00    -0.001 A 
HETATM   17  C16 UNL     1      23.194   2.582  48.970  1.00  0.00     0.024 A 
HETATM   18  C17 UNL     1      21.992   2.235  49.461  1.00  0.00     0.009 A 
HETATM   19  C18 UNL     1      21.409   1.113  48.645  1.00  0.00     0.068 C 
ENDBRANCH  10  13
BRANCH   1  20
HETATM   20  O2  UNL     1      22.479   0.352  53.884  1.00  0.00    -0.347 OA
BRANCH  20  21
HETATM   21  C3  UNL     1      23.302  -0.770  54.147  1.00  0.00     0.201 C 
BRANCH  21  22
HETATM   22  C2  UNL     1      24.745  -0.488  53.761  1.00  0.00     0.193 C 
BRANCH  22  23
HETATM   23  O1  UNL     1      25.579  -0.746  54.845  1.00  0.00    -0.394 OA
HETATM   24  C1  UNL     1      26.589   0.203  54.962  1.00  0.00     0.201 C 
ENDBRANCH  22  23
ENDBRANCH  21  22
ENDBRANCH  20  21
ENDBRANCH   1  20
BRANCH   4  25
HETATM   25  C7  UNL     1      17.265  -2.382  53.015  1.00  0.00     0.203 C 
BRANCH  25  26
HETATM   26  O4  UNL     1      17.528  -3.417  53.876  1.00  0.00    -0.393 OA
HETATM   27  C8  UNL     1      16.700  -4.503  53.787  1.00  0.00     0.201 C 
ENDBRANCH  25  26
ENDBRANCH   4  25
TORSDOF 7
ENDMDL
