MODEL 1
REMARK VINA RESULT:      -7.2      0.000      0.000
REMARK  3 active torsions:
REMARK  status: ('A' for Active; 'I' for Inactive)
REMARK    1  A    between atoms: O1_2  and  C2_3 
REMARK    2  A    between atoms: N3_10  and  C7_11 
REMARK    3  A    between atoms: C14_18  and  O2_19 
ROOT
HETATM    1  C2  UNL     1      26.407   1.529  53.877  1.00  0.00     0.102 A 
HETATM    2  C3  UNL     1      25.572   2.472  53.465  1.00  0.00     0.059 A 
HETATM    3  C4  UNL     1      24.226   2.330  52.860  1.00  0.00     0.220 A 
HETATM    4  N1  UNL     1      23.935   0.907  52.791  1.00  0.00    -0.323 N 
HETATM    5  C5  UNL     1      22.642   0.662  52.239  1.00  0.00     0.207 C 
HETATM    6  N2  UNL     1      22.084   1.568  51.536  1.00  0.00    -0.265 NA
HETATM    7  C6  UNL     1      22.634   2.866  51.221  1.00  0.00     0.277 C 
HETATM    8  N3  UNL     1      24.046   2.990  51.611  1.00  0.00    -0.337 N 
HETATM    9  C13 UNL     1      24.755  -0.182  53.197  1.00  0.00     0.134 A 
HETATM   10  C14 UNL     1      25.927   0.161  53.711  1.00  0.00     0.117 A 
ENDROOT
BRANCH   8  11
HETATM   11  C7  UNL     1      24.927   3.705  50.751  1.00  0.00     0.033 A 
HETATM   12  C8  UNL     1      24.622   5.034  50.538  1.00  0.00     0.029 A 
HETATM   13  C9  UNL     1      25.416   5.805  49.709  1.00  0.00     0.002 A 
HETATM   14  C10 UNL     1      26.534   5.285  49.068  1.00  0.00     0.000 A 
HETATM   15  C11 UNL     1      26.835   3.943  49.287  1.00  0.00     0.002 A 
HETATM   16  C12 UNL     1      26.025   3.230  50.110  1.00  0.00     0.029 A 
ENDBRANCH   8  11
BRANCH   1  17
HETATM   17  O1  UNL     1      27.641   1.832  54.423  1.00  0.00    -0.353 OA
HETATM   18  C1  UNL     1      28.602   2.413  53.537  1.00  0.00     0.210 C 
ENDBRANCH   1  17
BRANCH  10  19
HETATM   19  O2  UNL     1      26.767  -0.862  54.126  1.00  0.00    -0.352 OA
HETATM   20  C15 UNL     1      27.617  -1.406  53.120  1.00  0.00     0.210 C 
ENDBRANCH  10  19
TORSDOF 3
ENDMDL
MODEL 2
REMARK VINA RESULT:      -7.1      2.198      4.998
REMARK  3 active torsions:
REMARK  status: ('A' for Active; 'I' for Inactive)
REMARK    1  A    between atoms: O1_2  and  C2_3 
REMARK    2  A    between atoms: N3_10  and  C7_11 
REMARK    3  A    between atoms: C14_18  and  O2_19 
ROOT
HETATM    1  C2  UNL     1      26.137  -0.291  53.486  1.00  0.00     0.102 A 
HETATM    2  C3  UNL     1      25.095  -0.084  52.694  1.00  0.00     0.059 A 
HETATM    3  C4  UNL     1      24.390   1.184  52.388  1.00  0.00     0.220 A 
HETATM    4  N1  UNL     1      25.066   2.239  53.126  1.00  0.00    -0.323 N 
HETATM    5  C5  UNL     1      24.473   3.513  52.880  1.00  0.00     0.207 C 
HETATM    6  N2  UNL     1      23.280   3.569  52.431  1.00  0.00    -0.265 NA
HETATM    7  C6  UNL     1      22.426   2.443  52.132  1.00  0.00     0.277 C 
HETATM    8  N3  UNL     1      22.983   1.169  52.610  1.00  0.00    -0.337 N 
HETATM    9  C13 UNL     1      26.182   2.128  54.000  1.00  0.00     0.134 A 
HETATM   10  C14 UNL     1      26.662   0.902  54.143  1.00  0.00     0.117 A 
ENDROOT
BRANCH   8  11
HETATM   11  C7  UNL     1      22.094   0.203  53.160  1.00  0.00     0.033 A 
HETATM   12  C8  UNL     1      20.772   0.310  52.782  1.00  0.00     0.029 A 
HETATM   13  C9  UNL     1      19.833  -0.579  53.274  1.00  0.00     0.002 A 
HETATM   14  C10 UNL     1      20.176  -1.598  54.153  1.00  0.00     0.000 A 
HETATM   15  C11 UNL     1      21.512  -1.701  54.531  1.00  0.00     0.002 A 
HETATM   16  C12 UNL     1      22.394  -0.804  54.020  1.00  0.00     0.029 A 
ENDBRANCH   8  11
BRANCH   1  17
HETATM   17  O1  UNL     1      26.680  -1.550  53.668  1.00  0.00    -0.353 OA
HETATM   18  C1  UNL     1      27.127  -2.226  52.489  1.00  0.00     0.210 C 
ENDBRANCH   1  17
BRANCH  10  19
HETATM   19  O2  UNL     1      27.754   0.736  54.983  1.00  0.00    -0.352 OA
HETATM   20  C15 UNL     1      29.029   0.948  54.384  1.00  0.00     0.210 C 
ENDBRANCH  10  19
TORSDOF 3
ENDMDL
MODEL 3
REMARK VINA RESULT:      -7.0      2.427      5.477
REMARK  3 active torsions:
REMARK  status: ('A' for Active; 'I' for Inactive)
REMARK    1  A    between atoms: O1_2  and  C2_3 
REMARK    2  A    between atoms: N3_10  and  C7_11 
REMARK    3  A    between atoms: C14_18  and  O2_19 
ROOT
HETATM    1  C2  UNL     1      23.067  -0.076  53.263  1.00  0.00     0.102 A 
HETATM    2  C3  UNL     1      24.245   0.438  53.586  1.00  0.00     0.059 A 
HETATM    3  C4  UNL     1      25.046   1.460  52.871  1.00  0.00     0.220 A 
HETATM    4  N1  UNL     1      24.292   1.847  51.690  1.00  0.00    -0.323 N 
HETATM    5  C5  UNL     1      24.974   2.851  50.939  1.00  0.00     0.207 C 
HETATM    6  N2  UNL     1      26.230   3.005  51.100  1.00  0.00    -0.265 NA
HETATM    7  C6  UNL     1      27.075   2.246  51.992  1.00  0.00     0.277 C 
HETATM    8  N3  UNL     1      26.387   1.083  52.571  1.00  0.00    -0.337 N 
HETATM    9  C13 UNL     1      23.031   1.359  51.249  1.00  0.00     0.134 A 
HETATM   10  C14 UNL     1      22.481   0.442  52.031  1.00  0.00     0.117 A 
ENDROOT
BRANCH   8  11
HETATM   11  C7  UNL     1      27.119  -0.127  52.735  1.00  0.00     0.033 A 
HETATM   12  C8  UNL     1      28.375  -0.006  53.291  1.00  0.00     0.029 A 
HETATM   13  C9  UNL     1      29.163  -1.127  53.479  1.00  0.00     0.002 A 
HETATM   14  C10 UNL     1      28.731  -2.398  53.123  1.00  0.00     0.000 A 
HETATM   15  C11 UNL     1      27.462  -2.513  52.563  1.00  0.00     0.002 A 
HETATM   16  C12 UNL     1      26.728  -1.383  52.399  1.00  0.00     0.029 A 
ENDBRANCH   8  11
BRANCH   1  17
HETATM   17  O1  UNL     1      22.447  -1.035  54.044  1.00  0.00    -0.353 OA
HETATM   18  C1  UNL     1      23.041  -1.295  55.320  1.00  0.00     0.210 C 
ENDBRANCH   1  17
BRANCH  10  19
HETATM   19  O2  UNL     1      21.248  -0.068  51.649  1.00  0.00    -0.352 OA
HETATM   20  C15 UNL     1      20.216   0.897  51.462  1.00  0.00     0.210 C 
ENDBRANCH  10  19
TORSDOF 3
ENDMDL
MODEL 4
REMARK VINA RESULT:      -6.9      2.527      5.717
REMARK  3 active torsions:
REMARK  status: ('A' for Active; 'I' for Inactive)
REMARK    1  A    between atoms: O1_2  and  C2_3 
REMARK    2  A    between atoms: N3_10  and  C7_11 
REMARK    3  A    between atoms: C14_18  and  O2_19 
ROOT
HETATM    1  C2  UNL     1      24.513   3.502  52.103  1.00  0.00     0.102 A 
HETATM    2  C3  UNL     1      24.457   2.630  53.099  1.00  0.00     0.059 A 
HETATM    3  C4  UNL     1      25.261   1.404  53.314  1.00  0.00     0.220 A 
HETATM    4  N1  UNL     1      26.189   1.299  52.200  1.00  0.00    -0.323 N 
HETATM    5  C5  UNL     1      27.030   0.152  52.324  1.00  0.00     0.207 C 
HETATM    6  N2  UNL     1      26.665  -0.809  53.079  1.00  0.00    -0.265 NA
HETATM    7  C6  UNL     1      25.447  -0.873  53.852  1.00  0.00     0.277 C 
HETATM    8  N3  UNL     1      24.510   0.211  53.522  1.00  0.00    -0.337 N 
HETATM    9  C13 UNL     1      26.329   2.168  51.084  1.00  0.00     0.134 A 
HETATM   10  C14 UNL     1      25.509   3.208  51.078  1.00  0.00     0.117 A 
ENDROOT
BRANCH   8  11
HETATM   11  C7  UNL     1      23.118  -0.084  53.480  1.00  0.00     0.033 A 
HETATM   12  C8  UNL     1      22.621  -0.818  54.537  1.00  0.00     0.029 A 
HETATM   13  C9  UNL     1      21.281  -1.160  54.577  1.00  0.00     0.002 A 
HETATM   14  C10 UNL     1      20.396  -0.785  53.574  1.00  0.00     0.000 A 
HETATM   15  C11 UNL     1      20.905  -0.044  52.511  1.00  0.00     0.002 A 
HETATM   16  C12 UNL     1      22.226   0.266  52.519  1.00  0.00     0.029 A 
ENDBRANCH   8  11
BRANCH   1  17
HETATM   17  O1  UNL     1      23.681   4.606  52.048  1.00  0.00    -0.353 OA
HETATM   18  C1  UNL     1      22.290   4.366  52.276  1.00  0.00     0.210 C 
ENDBRANCH   1  17
BRANCH  10  19
HETATM   19  O2  UNL     1      25.604   4.092  50.012  1.00  0.00    -0.352 OA
HETATM   20  C15 UNL     1      26.835   4.059  49.294  1.00  0.00     0.210 C 
ENDBRANCH  10  19
TORSDOF 3
ENDMDL
MODEL 5
REMARK VINA RESULT:      -6.8      2.153      2.895
REMARK  3 active torsions:
REMARK  status: ('A' for Active; 'I' for Inactive)
REMARK    1  A    between atoms: O1_2  and  C2_3 
REMARK    2  A    between atoms: N3_10  and  C7_11 
REMARK    3  A    between atoms: C14_18  and  O2_19 
ROOT
HETATM    1  C2  UNL     1      25.834   0.880  52.711  1.00  0.00     0.102 A 
HETATM    2  C3  UNL     1      24.769   1.660  52.604  1.00  0.00     0.059 A 
HETATM    3  C4  UNL     1      23.382   1.417  53.068  1.00  0.00     0.220 A 
HETATM    4  N1  UNL     1      23.368   0.112  53.710  1.00  0.00    -0.323 N 
HETATM    5  C5  UNL     1      22.071  -0.209  54.214  1.00  0.00     0.207 C 
HETATM    6  N2  UNL     1      21.052   0.398  53.745  1.00  0.00    -0.265 NA
HETATM    7  C6  UNL     1      21.061   1.415  52.720  1.00  0.00     0.277 C 
HETATM    8  N3  UNL     1      22.373   1.553  52.071  1.00  0.00    -0.337 N 
HETATM    9  C13 UNL     1      24.444  -0.802  53.874  1.00  0.00     0.134 A 
HETATM   10  C14 UNL     1      25.604  -0.395  53.383  1.00  0.00     0.117 A 
ENDROOT
BRANCH   8  11
HETATM   11  C7  UNL     1      22.415   1.792  50.668  1.00  0.00     0.033 A 
HETATM   12  C8  UNL     1      21.616   0.982  49.889  1.00  0.00     0.029 A 
HETATM   13  C9  UNL     1      21.599   1.135  48.515  1.00  0.00     0.002 A 
HETATM   14  C10 UNL     1      22.372   2.094  47.872  1.00  0.00     0.000 A 
HETATM   15  C11 UNL     1      23.176   2.909  48.665  1.00  0.00     0.002 A 
HETATM   16  C12 UNL     1      23.156   2.719  50.009  1.00  0.00     0.029 A 
ENDBRANCH   8  11
BRANCH   1  17
HETATM   17  O1  UNL     1      27.071   1.257  52.218  1.00  0.00    -0.353 OA
HETATM   18  C1  UNL     1      27.871   2.079  53.073  1.00  0.00     0.210 C 
ENDBRANCH   1  17
BRANCH  10  19
HETATM   19  O2  UNL     1      26.691  -1.248  53.518  1.00  0.00    -0.352 OA
HETATM   20  C15 UNL     1      26.864  -2.194  52.467  1.00  0.00     0.210 C 
ENDBRANCH  10  19
TORSDOF 3
ENDMDL
MODEL 6
REMARK VINA RESULT:      -6.5      3.578      5.753
REMARK  3 active torsions:
REMARK  status: ('A' for Active; 'I' for Inactive)
REMARK    1  A    between atoms: O1_2  and  C2_3 
REMARK    2  A    between atoms: N3_10  and  C7_11 
REMARK    3  A    between atoms: C14_18  and  O2_19 
ROOT
HETATM    1  C2  UNL     1      21.801   2.034  50.750  1.00  0.00     0.102 A 
HETATM    2  C3  UNL     1      22.417   0.948  51.194  1.00  0.00     0.059 A 
HETATM    3  C4  UNL     1      22.202   0.202  52.457  1.00  0.00     0.220 A 
HETATM    4  N1  UNL     1      21.137   0.880  53.179  1.00  0.00    -0.323 N 
HETATM    5  C5  UNL     1      20.838   0.222  54.410  1.00  0.00     0.207 C 
HETATM    6  N2  UNL     1      21.705  -0.558  54.927  1.00  0.00    -0.265 NA
HETATM    7  C6  UNL     1      23.010  -0.863  54.386  1.00  0.00     0.277 C 
HETATM    8  N3  UNL     1      23.367   0.002  53.252  1.00  0.00    -0.337 N 
HETATM    9  C13 UNL     1      20.418   2.046  52.800  1.00  0.00     0.134 A 
HETATM   10  C14 UNL     1      20.766   2.564  51.632  1.00  0.00     0.117 A 
ENDROOT
BRANCH   8  11
HETATM   11  C7  UNL     1      24.714   0.449  53.137  1.00  0.00     0.033 A 
HETATM   12  C8  UNL     1      25.630  -0.487  52.704  1.00  0.00     0.029 A 
HETATM   13  C9  UNL     1      26.963  -0.146  52.571  1.00  0.00     0.002 A 
HETATM   14  C10 UNL     1      27.429   1.129  52.864  1.00  0.00     0.000 A 
HETATM   15  C11 UNL     1      26.500   2.069  53.301  1.00  0.00     0.002 A 
HETATM   16  C12 UNL     1      25.203   1.685  53.414  1.00  0.00     0.029 A 
ENDBRANCH   8  11
BRANCH   1  17
HETATM   17  O1  UNL     1      22.124   2.615  49.537  1.00  0.00    -0.353 OA
HETATM   18  C1  UNL     1      21.818   1.852  48.366  1.00  0.00     0.210 C 
ENDBRANCH   1  17
BRANCH  10  19
HETATM   19  O2  UNL     1      20.094   3.703  51.211  1.00  0.00    -0.352 OA
HETATM   20  C15 UNL     1      18.678   3.676  51.373  1.00  0.00     0.210 C 
ENDBRANCH  10  19
TORSDOF 3
ENDMDL
MODEL 7
REMARK VINA RESULT:      -6.2      2.384      4.496
REMARK  3 active torsions:
REMARK  status: ('A' for Active; 'I' for Inactive)
REMARK    1  A    between atoms: O1_2  and  C2_3 
REMARK    2  A    between atoms: N3_10  and  C7_11 
REMARK    3  A    between atoms: C14_18  and  O2_19 
ROOT
HETATM    1  C2  UNL     1      25.245   1.178  52.337  1.00  0.00     0.102 A 
HETATM    2  C3  UNL     1      24.050   1.441  52.844  1.00  0.00     0.059 A 
HETATM    3  C4  UNL     1      23.248   0.647  53.805  1.00  0.00     0.220 A 
HETATM    4  N1  UNL     1      24.024  -0.536  54.137  1.00  0.00    -0.323 N 
HETATM    5  C5  UNL     1      23.343  -1.363  55.080  1.00  0.00     0.207 C 
HETATM    6  N2  UNL     1      22.080  -1.242  55.217  1.00  0.00    -0.265 NA
HETATM    7  C6  UNL     1      21.227  -0.326  54.495  1.00  0.00     0.277 C 
HETATM    8  N3  UNL     1      21.923   0.338  53.384  1.00  0.00    -0.337 N 
HETATM    9  C13 UNL     1      25.305  -0.916  53.651  1.00  0.00     0.134 A 
HETATM   10  C14 UNL     1      25.852  -0.068  52.793  1.00  0.00     0.117 A 
ENDROOT
BRANCH   8  11
HETATM   11  C7  UNL     1      21.210   0.556  52.170  1.00  0.00     0.033 A 
HETATM   12  C8  UNL     1      19.834   0.562  52.267  1.00  0.00     0.029 A 
HETATM   13  C9  UNL     1      19.059   0.757  51.138  1.00  0.00     0.002 A 
HETATM   14  C10 UNL     1      19.622   0.951  49.883  1.00  0.00     0.000 A 
HETATM   15  C11 UNL     1      21.011   0.944  49.793  1.00  0.00     0.002 A 
HETATM   16  C12 UNL     1      21.727   0.749  50.930  1.00  0.00     0.029 A 
ENDBRANCH   8  11
BRANCH   1  17
HETATM   17  O1  UNL     1      25.864   2.031  51.439  1.00  0.00    -0.353 OA
HETATM   18  C1  UNL     1      25.002   2.856  50.651  1.00  0.00     0.210 C 
ENDBRANCH   1  17
BRANCH  10  19
HETATM   19  O2  UNL     1      27.105  -0.388  52.287  1.00  0.00    -0.352 OA
HETATM   20  C15 UNL     1      28.198  -0.179  53.177  1.00  0.00     0.210 C 
ENDBRANCH  10  19
TORSDOF 3
ENDMDL
MODEL 8
REMARK VINA RESULT:      -6.0      3.190      5.780
REMARK  3 active torsions:
REMARK  status: ('A' for Active; 'I' for Inactive)
REMARK    1  A    between atoms: O1_2  and  C2_3 
REMARK    2  A    between atoms: N3_10  and  C7_11 
REMARK    3  A    between atoms: C14_18  and  O2_19 
ROOT
HETATM    1  C2  UNL     1      20.497   0.220  52.795  1.00  0.00     0.102 A 
HETATM    2  C3  UNL     1      21.493   0.994  53.201  1.00  0.00     0.059 A 
HETATM    3  C4  UNL     1      22.087   2.179  52.537  1.00  0.00     0.220 A 
HETATM    4  N1  UNL     1      21.358   2.385  51.297  1.00  0.00    -0.323 N 
HETATM    5  C5  UNL     1      21.844   3.525  50.587  1.00  0.00     0.207 C 
HETATM    6  N2  UNL     1      23.013   3.967  50.843  1.00  0.00    -0.265 NA
HETATM    7  C6  UNL     1      23.939   3.422  51.808  1.00  0.00     0.277 C 
HETATM    8  N3  UNL     1      23.498   2.127  52.347  1.00  0.00    -0.337 N 
HETATM    9  C13 UNL     1      20.285   1.618  50.766  1.00  0.00     0.134 A 
HETATM   10  C14 UNL     1      19.905   0.594  51.514  1.00  0.00     0.117 A 
ENDROOT
BRANCH   8  11
HETATM   11  C7  UNL     1      24.477   1.121  52.583  1.00  0.00     0.033 A 
HETATM   12  C8  UNL     1      25.604   1.172  51.789  1.00  0.00     0.029 A 
HETATM   13  C9  UNL     1      26.605   0.229  51.940  1.00  0.00     0.002 A 
HETATM   14  C10 UNL     1      26.519  -0.790  52.880  1.00  0.00     0.000 A 
HETATM   15  C11 UNL     1      25.379  -0.835  53.678  1.00  0.00     0.002 A 
HETATM   16  C12 UNL     1      24.426   0.113  53.491  1.00  0.00     0.029 A 
ENDBRANCH   8  11
BRANCH   1  17
HETATM   17  O1  UNL     1      20.059  -0.861  53.539  1.00  0.00    -0.353 OA
HETATM   18  C1  UNL     1      21.056  -1.565  54.284  1.00  0.00     0.210 C 
ENDBRANCH   1  17
BRANCH  10  19
HETATM   19  O2  UNL     1      18.858  -0.188  51.045  1.00  0.00    -0.352 OA
HETATM   20  C15 UNL     1      17.852   0.507  50.315  1.00  0.00     0.210 C 
ENDBRANCH  10  19
TORSDOF 3
ENDMDL
MODEL 9
REMARK VINA RESULT:      -5.8      3.388      5.355
REMARK  3 active torsions:
REMARK  status: ('A' for Active; 'I' for Inactive)
REMARK    1  A    between atoms: O1_2  and  C2_3 
REMARK    2  A    between atoms: N3_10  and  C7_11 
REMARK    3  A    between atoms: C14_18  and  O2_19 
ROOT
HETATM    1  C2  UNL     1      22.044   3.958  49.568  1.00  0.00     0.102 A 
HETATM    2  C3  UNL     1      23.255   3.449  49.400  1.00  0.00     0.059 A 
HETATM    3  C4  UNL     1      24.176   2.873  50.410  1.00  0.00     0.220 A 
HETATM    4  N1  UNL     1      23.501   2.946  51.695  1.00  0.00    -0.323 N 
HETATM    5  C5  UNL     1      24.302   2.393  52.739  1.00  0.00     0.207 C 
HETATM    6  N2  UNL     1      25.561   2.284  52.567  1.00  0.00    -0.265 NA
HETATM    7  C6  UNL     1      26.299   2.674  51.388  1.00  0.00     0.277 C 
HETATM    8  N3  UNL     1      25.482   3.441  50.438  1.00  0.00    -0.337 N 
HETATM    9  C13 UNL     1      22.213   3.473  51.987  1.00  0.00     0.134 A 
HETATM   10  C14 UNL     1      21.551   3.945  50.942  1.00  0.00     0.117 A 
ENDROOT
BRANCH   8  11
HETATM   11  C7  UNL     1      26.085   4.531  49.749  1.00  0.00     0.033 A 
HETATM   12  C8  UNL     1      27.253   4.249  49.071  1.00  0.00     0.029 A 
HETATM   13  C9  UNL     1      27.916   5.248  48.381  1.00  0.00     0.002 A 
HETATM   14  C10 UNL     1      27.442   6.553  48.341  1.00  0.00     0.000 A 
HETATM   15  C11 UNL     1      26.263   6.831  49.028  1.00  0.00     0.002 A 
HETATM   16  C12 UNL     1      25.651   5.816  49.689  1.00  0.00     0.029 A 
ENDBRANCH   8  11
BRANCH   1  17
HETATM   17  O1  UNL     1      21.308   4.462  48.511  1.00  0.00    -0.353 OA
HETATM   18  C1  UNL     1      20.586   3.507  47.727  1.00  0.00     0.210 C 
ENDBRANCH   1  17
BRANCH  10  19
HETATM   19  O2  UNL     1      20.286   4.470  51.169  1.00  0.00    -0.352 OA
HETATM   20  C15 UNL     1      19.292   3.527  51.560  1.00  0.00     0.210 C 
ENDBRANCH  10  19
TORSDOF 3
ENDMDL
