MODEL 1
REMARK VINA RESULT:      -5.6      0.000      0.000
REMARK  7 active torsions:
REMARK  status: ('A' for Active; 'I' for Inactive)
REMARK    1  A    between atoms: C3_3  and  N1_4 
REMARK    2  A    between atoms: C5_6  and  O1_7 
REMARK    3  A    between atoms: C7_10  and  C8_11 
REMARK       I    between atoms: C8_11  and  N3_13 
REMARK    4  A    between atoms: N3_13  and  C9_14 
REMARK    5  A    between atoms: C10_15  and  C11_16 
REMARK    6  A    between atoms: C11_16  and  C12_17 
REMARK    7  A    between atoms: N4_18  and  C13_19 
ROOT
HETATM    1  C13 UNL     1      24.191  -1.046  55.119  1.00  0.00     0.070 C 
HETATM    2  C14 UNL     1      22.998  -1.265  55.158  1.00  0.00     0.131 C 
HETATM    3  F1  UNL     1      21.700  -1.507  55.207  1.00  0.00    -0.142 F 
ENDROOT
BRANCH   1   4
HETATM    4  N4  UNL     1      25.571  -0.776  55.082  1.00  0.00    -0.212 NA
HETATM    5  C12 UNL     1      26.138  -0.296  54.026  1.00  0.00     0.104 C 
BRANCH   5   6
HETATM    6  C11 UNL     1      25.840   0.145  52.631  1.00  0.00     0.076 C 
BRANCH   6   7
HETATM    7  C10 UNL     1      26.950   0.926  52.073  1.00  0.00    -0.004 C 
HETATM    8  C9  UNL     1      26.858   2.209  51.807  1.00  0.00     0.087 C 
BRANCH   8   9
HETATM    9  N3  UNL     1      25.589   2.780  52.103  1.00  0.00    -0.331 N 
HETATM   10  C8  UNL     1      25.121   3.562  51.017  1.00  0.00     0.291 C 
HETATM   11  O2  UNL     1      25.915   3.589  50.032  1.00  0.00    -0.264 OA
HETATM   12  H12 UNL     1      24.985   2.715  52.948  1.00  0.00     0.168 HD
BRANCH  10  13
HETATM   13  C7  UNL     1      23.861   4.295  50.964  1.00  0.00     0.197 C 
HETATM   14  N1  UNL     1      22.615   3.841  50.449  1.00  0.00    -0.334 N 
HETATM   15  C4  UNL     1      21.645   4.714  51.133  1.00  0.00     0.185 C 
HETATM   16  C5  UNL     1      22.443   5.960  51.233  1.00  0.00     0.264 C 
HETATM   17  N2  UNL     1      23.782   5.502  51.416  1.00  0.00    -0.234 NA
BRANCH  14  18
HETATM   18  C3  UNL     1      22.416   2.797  49.504  1.00  0.00     0.088 C 
HETATM   19  C2  UNL     1      22.236   1.540  49.869  1.00  0.00    -0.014 C 
HETATM   20  C1  UNL     1      22.245   1.229  51.322  1.00  0.00     0.037 C 
ENDBRANCH  14  18
BRANCH  16  21
HETATM   21  O1  UNL     1      22.268   6.889  50.248  1.00  0.00    -0.368 OA
HETATM   22  C6  UNL     1      21.073   7.551  50.258  1.00  0.00     0.204 C 
ENDBRANCH  16  21
ENDBRANCH  10  13
ENDBRANCH   8   9
ENDBRANCH   6   7
ENDBRANCH   5   6
ENDBRANCH   1   4
TORSDOF 7
ENDMDL
MODEL 2
REMARK VINA RESULT:      -5.6      2.918      3.659
REMARK  7 active torsions:
REMARK  status: ('A' for Active; 'I' for Inactive)
REMARK    1  A    between atoms: C3_3  and  N1_4 
REMARK    2  A    between atoms: C5_6  and  O1_7 
REMARK    3  A    between atoms: C7_10  and  C8_11 
REMARK       I    between atoms: C8_11  and  N3_13 
REMARK    4  A    between atoms: N3_13  and  C9_14 
REMARK    5  A    between atoms: C10_15  and  C11_16 
REMARK    6  A    between atoms: C11_16  and  C12_17 
REMARK    7  A    between atoms: N4_18  and  C13_19 
ROOT
HETATM    1  C13 UNL     1      29.204  -0.486  53.812  1.00  0.00     0.070 C 
HETATM    2  C14 UNL     1      29.119  -1.642  53.450  1.00  0.00     0.131 C 
HETATM    3  F1  UNL     1      29.018  -2.899  53.056  1.00  0.00    -0.142 F 
ENDROOT
BRANCH   1   4
HETATM    4  N4  UNL     1      29.304   0.858  54.213  1.00  0.00    -0.212 NA
HETATM    5  C12 UNL     1      28.353   1.703  53.994  1.00  0.00     0.104 C 
BRANCH   5   6
HETATM    6  C11 UNL     1      26.991   1.807  53.388  1.00  0.00     0.076 C 
BRANCH   6   7
HETATM    7  C10 UNL     1      27.071   2.136  51.960  1.00  0.00    -0.004 C 
HETATM    8  C9  UNL     1      26.027   2.505  51.253  1.00  0.00     0.087 C 
BRANCH   8   9
HETATM    9  N3  UNL     1      24.810   2.558  51.987  1.00  0.00    -0.331 N 
HETATM   10  C8  UNL     1      23.703   2.730  51.118  1.00  0.00     0.291 C 
HETATM   11  O2  UNL     1      24.024   2.799  49.896  1.00  0.00    -0.264 OA
HETATM   12  H12 UNL     1      24.618   2.494  53.008  1.00  0.00     0.168 HD
BRANCH  10  13
HETATM   13  C7  UNL     1      22.303   2.827  51.517  1.00  0.00     0.197 C 
HETATM   14  N1  UNL     1      21.441   1.769  51.920  1.00  0.00    -0.334 N 
HETATM   15  C4  UNL     1      20.408   2.473  52.697  1.00  0.00     0.185 C 
HETATM   16  C5  UNL     1      20.355   3.757  51.956  1.00  0.00     0.264 C 
HETATM   17  N2  UNL     1      21.700   3.968  51.532  1.00  0.00    -0.234 NA
BRANCH  14  18
HETATM   18  C3  UNL     1      21.591   0.388  51.614  1.00  0.00     0.088 C 
HETATM   19  C2  UNL     1      22.123  -0.470  52.467  1.00  0.00    -0.014 C 
HETATM   20  C1  UNL     1      22.573   0.048  53.785  1.00  0.00     0.037 C 
ENDBRANCH  14  18
BRANCH  16  21
HETATM   21  O1  UNL     1      19.405   3.872  50.983  1.00  0.00    -0.368 OA
HETATM   22  C6  UNL     1      18.170   3.377  51.293  1.00  0.00     0.204 C 
ENDBRANCH  16  21
ENDBRANCH  10  13
ENDBRANCH   8   9
ENDBRANCH   6   7
ENDBRANCH   5   6
ENDBRANCH   1   4
TORSDOF 7
ENDMDL
MODEL 3
REMARK VINA RESULT:      -5.6      4.883      7.888
REMARK  7 active torsions:
REMARK  status: ('A' for Active; 'I' for Inactive)
REMARK    1  A    between atoms: C3_3  and  N1_4 
REMARK    2  A    between atoms: C5_6  and  O1_7 
REMARK    3  A    between atoms: C7_10  and  C8_11 
REMARK       I    between atoms: C8_11  and  N3_13 
REMARK    4  A    between atoms: N3_13  and  C9_14 
REMARK    5  A    between atoms: C10_15  and  C11_16 
REMARK    6  A    between atoms: C11_16  and  C12_17 
REMARK    7  A    between atoms: N4_18  and  C13_19 
ROOT
HETATM    1  C13 UNL     1      28.735   9.588  49.305  1.00  0.00     0.070 C 
HETATM    2  C14 UNL     1      29.888   9.214  49.234  1.00  0.00     0.131 C 
HETATM    3  F1  UNL     1      31.144   8.815  49.152  1.00  0.00    -0.142 F 
ENDROOT
BRANCH   1   4
HETATM    4  N4  UNL     1      27.403  10.028  49.403  1.00  0.00    -0.212 NA
HETATM    5  C12 UNL     1      26.451   9.232  49.760  1.00  0.00     0.104 C 
BRANCH   5   6
HETATM    6  C11 UNL     1      26.194   7.817  50.166  1.00  0.00     0.076 C 
BRANCH   6   7
HETATM    7  C10 UNL     1      25.617   7.045  49.060  1.00  0.00    -0.004 C 
HETATM    8  C9  UNL     1      25.292   5.777  49.167  1.00  0.00     0.087 C 
BRANCH   8   9
HETATM    9  N3  UNL     1      25.548   5.211  50.447  1.00  0.00    -0.331 N 
HETATM   10  C8  UNL     1      25.740   3.810  50.352  1.00  0.00     0.291 C 
HETATM   11  O2  UNL     1      25.644   3.364  49.172  1.00  0.00    -0.264 OA
HETATM   12  H12 UNL     1      25.612   5.646  51.391  1.00  0.00     0.168 HD
BRANCH  10  13
HETATM   13  C7  UNL     1      26.022   2.903  51.459  1.00  0.00     0.197 C 
HETATM   14  N1  UNL     1      25.099   2.379  52.407  1.00  0.00    -0.334 N 
HETATM   15  C4  UNL     1      25.784   1.168  52.889  1.00  0.00     0.185 C 
HETATM   16  C5  UNL     1      27.195   1.619  52.812  1.00  0.00     0.264 C 
HETATM   17  N2  UNL     1      27.222   2.481  51.675  1.00  0.00    -0.234 NA
BRANCH  14  18
HETATM   18  C3  UNL     1      23.839   2.934  52.763  1.00  0.00     0.088 C 
HETATM   19  C2  UNL     1      22.719   2.595  52.148  1.00  0.00    -0.014 C 
HETATM   20  C1  UNL     1      22.803   1.596  51.051  1.00  0.00     0.037 C 
ENDBRANCH  14  18
BRANCH  16  21
HETATM   21  O1  UNL     1      27.745   2.131  53.951  1.00  0.00    -0.368 OA
HETATM   22  C6  UNL     1      29.086   2.385  53.906  1.00  0.00     0.204 C 
ENDBRANCH  16  21
ENDBRANCH  10  13
ENDBRANCH   8   9
ENDBRANCH   6   7
ENDBRANCH   5   6
ENDBRANCH   1   4
TORSDOF 7
ENDMDL
MODEL 4
REMARK VINA RESULT:      -5.4      2.071      2.494
REMARK  7 active torsions:
REMARK  status: ('A' for Active; 'I' for Inactive)
REMARK    1  A    between atoms: C3_3  and  N1_4 
REMARK    2  A    between atoms: C5_6  and  O1_7 
REMARK    3  A    between atoms: C7_10  and  C8_11 
REMARK       I    between atoms: C8_11  and  N3_13 
REMARK    4  A    between atoms: N3_13  and  C9_14 
REMARK    5  A    between atoms: C10_15  and  C11_16 
REMARK    6  A    between atoms: C11_16  and  C12_17 
REMARK    7  A    between atoms: N4_18  and  C13_19 
ROOT
HETATM    1  C13 UNL     1      21.467  -1.367  54.680  1.00  0.00     0.070 C 
HETATM    2  C14 UNL     1      20.415  -1.361  54.074  1.00  0.00     0.131 C 
HETATM    3  F1  UNL     1      19.267  -1.359  53.421  1.00  0.00    -0.142 F 
ENDROOT
BRANCH   1   4
HETATM    4  N4  UNL     1      22.681  -1.357  55.389  1.00  0.00    -0.212 NA
HETATM    5  C12 UNL     1      23.795  -1.036  54.820  1.00  0.00     0.104 C 
BRANCH   5   6
HETATM    6  C11 UNL     1      24.362  -0.611  53.505  1.00  0.00     0.076 C 
BRANCH   6   7
HETATM    7  C10 UNL     1      25.402   0.409  53.682  1.00  0.00    -0.004 C 
HETATM    8  C9  UNL     1      25.400   1.552  53.035  1.00  0.00     0.087 C 
BRANCH   8   9
HETATM    9  N3  UNL     1      24.304   1.720  52.145  1.00  0.00    -0.331 N 
HETATM   10  C8  UNL     1      23.618   2.933  52.410  1.00  0.00     0.291 C 
HETATM   11  O2  UNL     1      24.115   3.597  53.366  1.00  0.00    -0.264 OA
HETATM   12  H12 UNL     1      23.948   1.122  51.370  1.00  0.00     0.168 HD
BRANCH  10  13
HETATM   13  C7  UNL     1      22.448   3.433  51.698  1.00  0.00     0.197 C 
HETATM   14  N1  UNL     1      21.156   2.841  51.630  1.00  0.00    -0.334 N 
HETATM   15  C4  UNL     1      20.294   3.985  51.287  1.00  0.00     0.185 C 
HETATM   16  C5  UNL     1      21.227   4.769  50.441  1.00  0.00     0.264 C 
HETATM   17  N2  UNL     1      22.507   4.533  51.026  1.00  0.00    -0.234 NA
BRANCH  14  18
HETATM   18  C3  UNL     1      20.836   1.472  51.847  1.00  0.00     0.088 C 
HETATM   19  C2  UNL     1      20.961   0.559  50.900  1.00  0.00    -0.014 C 
HETATM   20  C1  UNL     1      21.456   1.000  49.570  1.00  0.00     0.037 C 
ENDBRANCH  14  18
BRANCH  16  21
HETATM   21  O1  UNL     1      21.151   4.575  49.092  1.00  0.00    -0.368 OA
HETATM   22  C6  UNL     1      19.901   4.342  48.592  1.00  0.00     0.204 C 
ENDBRANCH  16  21
ENDBRANCH  10  13
ENDBRANCH   8   9
ENDBRANCH   6   7
ENDBRANCH   5   6
ENDBRANCH   1   4
TORSDOF 7
ENDMDL
MODEL 5
REMARK VINA RESULT:      -5.4      3.183      6.605
REMARK  7 active torsions:
REMARK  status: ('A' for Active; 'I' for Inactive)
REMARK    1  A    between atoms: C3_3  and  N1_4 
REMARK    2  A    between atoms: C5_6  and  O1_7 
REMARK    3  A    between atoms: C7_10  and  C8_11 
REMARK       I    between atoms: C8_11  and  N3_13 
REMARK    4  A    between atoms: N3_13  and  C9_14 
REMARK    5  A    between atoms: C10_15  and  C11_16 
REMARK    6  A    between atoms: C11_16  and  C12_17 
REMARK    7  A    between atoms: N4_18  and  C13_19 
ROOT
HETATM    1  C13 UNL     1      22.227   4.552  47.611  1.00  0.00     0.070 C 
HETATM    2  C14 UNL     1      22.286   3.351  47.441  1.00  0.00     0.131 C 
HETATM    3  F1  UNL     1      22.351   2.043  47.266  1.00  0.00    -0.142 F 
ENDROOT
BRANCH   1   4
HETATM    4  N4  UNL     1      22.141   5.941  47.807  1.00  0.00    -0.212 NA
HETATM    5  C12 UNL     1      22.964   6.568  48.580  1.00  0.00     0.104 C 
BRANCH   5   6
HETATM    6  C11 UNL     1      24.143   6.342  49.469  1.00  0.00     0.076 C 
BRANCH   6   7
HETATM    7  C10 UNL     1      25.350   6.053  48.686  1.00  0.00    -0.004 C 
HETATM    8  C9  UNL     1      26.303   5.256  49.112  1.00  0.00     0.087 C 
BRANCH   8   9
HETATM    9  N3  UNL     1      26.070   4.696  50.399  1.00  0.00    -0.331 N 
HETATM   10  C8  UNL     1      26.476   3.339  50.441  1.00  0.00     0.291 C 
HETATM   11  O2  UNL     1      26.951   2.918  49.346  1.00  0.00    -0.264 OA
HETATM   12  H12 UNL     1      25.669   5.109  51.267  1.00  0.00     0.168 HD
BRANCH  10  13
HETATM   13  C7  UNL     1      26.387   2.449  51.593  1.00  0.00     0.197 C 
HETATM   14  N1  UNL     1      25.256   2.218  52.425  1.00  0.00    -0.334 N 
HETATM   15  C4  UNL     1      25.553   0.902  53.016  1.00  0.00     0.185 C 
HETATM   16  C5  UNL     1      27.031   0.989  53.113  1.00  0.00     0.264 C 
HETATM   17  N2  UNL     1      27.409   1.757  51.971  1.00  0.00    -0.234 NA
BRANCH  14  18
HETATM   18  C3  UNL     1      24.141   3.083  52.602  1.00  0.00     0.088 C 
HETATM   19  C2  UNL     1      23.054   2.997  51.856  1.00  0.00    -0.014 C 
HETATM   20  C1  UNL     1      23.016   1.951  50.801  1.00  0.00     0.037 C 
ENDBRANCH  14  18
BRANCH  16  21
HETATM   21  O1  UNL     1      27.549   1.409  54.303  1.00  0.00    -0.368 OA
HETATM   22  C6  UNL     1      28.807   0.964  54.597  1.00  0.00     0.204 C 
ENDBRANCH  16  21
ENDBRANCH  10  13
ENDBRANCH   8   9
ENDBRANCH   6   7
ENDBRANCH   5   6
ENDBRANCH   1   4
TORSDOF 7
ENDMDL
MODEL 6
REMARK VINA RESULT:      -5.3      2.863      3.526
REMARK  7 active torsions:
REMARK  status: ('A' for Active; 'I' for Inactive)
REMARK    1  A    between atoms: C3_3  and  N1_4 
REMARK    2  A    between atoms: C5_6  and  O1_7 
REMARK    3  A    between atoms: C7_10  and  C8_11 
REMARK       I    between atoms: C8_11  and  N3_13 
REMARK    4  A    between atoms: N3_13  and  C9_14 
REMARK    5  A    between atoms: C10_15  and  C11_16 
REMARK    6  A    between atoms: C11_16  and  C12_17 
REMARK    7  A    between atoms: N4_18  and  C13_19 
ROOT
HETATM    1  C13 UNL     1      22.783  -0.522  54.223  1.00  0.00     0.070 C 
HETATM    2  C14 UNL     1      21.584  -0.357  54.328  1.00  0.00     0.131 C 
HETATM    3  F1  UNL     1      20.282  -0.172  54.448  1.00  0.00    -0.142 F 
ENDROOT
BRANCH   1   4
HETATM    4  N4  UNL     1      24.171  -0.700  54.089  1.00  0.00    -0.212 NA
HETATM    5  C12 UNL     1      24.854  -0.053  53.205  1.00  0.00     0.104 C 
BRANCH   5   6
HETATM    6  C11 UNL     1      24.706   0.958  52.115  1.00  0.00     0.076 C 
BRANCH   6   7
HETATM    7  C10 UNL     1      24.773   2.324  52.647  1.00  0.00    -0.004 C 
HETATM    8  C9  UNL     1      23.723   3.110  52.733  1.00  0.00     0.087 C 
BRANCH   8   9
HETATM    9  N3  UNL     1      22.513   2.526  52.266  1.00  0.00    -0.331 N 
HETATM   10  C8  UNL     1      21.563   3.526  51.939  1.00  0.00     0.291 C 
HETATM   11  O2  UNL     1      21.982   4.705  52.128  1.00  0.00    -0.264 OA
HETATM   12  H12 UNL     1      22.234   1.531  52.135  1.00  0.00     0.168 HD
BRANCH  10  13
HETATM   13  C7  UNL     1      20.215   3.298  51.430  1.00  0.00     0.197 C 
HETATM   14  N1  UNL     1      19.830   3.023  50.088  1.00  0.00    -0.334 N 
HETATM   15  C4  UNL     1      18.524   2.363  50.256  1.00  0.00     0.185 C 
HETATM   16  C5  UNL     1      18.022   3.080  51.454  1.00  0.00     0.264 C 
HETATM   17  N2  UNL     1      19.197   3.334  52.222  1.00  0.00    -0.234 NA
BRANCH  14  18
HETATM   18  C3  UNL     1      20.566   3.334  48.912  1.00  0.00     0.088 C 
HETATM   19  C2  UNL     1      21.355   2.455  48.319  1.00  0.00    -0.014 C 
HETATM   20  C1  UNL     1      21.459   1.099  48.918  1.00  0.00     0.037 C 
ENDBRANCH  14  18
BRANCH  16  21
HETATM   21  O1  UNL     1      17.215   4.159  51.237  1.00  0.00    -0.368 OA
HETATM   22  C6  UNL     1      16.155   4.292  52.088  1.00  0.00     0.204 C 
ENDBRANCH  16  21
ENDBRANCH  10  13
ENDBRANCH   8   9
ENDBRANCH   6   7
ENDBRANCH   5   6
ENDBRANCH   1   4
TORSDOF 7
ENDMDL
MODEL 7
REMARK VINA RESULT:      -5.1      5.558      8.243
REMARK  7 active torsions:
REMARK  status: ('A' for Active; 'I' for Inactive)
REMARK    1  A    between atoms: C3_3  and  N1_4 
REMARK    2  A    between atoms: C5_6  and  O1_7 
REMARK    3  A    between atoms: C7_10  and  C8_11 
REMARK       I    between atoms: C8_11  and  N3_13 
REMARK    4  A    between atoms: N3_13  and  C9_14 
REMARK    5  A    between atoms: C10_15  and  C11_16 
REMARK    6  A    between atoms: C11_16  and  C12_17 
REMARK    7  A    between atoms: N4_18  and  C13_19 
ROOT
HETATM    1  C13 UNL     1      30.774   8.282  47.307  1.00  0.00     0.070 C 
HETATM    2  C14 UNL     1      31.498   8.022  46.368  1.00  0.00     0.131 C 
HETATM    3  F1  UNL     1      32.293   7.741  45.351  1.00  0.00    -0.142 F 
ENDROOT
BRANCH   1   4
HETATM    4  N4  UNL     1      29.935   8.565  48.400  1.00  0.00    -0.212 NA
HETATM    5  C12 UNL     1      28.927   7.814  48.692  1.00  0.00     0.104 C 
BRANCH   5   6
HETATM    6  C11 UNL     1      28.213   6.580  48.244  1.00  0.00     0.076 C 
BRANCH   6   7
HETATM    7  C10 UNL     1      26.775   6.829  48.085  1.00  0.00    -0.004 C 
HETATM    8  C9  UNL     1      25.869   6.317  48.886  1.00  0.00     0.087 C 
BRANCH   8   9
HETATM    9  N3  UNL     1      26.396   5.498  49.922  1.00  0.00    -0.331 N 
HETATM   10  C8  UNL     1      25.643   4.304  50.056  1.00  0.00     0.291 C 
HETATM   11  O2  UNL     1      24.678   4.220  49.242  1.00  0.00    -0.264 OA
HETATM   12  H12 UNL     1      27.206   5.634  50.562  1.00  0.00     0.168 HD
BRANCH  10  13
HETATM   13  C7  UNL     1      25.893   3.232  51.013  1.00  0.00     0.197 C 
HETATM   14  N1  UNL     1      25.017   2.755  52.029  1.00  0.00    -0.334 N 
HETATM   15  C4  UNL     1      25.526   1.397  52.281  1.00  0.00     0.185 C 
HETATM   16  C5  UNL     1      26.975   1.613  52.045  1.00  0.00     0.264 C 
HETATM   17  N2  UNL     1      27.014   2.592  51.008  1.00  0.00    -0.234 NA
BRANCH  14  18
HETATM   18  C3  UNL     1      23.935   3.464  52.618  1.00  0.00     0.088 C 
HETATM   19  C2  UNL     1      22.683   3.289  52.232  1.00  0.00    -0.014 C 
HETATM   20  C1  UNL     1      22.421   2.312  51.144  1.00  0.00     0.037 C 
ENDBRANCH  14  18
BRANCH  16  21
HETATM   21  O1  UNL     1      27.747   1.881  53.137  1.00  0.00    -0.368 OA
HETATM   22  C6  UNL     1      27.790   0.905  54.092  1.00  0.00     0.204 C 
ENDBRANCH  16  21
ENDBRANCH  10  13
ENDBRANCH   8   9
ENDBRANCH   6   7
ENDBRANCH   5   6
ENDBRANCH   1   4
TORSDOF 7
ENDMDL
MODEL 8
REMARK VINA RESULT:      -5.1      3.972      7.167
REMARK  7 active torsions:
REMARK  status: ('A' for Active; 'I' for Inactive)
REMARK    1  A    between atoms: C3_3  and  N1_4 
REMARK    2  A    between atoms: C5_6  and  O1_7 
REMARK    3  A    between atoms: C7_10  and  C8_11 
REMARK       I    between atoms: C8_11  and  N3_13 
REMARK    4  A    between atoms: N3_13  and  C9_14 
REMARK    5  A    between atoms: C10_15  and  C11_16 
REMARK    6  A    between atoms: C11_16  and  C12_17 
REMARK    7  A    between atoms: N4_18  and  C13_19 
ROOT
HETATM    1  C13 UNL     1      27.730   6.639  48.044  1.00  0.00     0.070 C 
HETATM    2  C14 UNL     1      28.716   5.934  48.120  1.00  0.00     0.131 C 
HETATM    3  F1  UNL     1      29.785   5.162  48.198  1.00  0.00    -0.142 F 
ENDROOT
BRANCH   1   4
HETATM    4  N4  UNL     1      26.596   7.464  47.941  1.00  0.00    -0.212 NA
HETATM    5  C12 UNL     1      25.800   7.648  48.942  1.00  0.00     0.104 C 
BRANCH   5   6
HETATM    6  C11 UNL     1      25.602   7.260  50.371  1.00  0.00     0.076 C 
BRANCH   6   7
HETATM    7  C10 UNL     1      24.175   7.207  50.711  1.00  0.00    -0.004 C 
HETATM    8  C9  UNL     1      23.591   6.126  51.173  1.00  0.00     0.087 C 
BRANCH   8   9
HETATM    9  N3  UNL     1      24.457   5.006  51.316  1.00  0.00    -0.331 N 
HETATM   10  C8  UNL     1      23.930   4.075  52.247  1.00  0.00     0.291 C 
HETATM   11  O2  UNL     1      22.823   4.429  52.747  1.00  0.00    -0.264 OA
HETATM   12  H12 UNL     1      25.368   4.778  50.866  1.00  0.00     0.168 HD
BRANCH  10  13
HETATM   13  C7  UNL     1      24.545   2.814  52.643  1.00  0.00     0.197 C 
HETATM   14  N1  UNL     1      23.918   1.542  52.759  1.00  0.00    -0.334 N 
HETATM   15  C4  UNL     1      25.052   0.610  52.638  1.00  0.00     0.185 C 
HETATM   16  C5  UNL     1      26.117   1.410  53.289  1.00  0.00     0.264 C 
HETATM   17  N2  UNL     1      25.800   2.758  52.941  1.00  0.00    -0.234 NA
BRANCH  14  18
HETATM   18  C3  UNL     1      22.531   1.293  52.948  1.00  0.00     0.088 C 
HETATM   19  C2  UNL     1      21.700   1.122  51.934  1.00  0.00    -0.014 C 
HETATM   20  C1  UNL     1      22.257   1.195  50.559  1.00  0.00     0.037 C 
ENDBRANCH  14  18
BRANCH  16  21
HETATM   21  O1  UNL     1      26.341   1.181  54.615  1.00  0.00    -0.368 OA
HETATM   22  C6  UNL     1      26.182  -0.109  55.034  1.00  0.00     0.204 C 
ENDBRANCH  16  21
ENDBRANCH  10  13
ENDBRANCH   8   9
ENDBRANCH   6   7
ENDBRANCH   5   6
ENDBRANCH   1   4
TORSDOF 7
ENDMDL
MODEL 9
REMARK VINA RESULT:      -4.9      2.106      2.486
REMARK  7 active torsions:
REMARK  status: ('A' for Active; 'I' for Inactive)
REMARK    1  A    between atoms: C3_3  and  N1_4 
REMARK    2  A    between atoms: C5_6  and  O1_7 
REMARK    3  A    between atoms: C7_10  and  C8_11 
REMARK       I    between atoms: C8_11  and  N3_13 
REMARK    4  A    between atoms: N3_13  and  C9_14 
REMARK    5  A    between atoms: C10_15  and  C11_16 
REMARK    6  A    between atoms: C11_16  and  C12_17 
REMARK    7  A    between atoms: N4_18  and  C13_19 
ROOT
HETATM    1  C13 UNL     1      23.004  -0.412  53.828  1.00  0.00     0.070 C 
HETATM    2  C14 UNL     1      21.873  -0.157  53.468  1.00  0.00     0.131 C 
HETATM    3  F1  UNL     1      20.644   0.117  53.069  1.00  0.00    -0.142 F 
ENDROOT
BRANCH   1   4
HETATM    4  N4  UNL     1      24.308  -0.723  54.252  1.00  0.00    -0.212 NA
HETATM    5  C12 UNL     1      25.310   0.045  53.979  1.00  0.00     0.104 C 
BRANCH   5   6
HETATM    6  C11 UNL     1      25.656   1.320  53.283  1.00  0.00     0.076 C 
BRANCH   6   7
HETATM    7  C10 UNL     1      26.574   1.080  52.163  1.00  0.00    -0.004 C 
HETATM    8  C9  UNL     1      26.743   1.938  51.182  1.00  0.00     0.087 C 
BRANCH   8   9
HETATM    9  N3  UNL     1      25.962   3.121  51.295  1.00  0.00    -0.331 N 
HETATM   10  C8  UNL     1      26.149   3.960  50.167  1.00  0.00     0.291 C 
HETATM   11  O2  UNL     1      26.956   3.490  49.314  1.00  0.00    -0.264 OA
HETATM   12  H12 UNL     1      25.310   3.447  52.039  1.00  0.00     0.168 HD
BRANCH  10  13
HETATM   13  C7  UNL     1      25.510   5.252  49.941  1.00  0.00     0.197 C 
HETATM   14  N1  UNL     1      24.149   5.598  50.167  1.00  0.00    -0.334 N 
HETATM   15  C4  UNL     1      24.206   7.063  50.304  1.00  0.00     0.185 C 
HETATM   16  C5  UNL     1      25.311   7.369  49.364  1.00  0.00     0.264 C 
HETATM   17  N2  UNL     1      26.188   6.250  49.483  1.00  0.00    -0.234 NA
BRANCH  14  18
HETATM   18  C3  UNL     1      23.045   4.703  50.231  1.00  0.00     0.088 C 
HETATM   19  C2  UNL     1      22.542   4.283  51.379  1.00  0.00    -0.014 C 
HETATM   20  C1  UNL     1      23.167   4.777  52.634  1.00  0.00     0.037 C 
ENDBRANCH  14  18
BRANCH  16  21
HETATM   21  O1  UNL     1      24.963   7.711  48.089  1.00  0.00    -0.368 OA
HETATM   22  C6  UNL     1      23.818   8.444  47.959  1.00  0.00     0.204 C 
ENDBRANCH  16  21
ENDBRANCH  10  13
ENDBRANCH   8   9
ENDBRANCH   6   7
ENDBRANCH   5   6
ENDBRANCH   1   4
TORSDOF 7
ENDMDL
