MODEL 1
REMARK VINA RESULT:      -8.8      0.000      0.000
REMARK  3 active torsions:
REMARK  status: ('A' for Active; 'I' for Inactive)
REMARK    1  A    between atoms: O1_1  and  C1_2 
REMARK    2  A    between atoms: C3_5  and  C4_6 
REMARK    3  A    between atoms: C11_17  and  C12_18 
ROOT
HETATM    1  C1  UNL     1      28.976   1.779  53.864  1.00  0.00     0.307 C 
HETATM    2  N1  UNL     1      27.687   2.472  53.513  1.00  0.00    -0.247 NA
HETATM    3  C2  UNL     1      26.736   1.842  52.861  1.00  0.00     0.092 C 
HETATM    4  C3  UNL     1      26.019   1.744  51.601  1.00  0.00     0.114 C 
HETATM    5  N2  UNL     1      25.789   0.438  51.595  1.00  0.00    -0.173 NA
HETATM    6  N3  UNL     1      26.756  -0.186  52.475  1.00  0.00    -0.280 N 
HETATM    7  C10 UNL     1      27.872  -0.978  53.043  1.00  0.00     0.224 C 
HETATM    8  S1  UNL     1      28.904   0.050  54.093  1.00  0.00    -0.093 SA
HETATM    9  C11 UNL     1      26.104   0.625  53.552  1.00  0.00     0.192 C 
ENDROOT
BRANCH   4  10
HETATM   10  C4  UNL     1      25.880   3.011  50.901  1.00  0.00    -0.004 A 
HETATM   11  C5  UNL     1      26.871   3.107  49.965  1.00  0.00     0.015 A 
HETATM   12  C6  UNL     1      26.942   4.251  49.167  1.00  0.00     0.020 A 
HETATM   13  C7  UNL     1      26.032   5.276  49.311  1.00  0.00     0.011 A 
HETATM   14 BR1  UNL     1      26.018   6.884  48.288  1.00  0.00    -0.051 Br
HETATM   15  C8  UNL     1      25.063   5.107  50.274  1.00  0.00     0.020 A 
HETATM   16  C9  UNL     1      24.962   4.001  51.073  1.00  0.00     0.015 A 
ENDBRANCH   4  10
BRANCH   9  17
HETATM   17  C12 UNL     1      24.657   0.564  53.392  1.00  0.00    -0.028 A 
HETATM   18  C13 UNL     1      24.135  -0.722  53.406  1.00  0.00     0.012 A 
HETATM   19  C14 UNL     1      22.766  -0.958  53.265  1.00  0.00     0.043 A 
HETATM   20  C15 UNL     1      21.901   0.108  53.109  1.00  0.00     0.116 A 
HETATM   21  F1  UNL     1      20.573  -0.175  52.976  1.00  0.00    -0.206 F 
HETATM   22  C16 UNL     1      22.429   1.389  53.097  1.00  0.00     0.043 A 
HETATM   23  C17 UNL     1      23.769   1.619  53.235  1.00  0.00     0.012 A 
ENDBRANCH   9  17
BRANCH   1  24
HETATM   24  O1  UNL     1      29.408   2.383  55.043  1.00  0.00    -0.366 OA
HETATM   25  H1  UNL     1      28.674   2.821  55.541  1.00  0.00     0.213 HD
ENDBRANCH   1  24
TORSDOF 3
ENDMDL
MODEL 2
REMARK VINA RESULT:      -8.3      3.736      4.963
REMARK  3 active torsions:
REMARK  status: ('A' for Active; 'I' for Inactive)
REMARK    1  A    between atoms: O1_1  and  C1_2 
REMARK    2  A    between atoms: C3_5  and  C4_6 
REMARK    3  A    between atoms: C11_17  and  C12_18 
ROOT
HETATM    1  C1  UNL     1      21.450   2.333  49.358  1.00  0.00     0.307 C 
HETATM    2  N1  UNL     1      22.954   2.269  49.338  1.00  0.00    -0.247 NA
HETATM    3  C2  UNL     1      23.651   2.410  50.443  1.00  0.00     0.092 C 
HETATM    4  C3  UNL     1      24.562   3.274  51.174  1.00  0.00     0.114 C 
HETATM    5  N2  UNL     1      24.163   2.997  52.407  1.00  0.00    -0.173 NA
HETATM    6  N3  UNL     1      22.817   2.467  52.330  1.00  0.00    -0.280 N 
HETATM    7  C10 UNL     1      21.355   2.252  52.437  1.00  0.00     0.224 C 
HETATM    8  S1  UNL     1      20.660   1.837  50.834  1.00  0.00    -0.093 SA
HETATM    9  C11 UNL     1      23.440   1.358  51.541  1.00  0.00     0.192 C 
ENDROOT
BRANCH   4  10
HETATM   10  C4  UNL     1      25.450   4.051  50.323  1.00  0.00    -0.004 A 
HETATM   11  C5  UNL     1      25.017   5.346  50.302  1.00  0.00     0.015 A 
HETATM   12  C6  UNL     1      25.718   6.284  49.540  1.00  0.00     0.020 A 
HETATM   13  C7  UNL     1      26.833   5.920  48.815  1.00  0.00     0.011 A 
HETATM   14 BR1  UNL     1      27.875   7.097  47.739  1.00  0.00    -0.051 Br
HETATM   15  C8  UNL     1      27.207   4.597  48.886  1.00  0.00     0.020 A 
HETATM   16  C9  UNL     1      26.546   3.652  49.622  1.00  0.00     0.015 A 
ENDBRANCH   4  10
BRANCH   9  17
HETATM   17  C12 UNL     1      24.681   0.946  52.185  1.00  0.00    -0.028 A 
HETATM   18  C13 UNL     1      24.540   0.583  53.516  1.00  0.00     0.012 A 
HETATM   19  C14 UNL     1      25.631   0.163  54.280  1.00  0.00     0.043 A 
HETATM   20  C15 UNL     1      26.886   0.104  53.705  1.00  0.00     0.116 A 
HETATM   21  F1  UNL     1      27.919  -0.313  54.494  1.00  0.00    -0.206 F 
HETATM   22  C16 UNL     1      27.019   0.467  52.375  1.00  0.00     0.043 A 
HETATM   23  C17 UNL     1      25.951   0.878  51.628  1.00  0.00     0.012 A 
ENDBRANCH   9  17
BRANCH   1  24
HETATM   24  O1  UNL     1      21.033   1.509  48.314  1.00  0.00    -0.366 OA
HETATM   25  H1  UNL     1      21.619   0.722  48.189  1.00  0.00     0.213 HD
ENDBRANCH   1  24
TORSDOF 3
ENDMDL
MODEL 3
REMARK VINA RESULT:      -8.2      3.648      5.165
REMARK  3 active torsions:
REMARK  status: ('A' for Active; 'I' for Inactive)
REMARK    1  A    between atoms: O1_1  and  C1_2 
REMARK    2  A    between atoms: C3_5  and  C4_6 
REMARK    3  A    between atoms: C11_17  and  C12_18 
ROOT
HETATM    1  C1  UNL     1      25.771   5.013  49.987  1.00  0.00     0.307 C 
HETATM    2  N1  UNL     1      25.615   3.542  50.263  1.00  0.00    -0.247 NA
HETATM    3  C2  UNL     1      24.859   3.115  51.250  1.00  0.00     0.092 C 
HETATM    4  C3  UNL     1      24.852   2.478  52.556  1.00  0.00     0.114 C 
HETATM    5  N2  UNL     1      23.807   3.100  53.083  1.00  0.00    -0.173 NA
HETATM    6  N3  UNL     1      23.610   4.335  52.351  1.00  0.00    -0.280 N 
HETATM    7  C10 UNL     1      23.507   5.755  51.941  1.00  0.00     0.224 C 
HETATM    8  S1  UNL     1      24.434   6.043  50.430  1.00  0.00    -0.093 SA
HETATM    9  C11 UNL     1      23.361   3.444  51.174  1.00  0.00     0.192 C 
ENDROOT
BRANCH   4  10
HETATM   10  C4  UNL     1      25.926   1.516  52.748  1.00  0.00    -0.004 A 
HETATM   11  C5  UNL     1      26.930   2.112  53.458  1.00  0.00     0.015 A 
HETATM   12  C6  UNL     1      28.077   1.376  53.761  1.00  0.00     0.020 A 
HETATM   13  C7  UNL     1      28.207   0.064  53.357  1.00  0.00     0.011 A 
HETATM   14 BR1  UNL     1      29.714  -1.048  53.706  1.00  0.00    -0.051 Br
HETATM   15  C8  UNL     1      27.154  -0.468  52.648  1.00  0.00     0.020 A 
HETATM   16  C9  UNL     1      26.016   0.223  52.332  1.00  0.00     0.015 A 
ENDBRANCH   4  10
BRANCH   9  17
HETATM   17  C12 UNL     1      22.511   2.333  51.581  1.00  0.00    -0.028 A 
HETATM   18  C13 UNL     1      21.406   2.706  52.332  1.00  0.00     0.012 A 
HETATM   19  C14 UNL     1      20.488   1.764  52.802  1.00  0.00     0.043 A 
HETATM   20  C15 UNL     1      20.676   0.425  52.517  1.00  0.00     0.116 A 
HETATM   21  F1  UNL     1      19.751  -0.455  52.999  1.00  0.00    -0.206 F 
HETATM   22  C16 UNL     1      21.781   0.060  51.765  1.00  0.00     0.043 A 
HETATM   23  C17 UNL     1      22.679   0.982  51.306  1.00  0.00     0.012 A 
ENDBRANCH   9  17
BRANCH   1  24
HETATM   24  O1  UNL     1      25.990   5.108  48.614  1.00  0.00    -0.366 OA
HETATM   25  H1  UNL     1      25.656   4.320  48.117  1.00  0.00     0.213 HD
ENDBRANCH   1  24
TORSDOF 3
ENDMDL
MODEL 4
REMARK VINA RESULT:      -8.0      3.563      5.756
REMARK  3 active torsions:
REMARK  status: ('A' for Active; 'I' for Inactive)
REMARK    1  A    between atoms: O1_1  and  C1_2 
REMARK    2  A    between atoms: C3_5  and  C4_6 
REMARK    3  A    between atoms: C11_17  and  C12_18 
ROOT
HETATM    1  C1  UNL     1      26.484  -0.897  53.665  1.00  0.00     0.307 C 
HETATM    2  N1  UNL     1      25.202  -0.756  52.889  1.00  0.00    -0.247 NA
HETATM    3  C2  UNL     1      24.618   0.414  52.755  1.00  0.00     0.092 C 
HETATM    4  C3  UNL     1      23.468   1.220  53.127  1.00  0.00     0.114 C 
HETATM    5  N2  UNL     1      24.052   2.409  53.160  1.00  0.00    -0.173 NA
HETATM    6  N3  UNL     1      25.475   2.200  53.335  1.00  0.00    -0.280 N 
HETATM    7  C10 UNL     1      26.862   2.155  53.853  1.00  0.00     0.224 C 
HETATM    8  S1  UNL     1      27.534   0.496  53.711  1.00  0.00    -0.093 SA
HETATM    9  C11 UNL     1      25.401   1.505  52.011  1.00  0.00     0.192 C 
ENDROOT
BRANCH   4  10
HETATM   10  C4  UNL     1      22.248   0.453  53.323  1.00  0.00    -0.004 A 
HETATM   11  C5  UNL     1      21.264   0.980  52.535  1.00  0.00     0.015 A 
HETATM   12  C6  UNL     1      19.992   0.406  52.561  1.00  0.00     0.020 A 
HETATM   13  C7  UNL     1      19.719  -0.680  53.366  1.00  0.00     0.011 A 
HETATM   14 BR1  UNL     1      18.032  -1.556  53.492  1.00  0.00    -0.051 Br
HETATM   15  C8  UNL     1      20.760  -1.156  54.130  1.00  0.00     0.020 A 
HETATM   16  C9  UNL     1      22.019  -0.618  54.130  1.00  0.00     0.015 A 
ENDBRANCH   4  10
BRANCH   9  17
HETATM   17  C12 UNL     1      24.572   2.285  51.101  1.00  0.00    -0.028 A 
HETATM   18  C13 UNL     1      24.947   3.615  50.987  1.00  0.00     0.012 A 
HETATM   19  C14 UNL     1      24.258   4.502  50.157  1.00  0.00     0.043 A 
HETATM   20  C15 UNL     1      23.175   4.052  49.427  1.00  0.00     0.116 A 
HETATM   21  F1  UNL     1      22.536   4.958  48.630  1.00  0.00    -0.206 F 
HETATM   22  C16 UNL     1      22.806   2.722  49.545  1.00  0.00     0.043 A 
HETATM   23  C17 UNL     1      23.481   1.855  50.358  1.00  0.00     0.012 A 
ENDBRANCH   9  17
BRANCH   1  24
HETATM   24  O1  UNL     1      27.157  -1.963  53.071  1.00  0.00    -0.366 OA
HETATM   25  H1  UNL     1      27.764  -2.430  53.697  1.00  0.00     0.213 HD
ENDBRANCH   1  24
TORSDOF 3
ENDMDL
MODEL 5
REMARK VINA RESULT:      -8.0      4.146      6.121
REMARK  3 active torsions:
REMARK  status: ('A' for Active; 'I' for Inactive)
REMARK    1  A    between atoms: O1_1  and  C1_2 
REMARK    2  A    between atoms: C3_5  and  C4_6 
REMARK    3  A    between atoms: C11_17  and  C12_18 
ROOT
HETATM    1  C1  UNL     1      22.991   5.142  51.215  1.00  0.00     0.307 C 
HETATM    2  N1  UNL     1      22.975   4.049  52.250  1.00  0.00    -0.247 NA
HETATM    3  C2  UNL     1      23.727   2.980  52.117  1.00  0.00     0.092 C 
HETATM    4  C3  UNL     1      23.729   1.550  51.861  1.00  0.00     0.114 C 
HETATM    5  N2  UNL     1      24.874   1.461  51.199  1.00  0.00    -0.173 NA
HETATM    6  N3  UNL     1      25.184   2.773  50.668  1.00  0.00    -0.280 N 
HETATM    7  C10 UNL     1      25.442   3.936  49.789  1.00  0.00     0.224 C 
HETATM    8  S1  UNL     1      24.473   5.353  50.317  1.00  0.00    -0.093 SA
HETATM    9  C11 UNL     1      25.247   3.193  52.104  1.00  0.00     0.192 C 
ENDROOT
BRANCH   4  10
HETATM   10  C4  UNL     1      22.556   0.857  52.369  1.00  0.00    -0.004 A 
HETATM   11  C5  UNL     1      21.608   0.818  51.387  1.00  0.00     0.015 A 
HETATM   12  C6  UNL     1      20.383   0.201  51.649  1.00  0.00     0.020 A 
HETATM   13  C7  UNL     1      20.121  -0.365  52.879  1.00  0.00     0.011 A 
HETATM   14 BR1  UNL     1      18.496  -1.235  53.364  1.00  0.00    -0.051 Br
HETATM   15  C8  UNL     1      21.124  -0.286  53.818  1.00  0.00     0.020 A 
HETATM   16  C9  UNL     1      22.336   0.310  53.596  1.00  0.00     0.015 A 
ENDBRANCH   4  10
BRANCH   9  17
HETATM   17  C12 UNL     1      25.973   2.187  52.870  1.00  0.00    -0.028 A 
HETATM   18  C13 UNL     1      27.177   1.799  52.303  1.00  0.00     0.012 A 
HETATM   19  C14 UNL     1      27.997   0.844  52.909  1.00  0.00     0.043 A 
HETATM   20  C15 UNL     1      27.607   0.266  54.102  1.00  0.00     0.116 A 
HETATM   21  F1  UNL     1      28.443  -0.662  54.653  1.00  0.00    -0.206 F 
HETATM   22  C16 UNL     1      26.402   0.660  54.662  1.00  0.00     0.043 A 
HETATM   23  C17 UNL     1      25.601   1.594  54.069  1.00  0.00     0.012 A 
ENDBRANCH   9  17
BRANCH   1  24
HETATM   24  O1  UNL     1      22.707   6.314  51.915  1.00  0.00    -0.366 OA
HETATM   25  H1  UNL     1      21.868   6.256  52.435  1.00  0.00     0.213 HD
ENDBRANCH   1  24
TORSDOF 3
ENDMDL
MODEL 6
REMARK VINA RESULT:      -7.9      1.653      2.315
REMARK  3 active torsions:
REMARK  status: ('A' for Active; 'I' for Inactive)
REMARK    1  A    between atoms: O1_1  and  C1_2 
REMARK    2  A    between atoms: C3_5  and  C4_6 
REMARK    3  A    between atoms: C11_17  and  C12_18 
ROOT
HETATM    1  C1  UNL     1      28.029   1.371  53.442  1.00  0.00     0.307 C 
HETATM    2  N1  UNL     1      27.302   2.587  52.933  1.00  0.00    -0.247 NA
HETATM    3  C2  UNL     1      26.163   2.474  52.288  1.00  0.00     0.092 C 
HETATM    4  C3  UNL     1      25.506   2.611  50.999  1.00  0.00     0.114 C 
HETATM    5  N2  UNL     1      24.621   1.631  51.114  1.00  0.00    -0.173 NA
HETATM    6  N3  UNL     1      25.109   0.708  52.118  1.00  0.00    -0.280 N 
HETATM    7  C10 UNL     1      25.635  -0.473  52.841  1.00  0.00     0.224 C 
HETATM    8  S1  UNL     1      27.052  -0.018  53.845  1.00  0.00    -0.093 SA
HETATM    9  C11 UNL     1      24.982   1.867  53.057  1.00  0.00     0.192 C 
ENDROOT
BRANCH   4  10
HETATM   10  C4  UNL     1      26.061   3.663  50.162  1.00  0.00    -0.004 A 
HETATM   11  C5  UNL     1      25.281   4.779  50.282  1.00  0.00     0.015 A 
HETATM   12  C6  UNL     1      25.620   5.925  49.560  1.00  0.00     0.020 A 
HETATM   13  C7  UNL     1      26.723   5.944  48.734  1.00  0.00     0.011 A 
HETATM   14 BR1  UNL     1      27.294   7.439  47.699  1.00  0.00    -0.051 Br
HETATM   15  C8  UNL     1      27.460   4.784  48.665  1.00  0.00     0.020 A 
HETATM   16  C9  UNL     1      27.159   3.643  49.358  1.00  0.00     0.015 A 
ENDBRANCH   4  10
BRANCH   9  17
HETATM   17  C12 UNL     1      23.722   2.555  52.807  1.00  0.00    -0.028 A 
HETATM   18  C13 UNL     1      22.638   1.710  52.620  1.00  0.00     0.012 A 
HETATM   19  C14 UNL     1      21.357   2.207  52.370  1.00  0.00     0.043 A 
HETATM   20  C15 UNL     1      21.154   3.572  52.305  1.00  0.00     0.116 A 
HETATM   21  F1  UNL     1      19.883   4.006  52.059  1.00  0.00    -0.206 F 
HETATM   22  C16 UNL     1      22.241   4.410  52.494  1.00  0.00     0.043 A 
HETATM   23  C17 UNL     1      23.494   3.923  52.739  1.00  0.00     0.012 A 
ENDBRANCH   9  17
BRANCH   1  24
HETATM   24  O1  UNL     1      28.711   1.799  54.579  1.00  0.00    -0.366 OA
HETATM   25  H1  UNL     1      29.561   2.258  54.366  1.00  0.00     0.213 HD
ENDBRANCH   1  24
TORSDOF 3
ENDMDL
MODEL 7
REMARK VINA RESULT:      -7.8      1.456      2.062
REMARK  3 active torsions:
REMARK  status: ('A' for Active; 'I' for Inactive)
REMARK    1  A    between atoms: O1_1  and  C1_2 
REMARK    2  A    between atoms: C3_5  and  C4_6 
REMARK    3  A    between atoms: C11_17  and  C12_18 
ROOT
HETATM    1  C1  UNL     1      29.004   1.621  54.098  1.00  0.00     0.307 C 
HETATM    2  N1  UNL     1      27.556   2.028  54.057  1.00  0.00    -0.247 NA
HETATM    3  C2  UNL     1      26.655   1.266  53.477  1.00  0.00     0.092 C 
HETATM    4  C3  UNL     1      25.755   1.138  52.344  1.00  0.00     0.114 C 
HETATM    5  N2  UNL     1      25.809  -0.177  52.186  1.00  0.00    -0.173 NA
HETATM    6  N3  UNL     1      27.031  -0.649  52.804  1.00  0.00    -0.280 N 
HETATM    7  C10 UNL     1      28.374  -1.215  53.071  1.00  0.00     0.224 C 
HETATM    8  S1  UNL     1      29.342  -0.092  54.084  1.00  0.00    -0.093 SA
HETATM    9  C11 UNL     1      26.433  -0.131  54.075  1.00  0.00     0.192 C 
ENDROOT
BRANCH   4  10
HETATM   10  C4  UNL     1      25.225   2.404  51.865  1.00  0.00    -0.004 A 
HETATM   11  C5  UNL     1      24.329   2.882  52.779  1.00  0.00     0.015 A 
HETATM   12  C6  UNL     1      23.684   4.094  52.528  1.00  0.00     0.020 A 
HETATM   13  C7  UNL     1      23.938   4.810  51.377  1.00  0.00     0.011 A 
HETATM   14 BR1  UNL     1      23.128   6.472  50.917  1.00  0.00    -0.051 Br
HETATM   15  C8  UNL     1      24.853   4.266  50.505  1.00  0.00     0.020 A 
HETATM   16  C9  UNL     1      25.504   3.082  50.718  1.00  0.00     0.015 A 
ENDBRANCH   4  10
BRANCH   9  17
HETATM   17  C12 UNL     1      25.028  -0.510  54.137  1.00  0.00    -0.028 A 
HETATM   18  C13 UNL     1      24.606  -0.933  55.389  1.00  0.00     0.012 A 
HETATM   19  C14 UNL     1      23.288  -1.332  55.621  1.00  0.00     0.043 A 
HETATM   20  C15 UNL     1      22.374  -1.308  54.585  1.00  0.00     0.116 A 
HETATM   21  F1  UNL     1      21.098  -1.707  54.863  1.00  0.00    -0.206 F 
HETATM   22  C16 UNL     1      22.802  -0.883  53.338  1.00  0.00     0.043 A 
HETATM   23  C17 UNL     1      24.092  -0.493  53.111  1.00  0.00     0.012 A 
ENDBRANCH   9  17
BRANCH   1  24
HETATM   24  O1  UNL     1      29.509   2.180  55.271  1.00  0.00    -0.366 OA
HETATM   25  H1  UNL     1      30.460   2.440  55.193  1.00  0.00     0.213 HD
ENDBRANCH   1  24
TORSDOF 3
ENDMDL
MODEL 8
REMARK VINA RESULT:      -7.6      4.708      6.050
REMARK  3 active torsions:
REMARK  status: ('A' for Active; 'I' for Inactive)
REMARK    1  A    between atoms: O1_1  and  C1_2 
REMARK    2  A    between atoms: C3_5  and  C4_6 
REMARK    3  A    between atoms: C11_17  and  C12_18 
ROOT
HETATM    1  C1  UNL     1      19.486   3.064  48.733  1.00  0.00     0.307 C 
HETATM    2  N1  UNL     1      20.784   2.424  49.149  1.00  0.00    -0.247 NA
HETATM    3  C2  UNL     1      21.141   2.378  50.413  1.00  0.00     0.092 C 
HETATM    4  C3  UNL     1      22.073   2.884  51.406  1.00  0.00     0.114 C 
HETATM    5  N2  UNL     1      21.270   2.887  52.460  1.00  0.00    -0.173 NA
HETATM    6  N3  UNL     1      19.904   2.911  51.977  1.00  0.00    -0.280 N 
HETATM    7  C10 UNL     1      18.509   3.285  51.647  1.00  0.00     0.224 C 
HETATM    8  S1  UNL     1      18.187   3.036  49.898  1.00  0.00    -0.093 SA
HETATM    9  C11 UNL     1      20.236   1.585  51.366  1.00  0.00     0.192 C 
ENDROOT
BRANCH   4  10
HETATM   10  C4  UNL     1      23.394   3.185  50.877  1.00  0.00    -0.004 A 
HETATM   11  C5  UNL     1      23.312   4.304  50.097  1.00  0.00     0.015 A 
HETATM   12  C6  UNL     1      24.466   4.783  49.473  1.00  0.00     0.020 A 
HETATM   13  C7  UNL     1      25.678   4.146  49.635  1.00  0.00     0.011 A 
HETATM   14 BR1  UNL     1      27.322   4.697  48.843  1.00  0.00    -0.051 Br
HETATM   15  C8  UNL     1      25.682   3.027  50.435  1.00  0.00     0.020 A 
HETATM   16  C9  UNL     1      24.572   2.528  51.062  1.00  0.00     0.015 A 
ENDBRANCH   4  10
BRANCH   9  17
HETATM   17  C12 UNL     1      20.982   0.783  52.328  1.00  0.00    -0.028 A 
HETATM   18  C13 UNL     1      20.444   0.781  53.606  1.00  0.00     0.012 A 
HETATM   19  C14 UNL     1      21.035   0.063  54.648  1.00  0.00     0.043 A 
HETATM   20  C15 UNL     1      22.184  -0.667  54.409  1.00  0.00     0.116 A 
HETATM   21  F1  UNL     1      22.723  -1.351  55.460  1.00  0.00    -0.206 F 
HETATM   22  C16 UNL     1      22.715  -0.660  53.129  1.00  0.00     0.043 A 
HETATM   23  C17 UNL     1      22.136   0.043  52.111  1.00  0.00     0.012 A 
ENDBRANCH   9  17
BRANCH   1  24
HETATM   24  O1  UNL     1      19.091   2.379  47.586  1.00  0.00    -0.366 OA
HETATM   25  H1  UNL     1      18.266   2.748  47.184  1.00  0.00     0.213 HD
ENDBRANCH   1  24
TORSDOF 3
ENDMDL
MODEL 9
REMARK VINA RESULT:      -7.5      5.366      7.510
REMARK  3 active torsions:
REMARK  status: ('A' for Active; 'I' for Inactive)
REMARK    1  A    between atoms: O1_1  and  C1_2 
REMARK    2  A    between atoms: C3_5  and  C4_6 
REMARK    3  A    between atoms: C11_17  and  C12_18 
ROOT
HETATM    1  C1  UNL     1      20.510   4.113  50.169  1.00  0.00     0.307 C 
HETATM    2  N1  UNL     1      19.910   3.167  51.174  1.00  0.00    -0.247 NA
HETATM    3  C2  UNL     1      20.435   1.980  51.383  1.00  0.00     0.092 C 
HETATM    4  C3  UNL     1      20.247   0.549  51.216  1.00  0.00     0.114 C 
HETATM    5  N2  UNL     1      21.512   0.195  51.033  1.00  0.00    -0.173 NA
HETATM    6  N3  UNL     1      22.242   1.367  50.594  1.00  0.00    -0.280 N 
HETATM    7  C10 UNL     1      23.020   2.361  49.819  1.00  0.00     0.224 C 
HETATM    8  S1  UNL     1      22.225   3.970  49.878  1.00  0.00    -0.093 SA
HETATM    9  C11 UNL     1      21.870   1.937  51.928  1.00  0.00     0.192 C 
ENDROOT
BRANCH   4  10
HETATM   10  C4  UNL     1      18.858   0.124  51.283  1.00  0.00    -0.004 A 
HETATM   11  C5  UNL     1      18.232   0.481  50.122  1.00  0.00     0.015 A 
HETATM   12  C6  UNL     1      16.878   0.178  49.960  1.00  0.00     0.020 A 
HETATM   13  C7  UNL     1      16.172  -0.473  50.948  1.00  0.00     0.011 A 
HETATM   14 BR1  UNL     1      14.328  -0.944  50.852  1.00  0.00    -0.051 Br
HETATM   15  C8  UNL     1      16.871  -0.801  52.088  1.00  0.00     0.020 A 
HETATM   16  C9  UNL     1      18.196  -0.520  52.282  1.00  0.00     0.015 A 
ENDBRANCH   4  10
BRANCH   9  17
HETATM   17  C12 UNL     1      22.061   0.922  52.956  1.00  0.00    -0.028 A 
HETATM   18  C13 UNL     1      23.317   0.334  52.951  1.00  0.00     0.012 A 
HETATM   19  C14 UNL     1      23.665  -0.657  53.871  1.00  0.00     0.043 A 
HETATM   20  C15 UNL     1      22.743  -1.069  54.814  1.00  0.00     0.116 A 
HETATM   21  F1  UNL     1      23.133  -2.040  55.690  1.00  0.00    -0.206 F 
HETATM   22  C16 UNL     1      21.491  -0.477  54.814  1.00  0.00     0.043 A 
HETATM   23  C17 UNL     1      21.151   0.493  53.913  1.00  0.00     0.012 A 
ENDBRANCH   9  17
BRANCH   1  24
HETATM   24  O1  UNL     1      20.231   5.389  50.654  1.00  0.00    -0.366 OA
HETATM   25  H1  UNL     1      20.963   6.032  50.487  1.00  0.00     0.213 HD
ENDBRANCH   1  24
TORSDOF 3
ENDMDL
