MODEL 1
REMARK VINA RESULT:      -8.7      0.000      0.000
REMARK  3 active torsions:
REMARK  status: ('A' for Active; 'I' for Inactive)
REMARK       I    between atoms: C2_2  and  N1_4 
REMARK    1  A    between atoms: N1_4  and  C3_5 
REMARK    2  A    between atoms: C8_12  and  N4_13 
REMARK    3  A    between atoms: N4_13  and  C9_14 
ROOT
HETATM    1  C3  UNL     1      24.154  -0.167  53.715  1.00  0.00     0.035 A 
HETATM    2  C4  UNL     1      24.924  -0.559  54.777  1.00  0.00     0.032 A 
HETATM    3  C5  UNL     1      26.220  -0.133  54.986  1.00  0.00     0.035 A 
HETATM    4  C6  UNL     1      26.747   0.734  54.063  1.00  0.00     0.072 A 
HETATM    5  N2  UNL     1      28.011   1.143  54.276  1.00  0.00    -0.241 NA
HETATM    6  C7  UNL     1      28.629   1.990  53.437  1.00  0.00     0.236 A 
HETATM    7  N3  UNL     1      27.908   2.393  52.391  1.00  0.00    -0.224 NA
HETATM    8  C8  UNL     1      26.652   2.036  52.108  1.00  0.00     0.142 A 
HETATM    9  C15 UNL     1      26.035   1.175  52.966  1.00  0.00     0.041 A 
HETATM   10  C16 UNL     1      24.750   0.703  52.830  1.00  0.00     0.047 A 
ENDROOT
BRANCH   8  11
HETATM   11  N4  UNL     1      25.958   2.507  50.977  1.00  0.00    -0.340 N 
HETATM   12  H8  UNL     1      25.249   1.947  50.508  1.00  0.00     0.167 HD
BRANCH  11  13
HETATM   13  C9  UNL     1      26.052   3.739  50.274  1.00  0.00     0.035 A 
HETATM   14  C10 UNL     1      26.984   4.065  49.301  1.00  0.00     0.029 A 
HETATM   15  C11 UNL     1      27.051   5.255  48.649  1.00  0.00     0.004 A 
HETATM   16  C12 UNL     1      26.149   6.253  48.939  1.00  0.00     0.019 A 
HETATM   17  C13 UNL     1      25.195   5.997  49.898  1.00  0.00     0.013 A 
HETATM   18 BR1  UNL     1      23.980   7.422  50.247  1.00  0.00    -0.051 Br
HETATM   19  C14 UNL     1      25.176   4.771  50.525  1.00  0.00     0.048 A 
ENDBRANCH  11  13
ENDBRANCH   8  11
BRANCH   1  20
HETATM   20  N1  UNL     1      22.825  -0.567  53.445  1.00  0.00    -0.327 N 
HETATM   21  C2  UNL     1      21.899  -1.210  54.290  1.00  0.00     0.218 C 
HETATM   22  C1  UNL     1      20.517  -1.599  53.931  1.00  0.00     0.117 C 
HETATM   23  O1  UNL     1      22.247  -1.488  55.446  1.00  0.00    -0.274 OA
HETATM   24  H4  UNL     1      22.391  -0.399  52.509  1.00  0.00     0.169 HD
ENDBRANCH   1  20
TORSDOF 3
ENDMDL
MODEL 2
REMARK VINA RESULT:      -8.7      2.446      4.739
REMARK  3 active torsions:
REMARK  status: ('A' for Active; 'I' for Inactive)
REMARK       I    between atoms: C2_2  and  N1_4 
REMARK    1  A    between atoms: N1_4  and  C3_5 
REMARK    2  A    between atoms: C8_12  and  N4_13 
REMARK    3  A    between atoms: N4_13  and  C9_14 
ROOT
HETATM    1  C3  UNL     1      24.903  -0.759  54.367  1.00  0.00     0.035 A 
HETATM    2  C4  UNL     1      24.090  -1.314  55.318  1.00  0.00     0.032 A 
HETATM    3  C5  UNL     1      22.712  -1.248  55.287  1.00  0.00     0.035 A 
HETATM    4  C6  UNL     1      22.145  -0.580  54.231  1.00  0.00     0.072 A 
HETATM    5  N2  UNL     1      20.801  -0.520  54.210  1.00  0.00    -0.241 NA
HETATM    6  C7  UNL     1      20.138   0.109  53.225  1.00  0.00     0.236 A 
HETATM    7  N3  UNL     1      20.899   0.662  52.281  1.00  0.00    -0.224 NA
HETATM    8  C8  UNL     1      22.234   0.647  52.228  1.00  0.00     0.142 A 
HETATM    9  C15 UNL     1      22.896   0.006  53.233  1.00  0.00     0.041 A 
HETATM   10  C16 UNL     1      24.263  -0.105  53.338  1.00  0.00     0.047 A 
ENDROOT
BRANCH   8  11
HETATM   11  N4  UNL     1      22.966   1.259  51.191  1.00  0.00    -0.340 N 
HETATM   12  H8  UNL     1      23.237   0.751  50.351  1.00  0.00     0.167 HD
BRANCH  11  13
HETATM   13  C9  UNL     1      23.461   2.584  51.059  1.00  0.00     0.035 A 
HETATM   14  C10 UNL     1      22.881   3.736  51.567  1.00  0.00     0.029 A 
HETATM   15  C11 UNL     1      23.377   4.992  51.420  1.00  0.00     0.004 A 
HETATM   16  C12 UNL     1      24.543   5.196  50.718  1.00  0.00     0.019 A 
HETATM   17  C13 UNL     1      25.173   4.094  50.185  1.00  0.00     0.013 A 
HETATM   18 BR1  UNL     1      26.780   4.451  49.228  1.00  0.00    -0.051 Br
HETATM   19  C14 UNL     1      24.622   2.845  50.368  1.00  0.00     0.048 A 
ENDBRANCH  11  13
ENDBRANCH   8  11
BRANCH   1  20
HETATM   20  N1  UNL     1      26.316  -0.792  54.342  1.00  0.00    -0.327 N 
HETATM   21  C2  UNL     1      27.236   0.237  54.624  1.00  0.00     0.218 C 
HETATM   22  C1  UNL     1      28.711   0.123  54.575  1.00  0.00     0.117 C 
HETATM   23  O1  UNL     1      26.798   1.350  54.946  1.00  0.00    -0.274 OA
HETATM   24  H4  UNL     1      26.831  -1.666  54.088  1.00  0.00     0.169 HD
ENDBRANCH   1  20
TORSDOF 3
ENDMDL
MODEL 3
REMARK VINA RESULT:      -8.5      1.174      1.484
REMARK  3 active torsions:
REMARK  status: ('A' for Active; 'I' for Inactive)
REMARK       I    between atoms: C2_2  and  N1_4 
REMARK    1  A    between atoms: N1_4  and  C3_5 
REMARK    2  A    between atoms: C8_12  and  N4_13 
REMARK    3  A    between atoms: N4_13  and  C9_14 
ROOT
HETATM    1  C3  UNL     1      24.384  -0.291  53.686  1.00  0.00     0.035 A 
HETATM    2  C4  UNL     1      25.030  -0.459  54.882  1.00  0.00     0.032 A 
HETATM    3  C5  UNL     1      26.255   0.101  55.179  1.00  0.00     0.035 A 
HETATM    4  C6  UNL     1      26.843   0.867  54.205  1.00  0.00     0.072 A 
HETATM    5  N2  UNL     1      28.038   1.408  54.505  1.00  0.00    -0.241 NA
HETATM    6  C7  UNL     1      28.706   2.174  53.627  1.00  0.00     0.236 A 
HETATM    7  N3  UNL     1      28.106   2.360  52.451  1.00  0.00    -0.224 NA
HETATM    8  C8  UNL     1      26.925   1.861  52.076  1.00  0.00     0.142 A 
HETATM    9  C15 UNL     1      26.256   1.084  52.975  1.00  0.00     0.041 A 
HETATM   10  C16 UNL     1      25.035   0.490  52.757  1.00  0.00     0.047 A 
ENDROOT
BRANCH   8  11
HETATM   11  N4  UNL     1      26.359   2.104  50.809  1.00  0.00    -0.340 N 
HETATM   12  H8  UNL     1      26.145   1.348  50.161  1.00  0.00     0.167 HD
BRANCH  11  13
HETATM   13  C9  UNL     1      25.982   3.319  50.176  1.00  0.00     0.035 A 
HETATM   14  C10 UNL     1      24.697   3.830  50.070  1.00  0.00     0.029 A 
HETATM   15  C11 UNL     1      24.368   4.994  49.454  1.00  0.00     0.004 A 
HETATM   16  C12 UNL     1      25.345   5.768  48.871  1.00  0.00     0.019 A 
HETATM   17  C13 UNL     1      26.645   5.320  48.939  1.00  0.00     0.013 A 
HETATM   18 BR1  UNL     1      27.944   6.440  48.111  1.00  0.00    -0.051 Br
HETATM   19  C14 UNL     1      26.919   4.130  49.578  1.00  0.00     0.048 A 
ENDBRANCH  11  13
ENDBRANCH   8  11
BRANCH   1  20
HETATM   20  N1  UNL     1      23.132  -0.836  53.320  1.00  0.00    -0.327 N 
HETATM   21  C2  UNL     1      21.882  -0.703  53.958  1.00  0.00     0.218 C 
HETATM   22  C1  UNL     1      20.608  -1.309  53.511  1.00  0.00     0.117 C 
HETATM   23  O1  UNL     1      21.815  -0.021  54.990  1.00  0.00    -0.274 OA
HETATM   24  H4  UNL     1      23.032  -1.435  52.469  1.00  0.00     0.169 HD
ENDBRANCH   1  20
TORSDOF 3
ENDMDL
MODEL 4
REMARK VINA RESULT:      -8.4      2.756      4.428
REMARK  3 active torsions:
REMARK  status: ('A' for Active; 'I' for Inactive)
REMARK       I    between atoms: C2_2  and  N1_4 
REMARK    1  A    between atoms: N1_4  and  C3_5 
REMARK    2  A    between atoms: C8_12  and  N4_13 
REMARK    3  A    between atoms: N4_13  and  C9_14 
ROOT
HETATM    1  C3  UNL     1      26.180   0.472  52.643  1.00  0.00     0.035 A 
HETATM    2  C4  UNL     1      25.061   0.281  53.409  1.00  0.00     0.032 A 
HETATM    3  C5  UNL     1      23.871   0.951  53.214  1.00  0.00     0.035 A 
HETATM    4  C6  UNL     1      23.829   1.858  52.186  1.00  0.00     0.072 A 
HETATM    5  N2  UNL     1      22.664   2.506  52.005  1.00  0.00    -0.241 NA
HETATM    6  C7  UNL     1      22.508   3.418  51.030  1.00  0.00     0.236 A 
HETATM    7  N3  UNL     1      23.578   3.630  50.263  1.00  0.00    -0.224 NA
HETATM    8  C8  UNL     1      24.766   3.030  50.376  1.00  0.00     0.142 A 
HETATM    9  C15 UNL     1      24.913   2.108  51.369  1.00  0.00     0.041 A 
HETATM   10  C16 UNL     1      26.062   1.398  51.630  1.00  0.00     0.047 A 
ENDROOT
BRANCH   8  11
HETATM   11  N4  UNL     1      25.851   3.312  49.523  1.00  0.00    -0.340 N 
HETATM   12  H8  UNL     1      26.406   2.574  49.095  1.00  0.00     0.167 HD
BRANCH  11  13
HETATM   13  C9  UNL     1      26.394   4.551  49.087  1.00  0.00     0.035 A 
HETATM   14  C10 UNL     1      25.706   5.745  48.934  1.00  0.00     0.029 A 
HETATM   15  C11 UNL     1      26.252   6.914  48.510  1.00  0.00     0.004 A 
HETATM   16  C12 UNL     1      27.590   6.975  48.192  1.00  0.00     0.019 A 
HETATM   17  C13 UNL     1      28.335   5.824  48.321  1.00  0.00     0.013 A 
HETATM   18 BR1  UNL     1      30.177   5.983  47.864  1.00  0.00    -0.051 Br
HETATM   19  C14 UNL     1      27.725   4.668  48.756  1.00  0.00     0.048 A 
ENDBRANCH  11  13
ENDBRANCH   8  11
BRANCH   1  20
HETATM   20  N1  UNL     1      27.426  -0.181  52.791  1.00  0.00    -0.327 N 
HETATM   21  C2  UNL     1      28.432   0.030  53.754  1.00  0.00     0.218 C 
HETATM   22  C1  UNL     1      29.718  -0.698  53.843  1.00  0.00     0.117 C 
HETATM   23  O1  UNL     1      28.252   0.900  54.618  1.00  0.00    -0.274 OA
HETATM   24  H4  UNL     1      27.718  -0.939  52.134  1.00  0.00     0.169 HD
ENDBRANCH   1  20
TORSDOF 3
ENDMDL
MODEL 5
REMARK VINA RESULT:      -8.3      3.611      6.705
REMARK  3 active torsions:
REMARK  status: ('A' for Active; 'I' for Inactive)
REMARK       I    between atoms: C2_2  and  N1_4 
REMARK    1  A    between atoms: N1_4  and  C3_5 
REMARK    2  A    between atoms: C8_12  and  N4_13 
REMARK    3  A    between atoms: N4_13  and  C9_14 
ROOT
HETATM    1  C3  UNL     1      24.234   3.371  49.989  1.00  0.00     0.035 A 
HETATM    2  C4  UNL     1      23.143   2.815  49.377  1.00  0.00     0.032 A 
HETATM    3  C5  UNL     1      22.413   1.771  49.907  1.00  0.00     0.035 A 
HETATM    4  C6  UNL     1      22.822   1.277  51.119  1.00  0.00     0.072 A 
HETATM    5  N2  UNL     1      22.104   0.259  51.627  1.00  0.00    -0.241 NA
HETATM    6  C7  UNL     1      22.414  -0.304  52.806  1.00  0.00     0.236 A 
HETATM    7  N3  UNL     1      23.472   0.213  53.431  1.00  0.00    -0.224 NA
HETATM    8  C8  UNL     1      24.235   1.220  52.997  1.00  0.00     0.142 A 
HETATM    9  C15 UNL     1      23.912   1.783  51.799  1.00  0.00     0.041 A 
HETATM   10  C16 UNL     1      24.586   2.824  51.202  1.00  0.00     0.047 A 
ENDROOT
BRANCH   8  11
HETATM   11  N4  UNL     1      25.341   1.709  53.720  1.00  0.00    -0.340 N 
HETATM   12  H8  UNL     1      25.249   2.457  54.405  1.00  0.00     0.167 HD
BRANCH  11  13
HETATM   13  C9  UNL     1      26.712   1.336  53.688  1.00  0.00     0.035 A 
HETATM   14  C10 UNL     1      27.801   2.183  53.824  1.00  0.00     0.029 A 
HETATM   15  C11 UNL     1      29.102   1.796  53.785  1.00  0.00     0.004 A 
HETATM   16  C12 UNL     1      29.423   0.471  53.597  1.00  0.00     0.019 A 
HETATM   17  C13 UNL     1      28.389  -0.427  53.453  1.00  0.00     0.013 A 
HETATM   18 BR1  UNL     1      28.907  -2.241  53.196  1.00  0.00    -0.051 Br
HETATM   19  C14 UNL     1      27.089   0.025  53.503  1.00  0.00     0.048 A 
ENDBRANCH  11  13
ENDBRANCH   8  11
BRANCH   1  20
HETATM   20  N1  UNL     1      25.023   4.438  49.500  1.00  0.00    -0.327 N 
HETATM   21  C2  UNL     1      26.394   4.458  49.179  1.00  0.00     0.218 C 
HETATM   22  C1  UNL     1      27.153   5.623  48.670  1.00  0.00     0.117 C 
HETATM   23  O1  UNL     1      27.051   3.418  49.327  1.00  0.00    -0.274 OA
HETATM   24  H4  UNL     1      24.606   5.381  49.324  1.00  0.00     0.169 HD
ENDBRANCH   1  20
TORSDOF 3
ENDMDL
MODEL 6
REMARK VINA RESULT:      -7.9      2.475      4.209
REMARK  3 active torsions:
REMARK  status: ('A' for Active; 'I' for Inactive)
REMARK       I    between atoms: C2_2  and  N1_4 
REMARK    1  A    between atoms: N1_4  and  C3_5 
REMARK    2  A    between atoms: C8_12  and  N4_13 
REMARK    3  A    between atoms: N4_13  and  C9_14 
ROOT
HETATM    1  C3  UNL     1      24.777   0.442  53.102  1.00  0.00     0.035 A 
HETATM    2  C4  UNL     1      23.672  -0.345  53.281  1.00  0.00     0.032 A 
HETATM    3  C5  UNL     1      22.376   0.107  53.147  1.00  0.00     0.035 A 
HETATM    4  C6  UNL     1      22.208   1.427  52.815  1.00  0.00     0.072 A 
HETATM    5  N2  UNL     1      20.940   1.858  52.687  1.00  0.00    -0.241 NA
HETATM    6  C7  UNL     1      20.656   3.131  52.365  1.00  0.00     0.236 A 
HETATM    7  N3  UNL     1      21.710   3.927  52.182  1.00  0.00    -0.224 NA
HETATM    8  C8  UNL     1      22.995   3.579  52.289  1.00  0.00     0.142 A 
HETATM    9  C15 UNL     1      23.271   2.285  52.616  1.00  0.00     0.041 A 
HETATM   10  C16 UNL     1      24.531   1.755  52.769  1.00  0.00     0.047 A 
ENDROOT
BRANCH   8  11
HETATM   11  N4  UNL     1      24.054   4.484  52.080  1.00  0.00    -0.340 N 
HETATM   12  H8  UNL     1      24.666   4.781  52.837  1.00  0.00     0.167 HD
BRANCH  11  13
HETATM   13  C9  UNL     1      24.494   5.145  50.900  1.00  0.00     0.035 A 
HETATM   14  C10 UNL     1      25.477   4.706  50.028  1.00  0.00     0.029 A 
HETATM   15  C11 UNL     1      25.880   5.363  48.909  1.00  0.00     0.004 A 
HETATM   16  C12 UNL     1      25.301   6.564  48.568  1.00  0.00     0.019 A 
HETATM   17  C13 UNL     1      24.316   7.060  49.392  1.00  0.00     0.013 A 
HETATM   18 BR1  UNL     1      23.561   8.725  48.859  1.00  0.00    -0.051 Br
HETATM   19  C14 UNL     1      23.949   6.348  50.513  1.00  0.00     0.048 A 
ENDBRANCH  11  13
ENDBRANCH   8  11
BRANCH   1  20
HETATM   20  N1  UNL     1      26.128   0.040  53.224  1.00  0.00    -0.327 N 
HETATM   21  C2  UNL     1      27.023   0.240  54.293  1.00  0.00     0.218 C 
HETATM   22  C1  UNL     1      28.431  -0.213  54.346  1.00  0.00     0.117 C 
HETATM   23  O1  UNL     1      26.621   0.848  55.295  1.00  0.00    -0.274 OA
HETATM   24  H4  UNL     1      26.607  -0.483  52.456  1.00  0.00     0.169 HD
ENDBRANCH   1  20
TORSDOF 3
ENDMDL
MODEL 7
REMARK VINA RESULT:      -7.9      3.396      6.910
REMARK  3 active torsions:
REMARK  status: ('A' for Active; 'I' for Inactive)
REMARK       I    between atoms: C2_2  and  N1_4 
REMARK    1  A    between atoms: N1_4  and  C3_5 
REMARK    2  A    between atoms: C8_12  and  N4_13 
REMARK    3  A    between atoms: N4_13  and  C9_14 
ROOT
HETATM    1  C3  UNL     1      26.228   2.511  51.882  1.00  0.00     0.035 A 
HETATM    2  C4  UNL     1      26.592   2.895  50.619  1.00  0.00     0.032 A 
HETATM    3  C5  UNL     1      25.691   3.185  49.614  1.00  0.00     0.035 A 
HETATM    4  C6  UNL     1      24.359   3.075  49.921  1.00  0.00     0.072 A 
HETATM    5  N2  UNL     1      23.490   3.359  48.934  1.00  0.00    -0.241 NA
HETATM    6  C7  UNL     1      22.161   3.285  49.121  1.00  0.00     0.236 A 
HETATM    7  N3  UNL     1      21.771   2.914  50.340  1.00  0.00    -0.224 NA
HETATM    8  C8  UNL     1      22.567   2.616  51.371  1.00  0.00     0.142 A 
HETATM    9  C15 UNL     1      23.913   2.694  51.170  1.00  0.00     0.041 A 
HETATM   10  C16 UNL     1      24.874   2.423  52.116  1.00  0.00     0.047 A 
ENDROOT
BRANCH   8  11
HETATM   11  N4  UNL     1      22.073   2.230  52.633  1.00  0.00    -0.340 N 
HETATM   12  H8  UNL     1      21.927   2.903  53.383  1.00  0.00     0.167 HD
BRANCH  11  13
HETATM   13  C9  UNL     1      21.694   0.955  53.133  1.00  0.00     0.035 A 
HETATM   14  C10 UNL     1      22.518   0.041  53.772  1.00  0.00     0.029 A 
HETATM   15  C11 UNL     1      22.127  -1.174  54.236  1.00  0.00     0.004 A 
HETATM   16  C12 UNL     1      20.821  -1.583  54.087  1.00  0.00     0.019 A 
HETATM   17  C13 UNL     1      19.947  -0.723  53.459  1.00  0.00     0.013 A 
HETATM   18 BR1  UNL     1      18.158  -1.354  53.287  1.00  0.00    -0.051 Br
HETATM   19  C14 UNL     1      20.402   0.497  53.010  1.00  0.00     0.048 A 
ENDBRANCH  11  13
ENDBRANCH   8  11
BRANCH   1  20
HETATM   20  N1  UNL     1      27.099   2.201  52.952  1.00  0.00    -0.327 N 
HETATM   21  C2  UNL     1      27.644   0.956  53.325  1.00  0.00     0.218 C 
HETATM   22  C1  UNL     1      28.553   0.711  54.466  1.00  0.00     0.117 C 
HETATM   23  O1  UNL     1      27.352  -0.043  52.651  1.00  0.00    -0.274 OA
HETATM   24  H4  UNL     1      27.433   2.943  53.608  1.00  0.00     0.169 HD
ENDBRANCH   1  20
TORSDOF 3
ENDMDL
MODEL 8
REMARK VINA RESULT:      -7.8      6.061      9.011
REMARK  3 active torsions:
REMARK  status: ('A' for Active; 'I' for Inactive)
REMARK       I    between atoms: C2_2  and  N1_4 
REMARK    1  A    between atoms: N1_4  and  C3_5 
REMARK    2  A    between atoms: C8_12  and  N4_13 
REMARK    3  A    between atoms: N4_13  and  C9_14 
ROOT
HETATM    1  C3  UNL     1      32.060   5.691  48.683  1.00  0.00     0.035 A 
HETATM    2  C4  UNL     1      32.866   6.721  49.089  1.00  0.00     0.032 A 
HETATM    3  C5  UNL     1      32.429   8.018  49.262  1.00  0.00     0.035 A 
HETATM    4  C6  UNL     1      31.104   8.267  49.007  1.00  0.00     0.072 A 
HETATM    5  N2  UNL     1      30.688   9.535  49.179  1.00  0.00    -0.241 NA
HETATM    6  C7  UNL     1      29.412   9.895  48.958  1.00  0.00     0.236 A 
HETATM    7  N3  UNL     1      28.598   8.917  48.562  1.00  0.00    -0.224 NA
HETATM    8  C8  UNL     1      28.931   7.637  48.369  1.00  0.00     0.142 A 
HETATM    9  C15 UNL     1      30.228   7.284  48.596  1.00  0.00     0.041 A 
HETATM   10  C16 UNL     1      30.743   6.017  48.447  1.00  0.00     0.047 A 
ENDROOT
BRANCH   8  11
HETATM   11  N4  UNL     1      28.007   6.661  47.948  1.00  0.00    -0.340 N 
HETATM   12  H8  UNL     1      27.836   6.471  46.962  1.00  0.00     0.167 HD
BRANCH  11  13
HETATM   13  C9  UNL     1      27.170   5.788  48.694  1.00  0.00     0.035 A 
HETATM   14  C10 UNL     1      27.339   4.422  48.856  1.00  0.00     0.029 A 
HETATM   15  C11 UNL     1      26.518   3.612  49.573  1.00  0.00     0.004 A 
HETATM   16  C12 UNL     1      25.415   4.135  50.210  1.00  0.00     0.019 A 
HETATM   17  C13 UNL     1      25.187   5.488  50.090  1.00  0.00     0.013 A 
HETATM   18 BR1  UNL     1      23.644   6.142  50.996  1.00  0.00    -0.051 Br
HETATM   19  C14 UNL     1      26.055   6.259  49.350  1.00  0.00     0.048 A 
ENDBRANCH  11  13
ENDBRANCH   8  11
BRANCH   1  20
HETATM   20  N1  UNL     1      32.446   4.345  48.488  1.00  0.00    -0.327 N 
HETATM   21  C2  UNL     1      32.628   3.636  47.284  1.00  0.00     0.218 C 
HETATM   22  C1  UNL     1      33.035   2.219  47.160  1.00  0.00     0.117 C 
HETATM   23  O1  UNL     1      32.436   4.231  46.213  1.00  0.00    -0.274 OA
HETATM   24  H4  UNL     1      32.643   3.717  49.300  1.00  0.00     0.169 HD
ENDBRANCH   1  20
TORSDOF 3
ENDMDL
MODEL 9
REMARK VINA RESULT:      -7.8      3.377      6.014
REMARK  3 active torsions:
REMARK  status: ('A' for Active; 'I' for Inactive)
REMARK       I    between atoms: C2_2  and  N1_4 
REMARK    1  A    between atoms: N1_4  and  C3_5 
REMARK    2  A    between atoms: C8_12  and  N4_13 
REMARK    3  A    between atoms: N4_13  and  C9_14 
ROOT
HETATM    1  C3  UNL     1      26.340   1.092  52.350  1.00  0.00     0.035 A 
HETATM    2  C4  UNL     1      27.113   0.813  53.445  1.00  0.00     0.032 A 
HETATM    3  C5  UNL     1      26.665   0.101  54.540  1.00  0.00     0.035 A 
HETATM    4  C6  UNL     1      25.368  -0.341  54.507  1.00  0.00     0.072 A 
HETATM    5  N2  UNL     1      24.941  -1.032  55.580  1.00  0.00    -0.241 NA
HETATM    6  C7  UNL     1      23.689  -1.513  55.657  1.00  0.00     0.236 A 
HETATM    7  N3  UNL     1      22.909  -1.259  54.607  1.00  0.00    -0.224 NA
HETATM    8  C8  UNL     1      23.253  -0.583  53.508  1.00  0.00     0.142 A 
HETATM    9  C15 UNL     1      24.526  -0.100  53.440  1.00  0.00     0.041 A 
HETATM   10  C16 UNL     1      25.049   0.616  52.388  1.00  0.00     0.047 A 
ENDROOT
BRANCH   8  11
HETATM   11  N4  UNL     1      22.366  -0.357  52.438  1.00  0.00    -0.340 N 
HETATM   12  H8  UNL     1      22.367  -0.940  51.604  1.00  0.00     0.167 HD
BRANCH  11  13
HETATM   13  C9  UNL     1      21.355   0.627  52.260  1.00  0.00     0.035 A 
HETATM   14  C10 UNL     1      21.445   1.971  52.589  1.00  0.00     0.029 A 
HETATM   15  C11 UNL     1      20.458   2.887  52.411  1.00  0.00     0.004 A 
HETATM   16  C12 UNL     1      19.253   2.507  51.866  1.00  0.00     0.019 A 
HETATM   17  C13 UNL     1      19.094   1.184  51.516  1.00  0.00     0.013 A 
HETATM   18 BR1  UNL     1      17.403   0.730  50.769  1.00  0.00    -0.051 Br
HETATM   19  C14 UNL     1      20.131   0.301  51.720  1.00  0.00     0.048 A 
ENDBRANCH  11  13
ENDBRANCH   8  11
BRANCH   1  20
HETATM   20  N1  UNL     1      26.738   1.814  51.200  1.00  0.00    -0.327 N 
HETATM   21  C2  UNL     1      26.204   3.003  50.666  1.00  0.00     0.218 C 
HETATM   22  C1  UNL     1      26.677   3.701  49.450  1.00  0.00     0.117 C 
HETATM   23  O1  UNL     1      25.249   3.536  51.248  1.00  0.00    -0.274 OA
HETATM   24  H4  UNL     1      27.532   1.485  50.605  1.00  0.00     0.169 HD
ENDBRANCH   1  20
TORSDOF 3
ENDMDL
