MODEL 1
REMARK VINA RESULT:      -6.9      0.000      0.000
REMARK  7 active torsions:
REMARK  status: ('A' for Active; 'I' for Inactive)
REMARK    1  A    between atoms: O1_2  and  C2_3 
REMARK    2  A    between atoms: C4_5  and  O2_6 
REMARK    3  A    between atoms: O2_6  and  C5_7 
REMARK    4  A    between atoms: C12_17  and  N3_18 
REMARK    5  A    between atoms: N3_18  and  C13_19 
REMARK    6  A    between atoms: C13_19  and  C14_20 
REMARK    7  A    between atoms: C16_22  and  C17_24 
ROOT
HETATM    1  C2  UNL     1      21.818   2.257  49.567  1.00  0.00     0.085 A 
HETATM    2  C3  UNL     1      21.533   1.023  49.886  1.00  0.00     0.044 A 
HETATM    3  C4  UNL     1      21.736   1.209  51.307  1.00  0.00     0.192 A 
HETATM    4  C10 UNL     1      22.060   2.609  50.943  1.00  0.00     0.192 A 
HETATM    5  N1  UNL     1      21.210   3.537  51.597  1.00  0.00    -0.254 NA
HETATM    6  C11 UNL     1      21.912   4.397  52.229  1.00  0.00     0.230 A 
HETATM    7  N2  UNL     1      23.315   4.120  52.052  1.00  0.00    -0.226 NA
HETATM    8  C12 UNL     1      23.424   3.075  51.300  1.00  0.00     0.145 A 
ENDROOT
BRANCH   1   9
HETATM    9  O1  UNL     1      21.977   3.272  48.614  1.00  0.00    -0.357 OA
HETATM   10  C1  UNL     1      22.088   2.919  47.228  1.00  0.00     0.209 C 
ENDBRANCH   1   9
BRANCH   3  11
HETATM   11  O2  UNL     1      22.858   0.593  51.860  1.00  0.00    -0.373 OA
BRANCH  11  12
HETATM   12  C5  UNL     1      22.549  -0.219  52.930  1.00  0.00     0.126 C 
HETATM   13  C6  UNL     1      21.477   0.457  53.766  1.00  0.00     0.058 C 
HETATM   14  C7  UNL     1      21.019  -0.571  54.801  1.00  0.00     0.170 C 
HETATM   15  O3  UNL     1      21.925  -1.617  54.906  1.00  0.00    -0.391 OA
HETATM   16  C8  UNL     1      23.241  -1.186  55.065  1.00  0.00     0.170 C 
HETATM   17  C9  UNL     1      23.752  -0.435  53.856  1.00  0.00     0.058 C 
ENDBRANCH  11  12
ENDBRANCH   3  11
BRANCH   8  18
HETATM   18  N3  UNL     1      24.635   2.458  50.876  1.00  0.00    -0.352 N 
HETATM   19  H16 UNL     1      24.785   2.096  49.911  1.00  0.00     0.166 HD
BRANCH  18  20
HETATM   20  C13 UNL     1      25.736   2.298  51.777  1.00  0.00     0.100 C 
BRANCH  20  21
HETATM   21  C14 UNL     1      26.681   1.805  52.525  1.00  0.00     0.199 A 
HETATM   22  C15 UNL     1      27.963   2.123  53.082  1.00  0.00     0.047 A 
HETATM   23  C16 UNL     1      28.203   1.003  53.735  1.00  0.00     0.066 A 
HETATM   24  F1  UNL     1      27.023   0.457  53.342  1.00  0.00    -0.360 F 
BRANCH  23  25
HETATM   25  C17 UNL     1      28.859  -0.013  54.564  1.00  0.00     0.180 C 
HETATM   26 CL1  UNL     1      30.102  -0.848  53.647  1.00  0.00    -0.123 Cl
ENDBRANCH  23  25
ENDBRANCH  20  21
ENDBRANCH  18  20
ENDBRANCH   8  18
TORSDOF 7
ENDMDL
MODEL 2
REMARK VINA RESULT:      -6.7      3.667      4.460
REMARK  7 active torsions:
REMARK  status: ('A' for Active; 'I' for Inactive)
REMARK    1  A    between atoms: O1_2  and  C2_3 
REMARK    2  A    between atoms: C4_5  and  O2_6 
REMARK    3  A    between atoms: O2_6  and  C5_7 
REMARK    4  A    between atoms: C12_17  and  N3_18 
REMARK    5  A    between atoms: N3_18  and  C13_19 
REMARK    6  A    between atoms: C13_19  and  C14_20 
REMARK    7  A    between atoms: C16_22  and  C17_24 
ROOT
HETATM    1  C2  UNL     1      22.242   2.166  50.495  1.00  0.00     0.085 A 
HETATM    2  C3  UNL     1      22.639   1.045  51.035  1.00  0.00     0.044 A 
HETATM    3  C4  UNL     1      23.557   1.669  51.964  1.00  0.00     0.192 A 
HETATM    4  C10 UNL     1      23.105   2.940  51.349  1.00  0.00     0.192 A 
HETATM    5  N1  UNL     1      22.547   3.824  52.307  1.00  0.00    -0.254 NA
HETATM    6  C11 UNL     1      23.141   4.954  52.253  1.00  0.00     0.230 A 
HETATM    7  N2  UNL     1      24.164   4.929  51.239  1.00  0.00    -0.226 NA
HETATM    8  C12 UNL     1      24.160   3.757  50.695  1.00  0.00     0.145 A 
ENDROOT
BRANCH   1   9
HETATM    9  O1  UNL     1      21.456   2.873  49.575  1.00  0.00    -0.357 OA
HETATM   10  C1  UNL     1      21.582   2.581  48.176  1.00  0.00     0.209 C 
ENDBRANCH   1   9
BRANCH   3  11
HETATM   11  O2  UNL     1      24.916   1.481  51.715  1.00  0.00    -0.373 OA
BRANCH  11  12
HETATM   12  C5  UNL     1      25.507   0.613  52.609  1.00  0.00     0.126 C 
HETATM   13  C6  UNL     1      26.025   1.408  53.795  1.00  0.00     0.058 C 
HETATM   14  C7  UNL     1      26.467   0.387  54.843  1.00  0.00     0.170 C 
HETATM   15  O3  UNL     1      26.608  -0.877  54.286  1.00  0.00    -0.391 OA
HETATM   16  C8  UNL     1      27.374  -0.878  53.122  1.00  0.00     0.170 C 
HETATM   17  C9  UNL     1      26.720  -0.102  52.001  1.00  0.00     0.058 C 
ENDBRANCH  11  12
ENDBRANCH   3  11
BRANCH   8  18
HETATM   18  N3  UNL     1      25.013   3.304  49.649  1.00  0.00    -0.352 N 
HETATM   19  H16 UNL     1      24.800   2.475  49.057  1.00  0.00     0.166 HD
BRANCH  18  20
HETATM   20  C13 UNL     1      26.239   3.981  49.352  1.00  0.00     0.100 C 
BRANCH  20  21
HETATM   21  C14 UNL     1      27.136   4.794  48.872  1.00  0.00     0.199 A 
HETATM   22  C15 UNL     1      27.344   6.169  48.524  1.00  0.00     0.047 A 
HETATM   23  C16 UNL     1      28.591   6.101  48.100  1.00  0.00     0.066 A 
HETATM   24  F1  UNL     1      28.660   4.767  48.344  1.00  0.00    -0.360 F 
BRANCH  23  25
HETATM   25  C17 UNL     1      29.901   6.479  47.559  1.00  0.00     0.180 C 
HETATM   26 CL1  UNL     1      30.933   7.114  48.830  1.00  0.00    -0.123 Cl
ENDBRANCH  23  25
ENDBRANCH  20  21
ENDBRANCH  18  20
ENDBRANCH   8  18
TORSDOF 7
ENDMDL
MODEL 3
REMARK VINA RESULT:      -6.4      2.677      5.066
REMARK  7 active torsions:
REMARK  status: ('A' for Active; 'I' for Inactive)
REMARK    1  A    between atoms: O1_2  and  C2_3 
REMARK    2  A    between atoms: C4_5  and  O2_6 
REMARK    3  A    between atoms: O2_6  and  C5_7 
REMARK    4  A    between atoms: C12_17  and  N3_18 
REMARK    5  A    between atoms: N3_18  and  C13_19 
REMARK    6  A    between atoms: C13_19  and  C14_20 
REMARK    7  A    between atoms: C16_22  and  C17_24 
ROOT
HETATM    1  C2  UNL     1      21.209   4.365  51.656  1.00  0.00     0.085 A 
HETATM    2  C3  UNL     1      21.738   5.525  51.374  1.00  0.00     0.044 A 
HETATM    3  C4  UNL     1      22.859   4.978  50.639  1.00  0.00     0.192 A 
HETATM    4  C10 UNL     1      22.256   3.662  50.960  1.00  0.00     0.192 A 
HETATM    5  N1  UNL     1      21.955   2.918  49.791  1.00  0.00    -0.254 NA
HETATM    6  C11 UNL     1      22.507   1.768  49.856  1.00  0.00     0.230 A 
HETATM    7  N2  UNL     1      23.237   1.636  51.090  1.00  0.00    -0.226 NA
HETATM    8  C12 UNL     1      23.103   2.736  51.754  1.00  0.00     0.145 A 
ENDROOT
BRANCH   1   9
HETATM    9  O1  UNL     1      20.209   3.586  52.253  1.00  0.00    -0.357 OA
HETATM   10  C1  UNL     1      18.930   3.477  51.612  1.00  0.00     0.209 C 
ENDBRANCH   1   9
BRANCH   3  11
HETATM   11  O2  UNL     1      24.111   5.085  51.244  1.00  0.00    -0.373 OA
BRANCH  11  12
HETATM   12  C5  UNL     1      25.095   5.490  50.367  1.00  0.00     0.126 C 
HETATM   13  C6  UNL     1      24.439   6.028  49.108  1.00  0.00     0.058 C 
HETATM   14  C7  UNL     1      25.554   6.658  48.272  1.00  0.00     0.170 C 
HETATM   15  O3  UNL     1      26.805   6.242  48.707  1.00  0.00    -0.391 OA
HETATM   16  C8  UNL     1      26.902   4.859  48.848  1.00  0.00     0.170 C 
HETATM   17  C9  UNL     1      25.990   4.324  49.929  1.00  0.00     0.058 C 
ENDBRANCH  11  12
ENDBRANCH   3  11
BRANCH   8  18
HETATM   18  N3  UNL     1      23.664   3.032  53.029  1.00  0.00    -0.352 N 
HETATM   19  H16 UNL     1      23.172   3.597  53.753  1.00  0.00     0.166 HD
BRANCH  18  20
HETATM   20  C13 UNL     1      24.965   2.558  53.390  1.00  0.00     0.100 C 
BRANCH  20  21
HETATM   21  C14 UNL     1      25.979   1.810  53.720  1.00  0.00     0.199 A 
HETATM   22  C15 UNL     1      26.305   0.522  54.261  1.00  0.00     0.047 A 
HETATM   23  C16 UNL     1      27.620   0.606  54.248  1.00  0.00     0.066 A 
HETATM   24  F1  UNL     1      27.591   1.859  53.724  1.00  0.00    -0.360 F 
BRANCH  23  25
HETATM   25  C17 UNL     1      29.038   0.273  54.414  1.00  0.00     0.180 C 
HETATM   26 CL1  UNL     1      29.427  -1.215  53.566  1.00  0.00    -0.123 Cl
ENDBRANCH  23  25
ENDBRANCH  20  21
ENDBRANCH  18  20
ENDBRANCH   8  18
TORSDOF 7
ENDMDL
MODEL 4
REMARK VINA RESULT:      -6.2      4.168      6.418
REMARK  7 active torsions:
REMARK  status: ('A' for Active; 'I' for Inactive)
REMARK    1  A    between atoms: O1_2  and  C2_3 
REMARK    2  A    between atoms: C4_5  and  O2_6 
REMARK    3  A    between atoms: O2_6  and  C5_7 
REMARK    4  A    between atoms: C12_17  and  N3_18 
REMARK    5  A    between atoms: N3_18  and  C13_19 
REMARK    6  A    between atoms: C13_19  and  C14_20 
REMARK    7  A    between atoms: C16_22  and  C17_24 
ROOT
HETATM    1  C2  UNL     1      21.809   3.800  51.821  1.00  0.00     0.085 A 
HETATM    2  C3  UNL     1      22.944   3.996  52.436  1.00  0.00     0.044 A 
HETATM    3  C4  UNL     1      23.552   2.764  51.977  1.00  0.00     0.192 A 
HETATM    4  C10 UNL     1      22.262   2.543  51.281  1.00  0.00     0.192 A 
HETATM    5  N1  UNL     1      22.434   2.394  49.882  1.00  0.00    -0.254 NA
HETATM    6  C11 UNL     1      21.899   1.301  49.494  1.00  0.00     0.230 A 
HETATM    7  N2  UNL     1      21.312   0.609  50.613  1.00  0.00    -0.226 NA
HETATM    8  C12 UNL     1      21.513   1.321  51.673  1.00  0.00     0.145 A 
ENDROOT
BRANCH   1   9
HETATM    9  O1  UNL     1      20.509   4.203  51.488  1.00  0.00    -0.357 OA
HETATM   10  C1  UNL     1      20.324   5.192  50.466  1.00  0.00     0.209 C 
ENDBRANCH   1   9
BRANCH   3  11
HETATM   11  O2  UNL     1      23.746   1.772  52.938  1.00  0.00    -0.373 OA
BRANCH  11  12
HETATM   12  C5  UNL     1      24.987   1.178  52.849  1.00  0.00     0.126 C 
HETATM   13  C6  UNL     1      24.880  -0.256  53.336  1.00  0.00     0.058 C 
HETATM   14  C7  UNL     1      26.216  -0.927  53.012  1.00  0.00     0.170 C 
HETATM   15  O3  UNL     1      27.196   0.015  52.733  1.00  0.00    -0.391 OA
HETATM   16  C8  UNL     1      27.275   1.022  53.694  1.00  0.00     0.170 C 
HETATM   17  C9  UNL     1      26.022   1.867  53.748  1.00  0.00     0.058 C 
ENDBRANCH  11  12
ENDBRANCH   3  11
BRANCH   8  18
HETATM   18  N3  UNL     1      21.098   1.007  52.997  1.00  0.00    -0.352 N 
HETATM   19  H16 UNL     1      21.603   1.333  53.848  1.00  0.00     0.166 HD
BRANCH  18  20
HETATM   20  C13 UNL     1      19.937   0.204  53.235  1.00  0.00     0.100 C 
BRANCH  20  21
HETATM   21  C14 UNL     1      19.085  -0.779  53.299  1.00  0.00     0.199 A 
HETATM   22  C15 UNL     1      17.733  -1.125  52.970  1.00  0.00     0.047 A 
HETATM   23  C16 UNL     1      17.714  -2.371  53.402  1.00  0.00     0.066 A 
HETATM   24  F1  UNL     1      19.009  -2.306  53.810  1.00  0.00    -0.360 F 
BRANCH  23  25
HETATM   25  C17 UNL     1      17.256  -3.724  53.731  1.00  0.00     0.180 C 
HETATM   26 CL1  UNL     1      15.806  -4.122  52.825  1.00  0.00    -0.123 Cl
ENDBRANCH  23  25
ENDBRANCH  20  21
ENDBRANCH  18  20
ENDBRANCH   8  18
TORSDOF 7
ENDMDL
MODEL 5
REMARK VINA RESULT:      -6.1      4.162      6.765
REMARK  7 active torsions:
REMARK  status: ('A' for Active; 'I' for Inactive)
REMARK    1  A    between atoms: O1_2  and  C2_3 
REMARK    2  A    between atoms: C4_5  and  O2_6 
REMARK    3  A    between atoms: O2_6  and  C5_7 
REMARK    4  A    between atoms: C12_17  and  N3_18 
REMARK    5  A    between atoms: N3_18  and  C13_19 
REMARK    6  A    between atoms: C13_19  and  C14_20 
REMARK    7  A    between atoms: C16_22  and  C17_24 
ROOT
HETATM    1  C2  UNL     1      23.745   5.684  51.514  1.00  0.00     0.085 A 
HETATM    2  C3  UNL     1      24.281   6.862  51.342  1.00  0.00     0.044 A 
HETATM    3  C4  UNL     1      24.664   6.627  49.966  1.00  0.00     0.192 A 
HETATM    4  C10 UNL     1      24.057   5.290  50.164  1.00  0.00     0.192 A 
HETATM    5  N1  UNL     1      23.011   5.041  49.239  1.00  0.00    -0.254 NA
HETATM    6  C11 UNL     1      23.234   3.948  48.616  1.00  0.00     0.230 A 
HETATM    7  N2  UNL     1      24.467   3.359  49.073  1.00  0.00    -0.226 NA
HETATM    8  C12 UNL     1      24.966   4.130  49.982  1.00  0.00     0.145 A 
ENDROOT
BRANCH   1   9
HETATM    9  O1  UNL     1      23.087   4.741  52.316  1.00  0.00    -0.357 OA
HETATM   10  C1  UNL     1      21.664   4.596  52.199  1.00  0.00     0.209 C 
ENDBRANCH   1   9
BRANCH   3  11
HETATM   11  O2  UNL     1      26.030   6.494  49.716  1.00  0.00    -0.373 OA
BRANCH  11  12
HETATM   12  C5  UNL     1      26.518   7.474  48.879  1.00  0.00     0.126 C 
HETATM   13  C6  UNL     1      27.646   6.891  48.046  1.00  0.00     0.058 C 
HETATM   14  C7  UNL     1      27.999   7.943  46.994  1.00  0.00     0.170 C 
HETATM   15  O3  UNL     1      27.478   9.185  47.330  1.00  0.00    -0.391 OA
HETATM   16  C8  UNL     1      27.767   9.562  48.640  1.00  0.00     0.170 C 
HETATM   17  C9  UNL     1      27.116   8.652  49.658  1.00  0.00     0.058 C 
ENDBRANCH  11  12
ENDBRANCH   3  11
BRANCH   8  18
HETATM   18  N3  UNL     1      26.178   3.922  50.698  1.00  0.00    -0.352 N 
HETATM   19  H16 UNL     1      26.943   4.628  50.746  1.00  0.00     0.166 HD
BRANCH  18  20
HETATM   20  C13 UNL     1      26.416   2.701  51.407  1.00  0.00     0.100 C 
BRANCH  20  21
HETATM   21  C14 UNL     1      26.942   1.755  52.131  1.00  0.00     0.199 A 
HETATM   22  C15 UNL     1      26.930   0.333  52.315  1.00  0.00     0.047 A 
HETATM   23  C16 UNL     1      27.797   0.232  53.303  1.00  0.00     0.066 A 
HETATM   24  F1  UNL     1      27.997   1.576  53.338  1.00  0.00    -0.360 F 
BRANCH  23  25
HETATM   25  C17 UNL     1      28.656  -0.329  54.351  1.00  0.00     0.180 C 
HETATM   26 CL1  UNL     1      30.130  -0.982  53.657  1.00  0.00    -0.123 Cl
ENDBRANCH  23  25
ENDBRANCH  20  21
ENDBRANCH  18  20
ENDBRANCH   8  18
TORSDOF 7
ENDMDL
MODEL 6
REMARK VINA RESULT:      -6.0      2.573      3.639
REMARK  7 active torsions:
REMARK  status: ('A' for Active; 'I' for Inactive)
REMARK    1  A    between atoms: O1_2  and  C2_3 
REMARK    2  A    between atoms: C4_5  and  O2_6 
REMARK    3  A    between atoms: O2_6  and  C5_7 
REMARK    4  A    between atoms: C12_17  and  N3_18 
REMARK    5  A    between atoms: N3_18  and  C13_19 
REMARK    6  A    between atoms: C13_19  and  C14_20 
REMARK    7  A    between atoms: C16_22  and  C17_24 
ROOT
HETATM    1  C2  UNL     1      24.276   3.263  49.533  1.00  0.00     0.085 A 
HETATM    2  C3  UNL     1      23.248   2.971  48.783  1.00  0.00     0.044 A 
HETATM    3  C4  UNL     1      22.259   3.331  49.778  1.00  0.00     0.192 A 
HETATM    4  C10 UNL     1      23.428   3.661  50.627  1.00  0.00     0.192 A 
HETATM    5  N1  UNL     1      23.408   5.014  51.053  1.00  0.00    -0.254 NA
HETATM    6  C11 UNL     1      23.496   5.068  52.326  1.00  0.00     0.230 A 
HETATM    7  N2  UNL     1      23.583   3.740  52.876  1.00  0.00    -0.226 NA
HETATM    8  C12 UNL     1      23.545   2.898  51.896  1.00  0.00     0.145 A 
ENDROOT
BRANCH   1   9
HETATM    9  O1  UNL     1      25.660   3.354  49.735  1.00  0.00    -0.357 OA
HETATM   10  C1  UNL     1      26.369   4.490  49.220  1.00  0.00     0.209 C 
ENDBRANCH   1   9
BRANCH   3  11
HETATM   11  O2  UNL     1      21.541   2.280  50.349  1.00  0.00    -0.373 OA
BRANCH  11  12
HETATM   12  C5  UNL     1      20.179   2.495  50.336  1.00  0.00     0.126 C 
HETATM   13  C6  UNL     1      19.795   3.283  51.575  1.00  0.00     0.058 C 
HETATM   14  C7  UNL     1      18.328   3.679  51.402  1.00  0.00     0.170 C 
HETATM   15  O3  UNL     1      17.719   2.926  50.407  1.00  0.00    -0.391 OA
HETATM   16  C8  UNL     1      17.933   1.557  50.550  1.00  0.00     0.170 C 
HETATM   17  C9  UNL     1      19.389   1.181  50.393  1.00  0.00     0.058 C 
ENDBRANCH  11  12
ENDBRANCH   3  11
BRANCH   8  18
HETATM   18  N3  UNL     1      23.604   1.479  51.994  1.00  0.00    -0.352 N 
HETATM   19  H16 UNL     1      22.760   0.869  51.970  1.00  0.00     0.166 HD
BRANCH  18  20
HETATM   20  C13 UNL     1      24.856   0.800  52.134  1.00  0.00     0.100 C 
BRANCH  20  21
HETATM   21  C14 UNL     1      25.921   0.222  52.611  1.00  0.00     0.199 A 
HETATM   22  C15 UNL     1      26.511  -0.223  53.840  1.00  0.00     0.047 A 
HETATM   23  C16 UNL     1      27.642  -0.716  53.375  1.00  0.00     0.066 A 
HETATM   24  F1  UNL     1      27.318  -0.396  52.095  1.00  0.00    -0.360 F 
BRANCH  23  25
HETATM   25  C17 UNL     1      28.963  -1.348  53.310  1.00  0.00     0.180 C 
HETATM   26 CL1  UNL     1      30.230  -0.152  53.529  1.00  0.00    -0.123 Cl
ENDBRANCH  23  25
ENDBRANCH  20  21
ENDBRANCH  18  20
ENDBRANCH   8  18
TORSDOF 7
ENDMDL
MODEL 7
REMARK VINA RESULT:      -5.9      3.988      5.161
REMARK  7 active torsions:
REMARK  status: ('A' for Active; 'I' for Inactive)
REMARK    1  A    between atoms: O1_2  and  C2_3 
REMARK    2  A    between atoms: C4_5  and  O2_6 
REMARK    3  A    between atoms: O2_6  and  C5_7 
REMARK    4  A    between atoms: C12_17  and  N3_18 
REMARK    5  A    between atoms: N3_18  and  C13_19 
REMARK    6  A    between atoms: C13_19  and  C14_20 
REMARK    7  A    between atoms: C16_22  and  C17_24 
ROOT
HETATM    1  C2  UNL     1      23.825   3.694  49.841  1.00  0.00     0.085 A 
HETATM    2  C3  UNL     1      24.810   2.902  50.171  1.00  0.00     0.044 A 
HETATM    3  C4  UNL     1      24.224   2.487  51.428  1.00  0.00     0.192 A 
HETATM    4  C10 UNL     1      23.108   3.387  51.052  1.00  0.00     0.192 A 
HETATM    5  N1  UNL     1      21.870   2.697  50.988  1.00  0.00    -0.254 NA
HETATM    6  C11 UNL     1      21.011   3.278  51.733  1.00  0.00     0.230 A 
HETATM    7  N2  UNL     1      21.603   4.425  52.373  1.00  0.00    -0.226 NA
HETATM    8  C12 UNL     1      22.833   4.508  51.987  1.00  0.00     0.145 A 
ENDROOT
BRANCH   1   9
HETATM    9  O1  UNL     1      23.221   4.596  48.955  1.00  0.00    -0.357 OA
HETATM   10  C1  UNL     1      22.475   4.089  47.840  1.00  0.00     0.209 C 
ENDBRANCH   1   9
BRANCH   3  11
HETATM   11  O2  UNL     1      24.841   2.958  52.586  1.00  0.00    -0.373 OA
BRANCH  11  12
HETATM   12  C5  UNL     1      25.264   1.943  53.418  1.00  0.00     0.126 C 
HETATM   13  C6  UNL     1      26.734   1.674  53.155  1.00  0.00     0.058 C 
HETATM   14  C7  UNL     1      27.201   0.705  54.242  1.00  0.00     0.170 C 
HETATM   15  O3  UNL     1      26.122   0.104  54.877  1.00  0.00    -0.391 OA
HETATM   16  C8  UNL     1      25.195  -0.433  53.986  1.00  0.00     0.170 C 
HETATM   17  C9  UNL     1      24.524   0.628  53.143  1.00  0.00     0.058 C 
ENDBRANCH  11  12
ENDBRANCH   3  11
BRANCH   8  18
HETATM   18  N3  UNL     1      23.781   5.495  52.379  1.00  0.00    -0.352 N 
HETATM   19  H16 UNL     1      24.179   5.557  53.340  1.00  0.00     0.166 HD
BRANCH  18  20
HETATM   20  C13 UNL     1      24.248   6.480  51.451  1.00  0.00     0.100 C 
BRANCH  20  21
HETATM   21  C14 UNL     1      24.989   7.223  50.680  1.00  0.00     0.199 A 
HETATM   22  C15 UNL     1      25.032   8.512  50.055  1.00  0.00     0.047 A 
HETATM   23  C16 UNL     1      26.192   8.418  49.436  1.00  0.00     0.066 A 
HETATM   24  F1  UNL     1      26.401   7.160  49.903  1.00  0.00    -0.360 F 
BRANCH  23  25
HETATM   25  C17 UNL     1      27.362   8.740  48.613  1.00  0.00     0.180 C 
HETATM   26 CL1  UNL     1      28.622   9.474  49.591  1.00  0.00    -0.123 Cl
ENDBRANCH  23  25
ENDBRANCH  20  21
ENDBRANCH  18  20
ENDBRANCH   8  18
TORSDOF 7
ENDMDL
MODEL 8
REMARK VINA RESULT:      -5.8      4.010      6.187
REMARK  7 active torsions:
REMARK  status: ('A' for Active; 'I' for Inactive)
REMARK    1  A    between atoms: O1_2  and  C2_3 
REMARK    2  A    between atoms: C4_5  and  O2_6 
REMARK    3  A    between atoms: O2_6  and  C5_7 
REMARK    4  A    between atoms: C12_17  and  N3_18 
REMARK    5  A    between atoms: N3_18  and  C13_19 
REMARK    6  A    between atoms: C13_19  and  C14_20 
REMARK    7  A    between atoms: C16_22  and  C17_24 
ROOT
HETATM    1  C2  UNL     1      22.015   3.891  51.112  1.00  0.00     0.085 A 
HETATM    2  C3  UNL     1      22.635   3.568  52.215  1.00  0.00     0.044 A 
HETATM    3  C4  UNL     1      22.660   2.148  51.935  1.00  0.00     0.192 A 
HETATM    4  C10 UNL     1      21.956   2.516  50.684  1.00  0.00     0.192 A 
HETATM    5  N1  UNL     1      22.671   2.102  49.532  1.00  0.00    -0.254 NA
HETATM    6  C11 UNL     1      21.916   1.390  48.786  1.00  0.00     0.230 A 
HETATM    7  N2  UNL     1      20.610   1.262  49.379  1.00  0.00    -0.226 NA
HETATM    8  C12 UNL     1      20.611   1.916  50.494  1.00  0.00     0.145 A 
ENDROOT
BRANCH   1   9
HETATM    9  O1  UNL     1      21.449   4.847  50.258  1.00  0.00    -0.357 OA
HETATM   10  C1  UNL     1      21.342   6.207  50.703  1.00  0.00     0.209 C 
ENDBRANCH   1   9
BRANCH   3  11
HETATM   11  O2  UNL     1      21.836   1.344  52.722  1.00  0.00    -0.373 OA
BRANCH  11  12
HETATM   12  C5  UNL     1      22.542   0.559  53.608  1.00  0.00     0.126 C 
HETATM   13  C6  UNL     1      23.741  -0.033  52.889  1.00  0.00     0.058 C 
HETATM   14  C7  UNL     1      24.601  -0.708  53.959  1.00  0.00     0.170 C 
HETATM   15  O3  UNL     1      23.886  -0.894  55.134  1.00  0.00    -0.391 OA
HETATM   16  C8  UNL     1      22.645  -1.494  54.930  1.00  0.00     0.170 C 
HETATM   17  C9  UNL     1      21.711  -0.625  54.118  1.00  0.00     0.058 C 
ENDBRANCH  11  12
ENDBRANCH   3  11
BRANCH   8  18
HETATM   18  N3  UNL     1      19.521   2.050  51.400  1.00  0.00    -0.352 N 
HETATM   19  H16 UNL     1      19.265   2.950  51.858  1.00  0.00     0.166 HD
BRANCH  18  20
HETATM   20  C13 UNL     1      18.701   0.926  51.739  1.00  0.00     0.100 C 
BRANCH  20  21
HETATM   21  C14 UNL     1      18.238  -0.176  52.253  1.00  0.00     0.199 A 
HETATM   22  C15 UNL     1      17.035  -0.946  52.380  1.00  0.00     0.047 A 
HETATM   23  C16 UNL     1      17.496  -1.960  53.085  1.00  0.00     0.066 A 
HETATM   24  F1  UNL     1      18.751  -1.440  53.113  1.00  0.00    -0.360 F 
BRANCH  23  25
HETATM   25  C17 UNL     1      17.566  -3.219  53.832  1.00  0.00     0.180 C 
HETATM   26 CL1  UNL     1      16.564  -4.445  53.072  1.00  0.00    -0.123 Cl
ENDBRANCH  23  25
ENDBRANCH  20  21
ENDBRANCH  18  20
ENDBRANCH   8  18
TORSDOF 7
ENDMDL
MODEL 9
REMARK VINA RESULT:      -5.8      8.388     10.532
REMARK  7 active torsions:
REMARK  status: ('A' for Active; 'I' for Inactive)
REMARK    1  A    between atoms: O1_2  and  C2_3 
REMARK    2  A    between atoms: C4_5  and  O2_6 
REMARK    3  A    between atoms: O2_6  and  C5_7 
REMARK    4  A    between atoms: C12_17  and  N3_18 
REMARK    5  A    between atoms: N3_18  and  C13_19 
REMARK    6  A    between atoms: C13_19  and  C14_20 
REMARK    7  A    between atoms: C16_22  and  C17_24 
ROOT
HETATM    1  C2  UNL     1      26.613   7.534  49.250  1.00  0.00     0.085 A 
HETATM    2  C3  UNL     1      26.758   8.522  50.091  1.00  0.00     0.044 A 
HETATM    3  C4  UNL     1      27.714   9.243  49.278  1.00  0.00     0.192 A 
HETATM    4  C10 UNL     1      27.549   8.119  48.324  1.00  0.00     0.192 A 
HETATM    5  N1  UNL     1      27.105   8.565  47.053  1.00  0.00    -0.254 NA
HETATM    6  C11 UNL     1      27.901   8.148  46.146  1.00  0.00     0.230 A 
HETATM    7  N2  UNL     1      28.965   7.375  46.734  1.00  0.00    -0.226 NA
HETATM    8  C12 UNL     1      28.777   7.345  48.012  1.00  0.00     0.145 A 
ENDROOT
BRANCH   1   9
HETATM    9  O1  UNL     1      26.033   6.312  48.881  1.00  0.00    -0.357 OA
HETATM   10  C1  UNL     1      25.081   5.696  49.759  1.00  0.00     0.209 C 
ENDBRANCH   1   9
BRANCH   3  11
HETATM   11  O2  UNL     1      29.028   9.275  49.746  1.00  0.00    -0.373 OA
BRANCH  11  12
HETATM   12  C5  UNL     1      29.655  10.477  49.493  1.00  0.00     0.126 C 
HETATM   13  C6  UNL     1      28.664  11.418  48.833  1.00  0.00     0.058 C 
HETATM   14  C7  UNL     1      29.338  12.790  48.777  1.00  0.00     0.170 C 
HETATM   15  O3  UNL     1      30.706  12.687  48.986  1.00  0.00    -0.391 OA
HETATM   16  C8  UNL     1      31.309  11.716  48.188  1.00  0.00     0.170 C 
HETATM   17  C9  UNL     1      30.826  10.320  48.514  1.00  0.00     0.058 C 
ENDBRANCH  11  12
ENDBRANCH   3  11
BRANCH   8  18
HETATM   18  N3  UNL     1      29.596   6.690  48.975  1.00  0.00    -0.352 N 
HETATM   19  H16 UNL     1      29.340   6.605  49.981  1.00  0.00     0.166 HD
BRANCH  18  20
HETATM   20  C13 UNL     1      30.846   6.100  48.601  1.00  0.00     0.100 C 
BRANCH  20  21
HETATM   21  C14 UNL     1      31.780   5.268  48.239  1.00  0.00     0.199 A 
HETATM   22  C15 UNL     1      32.008   4.109  47.427  1.00  0.00     0.047 A 
HETATM   23  C16 UNL     1      33.294   3.930  47.656  1.00  0.00     0.066 A 
HETATM   24  F1  UNL     1      33.352   5.005  48.484  1.00  0.00    -0.360 F 
BRANCH  23  25
HETATM   25  C17 UNL     1      34.649   3.372  47.625  1.00  0.00     0.180 C 
HETATM   26 CL1  UNL     1      35.250   3.301  45.976  1.00  0.00    -0.123 Cl
ENDBRANCH  23  25
ENDBRANCH  20  21
ENDBRANCH  18  20
ENDBRANCH   8  18
TORSDOF 7
ENDMDL
