MODEL 1
REMARK VINA RESULT:      -7.0      0.000      0.000
REMARK  5 active torsions:
REMARK  status: ('A' for Active; 'I' for Inactive)
REMARK    1  A    between atoms: C2_2  and  N1_3 
REMARK    2  A    between atoms: N1_3  and  C3_5 
REMARK    3  A    between atoms: C6_8  and  C7_9 
REMARK       I    between atoms: C7_9  and  N2_11 
REMARK    4  A    between atoms: N2_11  and  C8_12 
REMARK    5  A    between atoms: C11_15  and  O2_16 
ROOT
HETATM    1  C7  UNL     1      26.047   4.124  49.581  1.00  0.00     0.256 C 
HETATM    2  O1  UNL     1      24.994   3.635  49.123  1.00  0.00    -0.267 OA
HETATM    3  N2  UNL     1      26.432   3.595  50.821  1.00  0.00    -0.323 N 
HETATM    4  H8  UNL     1      27.283   3.894  51.339  1.00  0.00     0.169 HD
ENDROOT
BRANCH   1   5
HETATM    5  C6  UNL     1      26.842   5.156  48.927  1.00  0.00     0.032 A 
HETATM    6  C5  UNL     1      28.163   5.024  48.554  1.00  0.00     0.019 A 
HETATM    7  C4  UNL     1      28.871   6.031  47.937  1.00  0.00     0.031 A 
HETATM    8  C3  UNL     1      28.202   7.214  47.695  1.00  0.00     0.045 A 
HETATM    9  C16 UNL     1      26.882   7.420  48.040  1.00  0.00     0.031 A 
HETATM   10  C15 UNL     1      26.238   6.365  48.654  1.00  0.00     0.019 A 
BRANCH   8  11
HETATM   11  N1  UNL     1      28.908   8.273  47.060  1.00  0.00    -0.291 N 
HETATM   12 CL1  UNL     1      29.258   8.236  45.358  1.00  0.00     0.013 Cl
BRANCH  11  13
HETATM   13  C2  UNL     1      29.453   9.502  47.583  1.00  0.00     0.139 C 
HETATM   14  C1  UNL     1      29.937   9.364  49.020  1.00  0.00     0.028 C 
ENDBRANCH  11  13
ENDBRANCH   8  11
ENDBRANCH   1   5
BRANCH   3  15
HETATM   15  C8  UNL     1      25.815   2.599  51.625  1.00  0.00     0.035 A 
HETATM   16  C9  UNL     1      24.675   2.742  52.387  1.00  0.00     0.032 A 
HETATM   17  C10 UNL     1      24.193   1.684  53.119  1.00  0.00     0.039 A 
HETATM   18  C11 UNL     1      24.797   0.446  53.141  1.00  0.00     0.068 A 
HETATM   19  C13 UNL     1      25.951   0.323  52.361  1.00  0.00     0.039 A 
HETATM   20  C14 UNL     1      26.467   1.376  51.608  1.00  0.00     0.032 A 
BRANCH  18  21
HETATM   21  O2  UNL     1      24.404  -0.669  53.830  1.00  0.00    -0.356 OA
HETATM   22  C12 UNL     1      23.081  -0.849  54.232  1.00  0.00     0.210 C 
ENDBRANCH  18  21
ENDBRANCH   3  15
TORSDOF 5
ENDMDL
MODEL 2
REMARK VINA RESULT:      -7.0      6.803      9.886
REMARK  5 active torsions:
REMARK  status: ('A' for Active; 'I' for Inactive)
REMARK    1  A    between atoms: C2_2  and  N1_3 
REMARK    2  A    between atoms: N1_3  and  C3_5 
REMARK    3  A    between atoms: C6_8  and  C7_9 
REMARK       I    between atoms: C7_9  and  N2_11 
REMARK    4  A    between atoms: N2_11  and  C8_12 
REMARK    5  A    between atoms: C11_15  and  O2_16 
ROOT
HETATM    1  C7  UNL     1      22.893  -0.188  53.430  1.00  0.00     0.256 C 
HETATM    2  O1  UNL     1      23.300  -0.769  54.457  1.00  0.00    -0.267 OA
HETATM    3  N2  UNL     1      23.889   0.512  52.736  1.00  0.00    -0.323 N 
HETATM    4  H8  UNL     1      23.717   1.050  51.861  1.00  0.00     0.169 HD
ENDROOT
BRANCH   1   5
HETATM    5  C6  UNL     1      21.516  -0.203  52.952  1.00  0.00     0.032 A 
HETATM    6  C5  UNL     1      21.082   0.341  51.762  1.00  0.00     0.019 A 
HETATM    7  C4  UNL     1      19.767   0.301  51.356  1.00  0.00     0.031 A 
HETATM    8  C3  UNL     1      18.866  -0.318  52.198  1.00  0.00     0.045 A 
HETATM    9  C16 UNL     1      19.226  -0.884  53.404  1.00  0.00     0.031 A 
HETATM   10  C15 UNL     1      20.560  -0.805  53.744  1.00  0.00     0.019 A 
BRANCH   8  11
HETATM   11  N1  UNL     1      17.501  -0.375  51.805  1.00  0.00    -0.291 N 
HETATM   12 CL1  UNL     1      17.027  -0.191  50.143  1.00  0.00     0.013 Cl
BRANCH  11  13
HETATM   13  C2  UNL     1      16.295  -0.574  52.574  1.00  0.00     0.139 C 
HETATM   14  C1  UNL     1      15.337  -1.558  51.916  1.00  0.00     0.028 C 
ENDBRANCH  11  13
ENDBRANCH   8  11
ENDBRANCH   1   5
BRANCH   3  15
HETATM   15  C8  UNL     1      25.275   0.658  53.017  1.00  0.00     0.035 A 
HETATM   16  C9  UNL     1      25.885   1.738  53.619  1.00  0.00     0.032 A 
HETATM   17  C10 UNL     1      27.243   1.740  53.828  1.00  0.00     0.039 A 
HETATM   18  C11 UNL     1      28.063   0.694  53.461  1.00  0.00     0.068 A 
HETATM   19  C13 UNL     1      27.422  -0.391  52.853  1.00  0.00     0.039 A 
HETATM   20  C14 UNL     1      26.048  -0.424  52.626  1.00  0.00     0.032 A 
BRANCH  18  21
HETATM   21  O2  UNL     1      29.417   0.592  53.621  1.00  0.00    -0.356 OA
HETATM   22  C12 UNL     1      30.071  -0.637  53.530  1.00  0.00     0.210 C 
ENDBRANCH  18  21
ENDBRANCH   3  15
TORSDOF 5
ENDMDL
MODEL 3
REMARK VINA RESULT:      -6.8      6.048      8.114
REMARK  5 active torsions:
REMARK  status: ('A' for Active; 'I' for Inactive)
REMARK    1  A    between atoms: C2_2  and  N1_3 
REMARK    2  A    between atoms: N1_3  and  C3_5 
REMARK    3  A    between atoms: C6_8  and  C7_9 
REMARK       I    between atoms: C7_9  and  N2_11 
REMARK    4  A    between atoms: N2_11  and  C8_12 
REMARK    5  A    between atoms: C11_15  and  O2_16 
ROOT
HETATM    1  C7  UNL     1      22.143   1.158  52.818  1.00  0.00     0.256 C 
HETATM    2  O1  UNL     1      21.503   2.224  52.708  1.00  0.00    -0.267 OA
HETATM    3  N2  UNL     1      21.372   0.004  52.618  1.00  0.00    -0.323 N 
HETATM    4  H8  UNL     1      21.752  -0.963  52.675  1.00  0.00     0.169 HD
ENDROOT
BRANCH   1   5
HETATM    5  C6  UNL     1      23.564   1.066  53.127  1.00  0.00     0.032 A 
HETATM    6  C5  UNL     1      24.237  -0.098  53.431  1.00  0.00     0.019 A 
HETATM    7  C4  UNL     1      25.584  -0.132  53.715  1.00  0.00     0.031 A 
HETATM    8  C3  UNL     1      26.264   1.069  53.688  1.00  0.00     0.045 A 
HETATM    9  C16 UNL     1      25.658   2.273  53.393  1.00  0.00     0.031 A 
HETATM   10  C15 UNL     1      24.307   2.229  53.118  1.00  0.00     0.019 A 
BRANCH   8  11
HETATM   11  N1  UNL     1      27.656   1.066  53.979  1.00  0.00    -0.291 N 
HETATM   12 CL1  UNL     1      28.655   2.449  53.646  1.00  0.00     0.013 Cl
BRANCH  11  13
HETATM   13  C2  UNL     1      28.507   0.052  54.553  1.00  0.00     0.139 C 
HETATM   14  C1  UNL     1      29.689  -0.297  53.658  1.00  0.00     0.028 C 
ENDBRANCH  11  13
ENDBRANCH   8  11
ENDBRANCH   1   5
BRANCH   3  15
HETATM   15  C8  UNL     1      19.991  -0.136  52.311  1.00  0.00     0.035 A 
HETATM   16  C9  UNL     1      19.022  -0.700  53.113  1.00  0.00     0.032 A 
HETATM   17  C10 UNL     1      17.719  -0.768  52.681  1.00  0.00     0.039 A 
HETATM   18  C11 UNL     1      17.306  -0.292  51.455  1.00  0.00     0.068 A 
HETATM   19  C13 UNL     1      18.306   0.276  50.660  1.00  0.00     0.039 A 
HETATM   20  C14 UNL     1      19.636   0.360  51.067  1.00  0.00     0.032 A 
BRANCH  18  21
HETATM   21  O2  UNL     1      16.043  -0.309  50.929  1.00  0.00    -0.356 OA
HETATM   22  C12 UNL     1      15.031  -1.089  51.488  1.00  0.00     0.210 C 
ENDBRANCH  18  21
ENDBRANCH   3  15
TORSDOF 5
ENDMDL
MODEL 4
REMARK VINA RESULT:      -6.8      4.071      9.130
REMARK  5 active torsions:
REMARK  status: ('A' for Active; 'I' for Inactive)
REMARK    1  A    between atoms: C2_2  and  N1_3 
REMARK    2  A    between atoms: N1_3  and  C3_5 
REMARK    3  A    between atoms: C6_8  and  C7_9 
REMARK       I    between atoms: C7_9  and  N2_11 
REMARK    4  A    between atoms: N2_11  and  C8_12 
REMARK    5  A    between atoms: C11_15  and  O2_16 
ROOT
HETATM    1  C7  UNL     1      26.246   2.636  51.398  1.00  0.00     0.256 C 
HETATM    2  O1  UNL     1      27.479   2.770  51.536  1.00  0.00    -0.267 OA
HETATM    3  N2  UNL     1      25.671   3.535  50.490  1.00  0.00    -0.323 N 
HETATM    4  H8  UNL     1      24.655   3.557  50.261  1.00  0.00     0.169 HD
ENDROOT
BRANCH   1   5
HETATM    5  C6  UNL     1      25.430   1.649  52.095  1.00  0.00     0.032 A 
HETATM    6  C5  UNL     1      25.852   0.392  52.472  1.00  0.00     0.019 A 
HETATM    7  C4  UNL     1      25.039  -0.504  53.130  1.00  0.00     0.031 A 
HETATM    8  C3  UNL     1      23.750  -0.097  53.410  1.00  0.00     0.045 A 
HETATM    9  C16 UNL     1      23.257   1.144  53.063  1.00  0.00     0.031 A 
HETATM   10  C15 UNL     1      24.129   1.988  52.407  1.00  0.00     0.019 A 
BRANCH   8  11
HETATM   11  N1  UNL     1      22.888  -1.002  54.088  1.00  0.00    -0.291 N 
HETATM   12 CL1  UNL     1      23.203  -1.504  55.722  1.00  0.00     0.013 Cl
BRANCH  11  13
HETATM   13  C2  UNL     1      21.677  -1.663  53.664  1.00  0.00     0.139 C 
HETATM   14  C1  UNL     1      20.432  -0.822  53.916  1.00  0.00     0.028 C 
ENDBRANCH  11  13
ENDBRANCH   8  11
ENDBRANCH   1   5
BRANCH   3  15
HETATM   15  C8  UNL     1      26.269   4.563  49.711  1.00  0.00     0.035 A 
HETATM   16  C9  UNL     1      27.398   4.455  48.929  1.00  0.00     0.032 A 
HETATM   17  C10 UNL     1      27.864   5.541  48.228  1.00  0.00     0.039 A 
HETATM   18  C11 UNL     1      27.251   6.775  48.257  1.00  0.00     0.068 A 
HETATM   19  C13 UNL     1      26.106   6.862  49.056  1.00  0.00     0.039 A 
HETATM   20  C14 UNL     1      25.609   5.780  49.781  1.00  0.00     0.032 A 
BRANCH  18  21
HETATM   21  O2  UNL     1      27.626   7.916  47.602  1.00  0.00    -0.356 OA
HETATM   22  C12 UNL     1      27.400   9.179  48.150  1.00  0.00     0.210 C 
ENDBRANCH  18  21
ENDBRANCH   3  15
TORSDOF 5
ENDMDL
MODEL 5
REMARK VINA RESULT:      -6.7      2.106      2.846
REMARK  5 active torsions:
REMARK  status: ('A' for Active; 'I' for Inactive)
REMARK    1  A    between atoms: C2_2  and  N1_3 
REMARK    2  A    between atoms: N1_3  and  C3_5 
REMARK    3  A    between atoms: C6_8  and  C7_9 
REMARK       I    between atoms: C7_9  and  N2_11 
REMARK    4  A    between atoms: N2_11  and  C8_12 
REMARK    5  A    between atoms: C11_15  and  O2_16 
ROOT
HETATM    1  C7  UNL     1      24.155   3.915  50.333  1.00  0.00     0.256 C 
HETATM    2  O1  UNL     1      23.101   4.457  50.721  1.00  0.00    -0.267 OA
HETATM    3  N2  UNL     1      24.207   2.533  50.567  1.00  0.00    -0.323 N 
HETATM    4  H8  UNL     1      25.015   1.931  50.305  1.00  0.00     0.169 HD
ENDROOT
BRANCH   1   5
HETATM    5  C6  UNL     1      25.265   4.608  49.691  1.00  0.00     0.032 A 
HETATM    6  C5  UNL     1      25.259   5.932  49.306  1.00  0.00     0.019 A 
HETATM    7  C4  UNL     1      26.336   6.540  48.702  1.00  0.00     0.031 A 
HETATM    8  C3  UNL     1      27.457   5.765  48.485  1.00  0.00     0.045 A 
HETATM    9  C16 UNL     1      27.537   4.435  48.841  1.00  0.00     0.031 A 
HETATM   10  C15 UNL     1      26.419   3.894  49.443  1.00  0.00     0.019 A 
BRANCH   8  11
HETATM   11  N1  UNL     1      28.585   6.367  47.861  1.00  0.00    -0.291 N 
HETATM   12 CL1  UNL     1      28.412   7.726  46.791  1.00  0.00     0.013 Cl
BRANCH  11  13
HETATM   13  C2  UNL     1      29.993   6.057  47.936  1.00  0.00     0.139 C 
HETATM   14  C1  UNL     1      30.837   6.947  47.032  1.00  0.00     0.028 C 
ENDBRANCH  11  13
ENDBRANCH   8  11
ENDBRANCH   1   5
BRANCH   3  15
HETATM   15  C8  UNL     1      23.254   1.667  51.168  1.00  0.00     0.035 A 
HETATM   16  C9  UNL     1      22.097   1.188  50.594  1.00  0.00     0.032 A 
HETATM   17  C10 UNL     1      21.265   0.353  51.301  1.00  0.00     0.039 A 
HETATM   18  C11 UNL     1      21.525  -0.051  52.593  1.00  0.00     0.068 A 
HETATM   19  C13 UNL     1      22.705   0.447  53.155  1.00  0.00     0.039 A 
HETATM   20  C14 UNL     1      23.569   1.296  52.466  1.00  0.00     0.032 A 
BRANCH  18  21
HETATM   21  O2  UNL     1      20.772  -0.874  53.384  1.00  0.00    -0.356 OA
HETATM   22  C12 UNL     1      21.345  -1.620  54.414  1.00  0.00     0.210 C 
ENDBRANCH  18  21
ENDBRANCH   3  15
TORSDOF 5
ENDMDL
MODEL 6
REMARK VINA RESULT:      -6.6      4.248      8.302
REMARK  5 active torsions:
REMARK  status: ('A' for Active; 'I' for Inactive)
REMARK    1  A    between atoms: C2_2  and  N1_3 
REMARK    2  A    between atoms: N1_3  and  C3_5 
REMARK    3  A    between atoms: C6_8  and  C7_9 
REMARK       I    between atoms: C7_9  and  N2_11 
REMARK    4  A    between atoms: N2_11  and  C8_12 
REMARK    5  A    between atoms: C11_15  and  O2_16 
ROOT
HETATM    1  C7  UNL     1      28.549   6.251  48.235  1.00  0.00     0.256 C 
HETATM    2  O1  UNL     1      28.781   6.912  47.202  1.00  0.00    -0.267 OA
HETATM    3  N2  UNL     1      29.667   6.070  49.062  1.00  0.00    -0.323 N 
HETATM    4  H8  UNL     1      29.645   5.543  49.959  1.00  0.00     0.169 HD
ENDROOT
BRANCH   1   5
HETATM    5  C6  UNL     1      27.252   5.694  48.597  1.00  0.00     0.032 A 
HETATM    6  C5  UNL     1      26.050   6.364  48.522  1.00  0.00     0.019 A 
HETATM    7  C4  UNL     1      24.849   5.790  48.877  1.00  0.00     0.031 A 
HETATM    8  C3  UNL     1      24.883   4.485  49.323  1.00  0.00     0.045 A 
HETATM    9  C16 UNL     1      26.046   3.751  49.426  1.00  0.00     0.031 A 
HETATM   10  C15 UNL     1      27.210   4.392  49.053  1.00  0.00     0.019 A 
BRANCH   8  11
HETATM   11  N1  UNL     1      23.658   3.866  49.698  1.00  0.00    -0.291 N 
HETATM   12 CL1  UNL     1      22.972   2.573  48.761  1.00  0.00     0.013 Cl
BRANCH  11  13
HETATM   13  C2  UNL     1      22.768   4.109  50.808  1.00  0.00     0.139 C 
HETATM   14  C1  UNL     1      23.511   4.284  52.126  1.00  0.00     0.028 C 
ENDBRANCH  11  13
ENDBRANCH   8  11
ENDBRANCH   1   5
BRANCH   3  15
HETATM   15  C8  UNL     1      31.007   6.519  48.906  1.00  0.00     0.035 A 
HETATM   16  C9  UNL     1      31.449   7.824  48.945  1.00  0.00     0.032 A 
HETATM   17  C10 UNL     1      32.782   8.110  48.777  1.00  0.00     0.039 A 
HETATM   18  C11 UNL     1      33.739   7.140  48.566  1.00  0.00     0.068 A 
HETATM   19  C13 UNL     1      33.268   5.824  48.531  1.00  0.00     0.039 A 
HETATM   20  C14 UNL     1      31.923   5.501  48.697  1.00  0.00     0.032 A 
BRANCH  18  21
HETATM   21  O2  UNL     1      35.085   7.312  48.388  1.00  0.00    -0.356 OA
HETATM   22  C12 UNL     1      36.010   6.401  48.898  1.00  0.00     0.210 C 
ENDBRANCH  18  21
ENDBRANCH   3  15
TORSDOF 5
ENDMDL
MODEL 7
REMARK VINA RESULT:      -6.5      1.375      2.156
REMARK  5 active torsions:
REMARK  status: ('A' for Active; 'I' for Inactive)
REMARK    1  A    between atoms: C2_2  and  N1_3 
REMARK    2  A    between atoms: N1_3  and  C3_5 
REMARK    3  A    between atoms: C6_8  and  C7_9 
REMARK       I    between atoms: C7_9  and  N2_11 
REMARK    4  A    between atoms: N2_11  and  C8_12 
REMARK    5  A    between atoms: C11_15  and  O2_16 
ROOT
HETATM    1  C7  UNL     1      25.465   3.881  49.786  1.00  0.00     0.256 C 
HETATM    2  O1  UNL     1      24.682   3.213  49.080  1.00  0.00    -0.267 OA
HETATM    3  N2  UNL     1      25.463   3.520  51.141  1.00  0.00    -0.323 N 
HETATM    4  H8  UNL     1      26.056   3.977  51.864  1.00  0.00     0.169 HD
ENDROOT
BRANCH   1   5
HETATM    5  C6  UNL     1      26.324   4.952  49.298  1.00  0.00     0.032 A 
HETATM    6  C5  UNL     1      26.007   6.294  49.310  1.00  0.00     0.019 A 
HETATM    7  C4  UNL     1      26.856   7.268  48.836  1.00  0.00     0.031 A 
HETATM    8  C3  UNL     1      28.072   6.853  48.333  1.00  0.00     0.045 A 
HETATM    9  C16 UNL     1      28.459   5.529  48.288  1.00  0.00     0.031 A 
HETATM   10  C15 UNL     1      27.557   4.610  48.781  1.00  0.00     0.019 A 
BRANCH   8  11
HETATM   11  N1  UNL     1      28.970   7.837  47.835  1.00  0.00    -0.291 N 
HETATM   12 CL1  UNL     1      30.599   7.963  48.431  1.00  0.00     0.013 Cl
BRANCH  11  13
HETATM   13  C2  UNL     1      28.801   8.863  46.834  1.00  0.00     0.139 C 
HETATM   14  C1  UNL     1      28.361   8.301  45.488  1.00  0.00     0.028 C 
ENDBRANCH  11  13
ENDBRANCH   8  11
ENDBRANCH   1   5
BRANCH   3  15
HETATM   15  C8  UNL     1      24.717   2.521  51.824  1.00  0.00     0.035 A 
HETATM   16  C9  UNL     1      25.157   1.265  52.185  1.00  0.00     0.032 A 
HETATM   17  C10 UNL     1      24.318   0.400  52.845  1.00  0.00     0.039 A 
HETATM   18  C11 UNL     1      23.020   0.719  53.182  1.00  0.00     0.068 A 
HETATM   19  C13 UNL     1      22.596   1.997  52.807  1.00  0.00     0.039 A 
HETATM   20  C14 UNL     1      23.420   2.898  52.136  1.00  0.00     0.032 A 
BRANCH  18  21
HETATM   21  O2  UNL     1      22.106  -0.061  53.835  1.00  0.00    -0.356 OA
HETATM   22  C12 UNL     1      22.502  -1.120  54.652  1.00  0.00     0.210 C 
ENDBRANCH  18  21
ENDBRANCH   3  15
TORSDOF 5
ENDMDL
MODEL 8
REMARK VINA RESULT:      -6.4      3.737      8.734
REMARK  5 active torsions:
REMARK  status: ('A' for Active; 'I' for Inactive)
REMARK    1  A    between atoms: C2_2  and  N1_3 
REMARK    2  A    between atoms: N1_3  and  C3_5 
REMARK    3  A    between atoms: C6_8  and  C7_9 
REMARK       I    between atoms: C7_9  and  N2_11 
REMARK    4  A    between atoms: N2_11  and  C8_12 
REMARK    5  A    between atoms: C11_15  and  O2_16 
ROOT
HETATM    1  C7  UNL     1      25.940   4.372  49.505  1.00  0.00     0.256 C 
HETATM    2  O1  UNL     1      25.082   5.024  48.877  1.00  0.00    -0.267 OA
HETATM    3  N2  UNL     1      27.256   4.811  49.300  1.00  0.00    -0.323 N 
HETATM    4  H8  UNL     1      28.088   4.376  49.749  1.00  0.00     0.169 HD
ENDROOT
BRANCH   1   5
HETATM    5  C6  UNL     1      25.654   3.247  50.387  1.00  0.00     0.032 A 
HETATM    6  C5  UNL     1      24.408   2.696  50.594  1.00  0.00     0.019 A 
HETATM    7  C4  UNL     1      24.192   1.630  51.439  1.00  0.00     0.031 A 
HETATM    8  C3  UNL     1      25.291   1.113  52.094  1.00  0.00     0.045 A 
HETATM    9  C16 UNL     1      26.568   1.612  51.938  1.00  0.00     0.031 A 
HETATM   10  C15 UNL     1      26.707   2.679  51.075  1.00  0.00     0.019 A 
BRANCH   8  11
HETATM   11  N1  UNL     1      25.098   0.012  52.974  1.00  0.00    -0.291 N 
HETATM   12 CL1  UNL     1      23.516  -0.424  53.546  1.00  0.00     0.013 Cl
BRANCH  11  13
HETATM   13  C2  UNL     1      26.035  -0.919  53.554  1.00  0.00     0.139 C 
HETATM   14  C1  UNL     1      26.699  -1.809  52.511  1.00  0.00     0.028 C 
ENDBRANCH  11  13
ENDBRANCH   8  11
ENDBRANCH   1   5
BRANCH   3  15
HETATM   15  C8  UNL     1      27.755   5.871  48.496  1.00  0.00     0.035 A 
HETATM   16  C9  UNL     1      27.052   6.968  48.047  1.00  0.00     0.032 A 
HETATM   17  C10 UNL     1      27.670   7.919  47.272  1.00  0.00     0.039 A 
HETATM   18  C11 UNL     1      28.996   7.844  46.903  1.00  0.00     0.068 A 
HETATM   19  C13 UNL     1      29.691   6.724  47.371  1.00  0.00     0.039 A 
HETATM   20  C14 UNL     1      29.093   5.741  48.157  1.00  0.00     0.032 A 
BRANCH  18  21
HETATM   21  O2  UNL     1      29.708   8.729  46.140  1.00  0.00    -0.356 OA
HETATM   22  C12 UNL     1      29.460   8.878  44.776  1.00  0.00     0.210 C 
ENDBRANCH  18  21
ENDBRANCH   3  15
TORSDOF 5
ENDMDL
MODEL 9
REMARK VINA RESULT:      -6.2      4.040      8.996
REMARK  5 active torsions:
REMARK  status: ('A' for Active; 'I' for Inactive)
REMARK    1  A    between atoms: C2_2  and  N1_3 
REMARK    2  A    between atoms: N1_3  and  C3_5 
REMARK    3  A    between atoms: C6_8  and  C7_9 
REMARK       I    between atoms: C7_9  and  N2_11 
REMARK    4  A    between atoms: N2_11  and  C8_12 
REMARK    5  A    between atoms: C11_15  and  O2_16 
ROOT
HETATM    1  C7  UNL     1      24.349   3.771  49.673  1.00  0.00     0.256 C 
HETATM    2  O1  UNL     1      23.900   4.283  48.627  1.00  0.00    -0.267 OA
HETATM    3  N2  UNL     1      25.622   4.233  50.036  1.00  0.00    -0.323 N 
HETATM    4  H8  UNL     1      26.138   3.907  50.879  1.00  0.00     0.169 HD
ENDROOT
BRANCH   1   5
HETATM    5  C6  UNL     1      23.654   2.776  50.481  1.00  0.00     0.032 A 
HETATM    6  C5  UNL     1      23.948   2.473  51.794  1.00  0.00     0.019 A 
HETATM    7  C4  UNL     1      23.260   1.523  52.515  1.00  0.00     0.031 A 
HETATM    8  C3  UNL     1      22.236   0.861  51.868  1.00  0.00     0.045 A 
HETATM    9  C16 UNL     1      21.885   1.110  50.557  1.00  0.00     0.031 A 
HETATM   10  C15 UNL     1      22.619   2.075  49.899  1.00  0.00     0.019 A 
BRANCH   8  11
HETATM   11  N1  UNL     1      21.508  -0.126  52.587  1.00  0.00    -0.291 N 
HETATM   12 CL1  UNL     1      19.770  -0.162  52.571  1.00  0.00     0.013 Cl
BRANCH  11  13
HETATM   13  C2  UNL     1      21.950  -1.222  53.415  1.00  0.00     0.139 C 
HETATM   14  C1  UNL     1      21.704  -0.973  54.897  1.00  0.00     0.028 C 
ENDBRANCH  11  13
ENDBRANCH   8  11
ENDBRANCH   1   5
BRANCH   3  15
HETATM   15  C8  UNL     1      26.468   5.184  49.404  1.00  0.00     0.035 A 
HETATM   16  C9  UNL     1      27.599   4.918  48.662  1.00  0.00     0.032 A 
HETATM   17  C10 UNL     1      28.323   5.947  48.108  1.00  0.00     0.039 A 
HETATM   18  C11 UNL     1      27.977   7.273  48.252  1.00  0.00     0.068 A 
HETATM   19  C13 UNL     1      26.827   7.520  49.007  1.00  0.00     0.039 A 
HETATM   20  C14 UNL     1      26.071   6.500  49.583  1.00  0.00     0.032 A 
BRANCH  18  21
HETATM   21  O2  UNL     1      28.622   8.369  47.746  1.00  0.00    -0.356 OA
HETATM   22  C12 UNL     1      29.976   8.596  47.992  1.00  0.00     0.210 C 
ENDBRANCH  18  21
ENDBRANCH   3  15
TORSDOF 5
ENDMDL
