MODEL 1
REMARK VINA RESULT:      -7.7      0.000      0.000
REMARK  4 active torsions:
REMARK  status: ('A' for Active; 'I' for Inactive)
REMARK    1  A    between atoms: C2_2  and  C3_3 
REMARK    2  A    between atoms: C4_4  and  C5_5 
REMARK    3  A    between atoms: C8_8  and  C9_9 
REMARK    4  A    between atoms: C15_17  and  N1_18 
ROOT
HETATM    1  C5  UNL     1      21.425  -0.034  53.559  1.00  0.00    -0.033 C 
HETATM    2  C6  UNL     1      22.470  -0.601  54.185  1.00  0.00    -0.014 C 
HETATM    3  C7  UNL     1      23.902  -0.211  54.248  1.00  0.00     0.044 C 
HETATM    4  C8  UNL     1      24.643  -0.286  52.954  1.00  0.00     0.079 C 
HETATM    5  C15 UNL     1      24.440   1.002  52.184  1.00  0.00     0.053 C 
HETATM    6  S1  UNL     1      22.931   1.661  51.961  1.00  0.00    -0.088 SA
HETATM    7  C16 UNL     1      21.531   1.201  52.739  1.00  0.00     0.062 C 
ENDROOT
BRANCH   4   8
HETATM    8  C9  UNL     1      26.054  -0.630  53.079  1.00  0.00    -0.046 A 
HETATM    9  C10 UNL     1      26.714  -1.734  52.581  1.00  0.00     0.010 A 
HETATM   10  C11 UNL     1      28.083  -1.879  52.815  1.00  0.00     0.026 A 
HETATM   11  C12 UNL     1      28.773  -0.927  53.537  1.00  0.00     0.055 A 
HETATM   12 CL1  UNL     1      30.483  -1.107  53.828  1.00  0.00    -0.083 Cl
HETATM   13  C13 UNL     1      28.141   0.188  54.048  1.00  0.00     0.056 A 
HETATM   14 CL2  UNL     1      29.046   1.372  54.959  1.00  0.00    -0.083 Cl
HETATM   15  C14 UNL     1      26.773   0.322  53.810  1.00  0.00     0.033 A 
ENDBRANCH   4   8
BRANCH   5  16
HETATM   16  N1  UNL     1      25.474   1.775  51.581  1.00  0.00    -0.396 N 
HETATM   17  H13 UNL     1      25.561   2.554  50.873  1.00  0.00     0.156 HD
HETATM   18  H14 UNL     1      26.444   1.535  51.905  1.00  0.00     0.156 HD
ENDBRANCH   5  16
BRANCH   1  19
HETATM   19  C4  UNL     1      20.115  -0.673  53.695  1.00  0.00     0.011 C 
HETATM   20  C3  UNL     1      19.116  -0.574  52.872  1.00  0.00     0.000 C 
BRANCH  20  21
HETATM   21  C2  UNL     1      17.836  -1.268  53.116  1.00  0.00    -0.010 C 
HETATM   22  C1  UNL     1      17.792  -2.531  53.457  1.00  0.00     0.011 C 
ENDBRANCH  20  21
ENDBRANCH   1  19
TORSDOF 4
ENDMDL
MODEL 2
REMARK VINA RESULT:      -7.7      4.790      7.818
REMARK  4 active torsions:
REMARK  status: ('A' for Active; 'I' for Inactive)
REMARK    1  A    between atoms: C2_2  and  C3_3 
REMARK    2  A    between atoms: C4_4  and  C5_5 
REMARK    3  A    between atoms: C8_8  and  C9_9 
REMARK    4  A    between atoms: C15_17  and  N1_18 
ROOT
HETATM    1  C5  UNL     1      26.147   4.750  49.358  1.00  0.00    -0.033 C 
HETATM    2  C6  UNL     1      25.744   3.468  49.340  1.00  0.00    -0.014 C 
HETATM    3  C7  UNL     1      24.482   2.833  49.801  1.00  0.00     0.044 C 
HETATM    4  C8  UNL     1      24.241   2.883  51.274  1.00  0.00     0.079 C 
HETATM    5  C15 UNL     1      23.580   4.198  51.630  1.00  0.00     0.053 C 
HETATM    6  S1  UNL     1      24.168   5.652  51.080  1.00  0.00    -0.088 SA
HETATM    7  C16 UNL     1      25.323   5.863  49.897  1.00  0.00     0.062 C 
ENDROOT
BRANCH   4   8
HETATM    8  C9  UNL     1      23.510   1.742  51.810  1.00  0.00    -0.046 A 
HETATM    9  C10 UNL     1      22.277   1.257  51.427  1.00  0.00     0.010 A 
HETATM   10  C11 UNL     1      21.746   0.140  52.075  1.00  0.00     0.026 A 
HETATM   11  C12 UNL     1      22.449  -0.478  53.089  1.00  0.00     0.055 A 
HETATM   12 CL1  UNL     1      21.787  -1.874  53.898  1.00  0.00    -0.083 Cl
HETATM   13  C13 UNL     1      23.684  -0.018  53.495  1.00  0.00     0.056 A 
HETATM   14 CL2  UNL     1      24.544  -0.824  54.784  1.00  0.00    -0.083 Cl
HETATM   15  C14 UNL     1      24.204   1.101  52.842  1.00  0.00     0.033 A 
ENDBRANCH   4   8
BRANCH   5  16
HETATM   16  N1  UNL     1      22.422   4.345  52.447  1.00  0.00    -0.396 N 
HETATM   17  H13 UNL     1      22.171   4.755  53.387  1.00  0.00     0.156 HD
HETATM   18  H14 UNL     1      21.542   3.946  52.033  1.00  0.00     0.156 HD
ENDBRANCH   5  16
BRANCH   1  19
HETATM   19  C4  UNL     1      27.472   5.059  48.818  1.00  0.00     0.011 C 
HETATM   20  C3  UNL     1      27.848   6.182  48.285  1.00  0.00     0.000 C 
BRANCH  20  21
HETATM   21  C2  UNL     1      29.218   6.378  47.772  1.00  0.00    -0.010 C 
HETATM   22  C1  UNL     1      30.135   5.451  47.885  1.00  0.00     0.011 C 
ENDBRANCH  20  21
ENDBRANCH   1  19
TORSDOF 4
ENDMDL
MODEL 3
REMARK VINA RESULT:      -7.6      1.211      1.916
REMARK  4 active torsions:
REMARK  status: ('A' for Active; 'I' for Inactive)
REMARK    1  A    between atoms: C2_2  and  C3_3 
REMARK    2  A    between atoms: C4_4  and  C5_5 
REMARK    3  A    between atoms: C8_8  and  C9_9 
REMARK    4  A    between atoms: C15_17  and  N1_18 
ROOT
HETATM    1  C5  UNL     1      20.440  -0.316  53.360  1.00  0.00    -0.033 C 
HETATM    2  C6  UNL     1      21.520  -0.425  54.152  1.00  0.00    -0.014 C 
HETATM    3  C7  UNL     1      22.802   0.326  54.168  1.00  0.00     0.044 C 
HETATM    4  C8  UNL     1      23.670   0.135  52.968  1.00  0.00     0.079 C 
HETATM    5  C15 UNL     1      23.245   1.101  51.882  1.00  0.00     0.053 C 
HETATM    6  S1  UNL     1      21.654   1.274  51.436  1.00  0.00    -0.088 SA
HETATM    7  C16 UNL     1      20.331   0.669  52.251  1.00  0.00     0.062 C 
ENDROOT
BRANCH   4   8
HETATM    8  C9  UNL     1      25.101   0.208  53.234  1.00  0.00    -0.046 A 
HETATM    9  C10 UNL     1      25.826   1.267  53.740  1.00  0.00     0.010 A 
HETATM   10  C11 UNL     1      27.204   1.132  53.921  1.00  0.00     0.026 A 
HETATM   11  C12 UNL     1      27.838  -0.050  53.600  1.00  0.00     0.055 A 
HETATM   12 CL1  UNL     1      29.559  -0.219  53.827  1.00  0.00    -0.083 Cl
HETATM   13  C13 UNL     1      27.141  -1.127  53.092  1.00  0.00     0.056 A 
HETATM   14 CL2  UNL     1      27.978  -2.608  52.694  1.00  0.00    -0.083 Cl
HETATM   15  C14 UNL     1      25.765  -0.981  52.913  1.00  0.00     0.033 A 
ENDBRANCH   4   8
BRANCH   5  16
HETATM   16  N1  UNL     1      24.120   1.945  51.140  1.00  0.00    -0.396 N 
HETATM   17  H13 UNL     1      24.999   2.506  51.308  1.00  0.00     0.156 HD
HETATM   18  H14 UNL     1      23.854   2.074  50.132  1.00  0.00     0.156 HD
ENDBRANCH   5  16
BRANCH   1  19
HETATM   19  C4  UNL     1      19.315  -1.219  53.606  1.00  0.00     0.011 C 
HETATM   20  C3  UNL     1      18.208  -1.279  52.930  1.00  0.00     0.000 C 
BRANCH  20  21
HETATM   21  C2  UNL     1      17.138  -2.236  53.273  1.00  0.00    -0.010 C 
HETATM   22  C1  UNL     1      17.399  -3.487  53.556  1.00  0.00     0.011 C 
ENDBRANCH  20  21
ENDBRANCH   1  19
TORSDOF 4
ENDMDL
MODEL 4
REMARK VINA RESULT:      -7.5      1.806      2.567
REMARK  4 active torsions:
REMARK  status: ('A' for Active; 'I' for Inactive)
REMARK    1  A    between atoms: C2_2  and  C3_3 
REMARK    2  A    between atoms: C4_4  and  C5_5 
REMARK    3  A    between atoms: C8_8  and  C9_9 
REMARK    4  A    between atoms: C15_17  and  N1_18 
ROOT
HETATM    1  C5  UNL     1      21.846   1.844  51.599  1.00  0.00    -0.033 C 
HETATM    2  C6  UNL     1      22.632   1.212  52.487  1.00  0.00    -0.014 C 
HETATM    3  C7  UNL     1      24.003   1.518  52.972  1.00  0.00     0.044 C 
HETATM    4  C8  UNL     1      25.083   1.411  51.947  1.00  0.00     0.079 C 
HETATM    5  C15 UNL     1      25.181   2.715  51.183  1.00  0.00     0.053 C 
HETATM    6  S1  UNL     1      23.840   3.462  50.548  1.00  0.00    -0.088 SA
HETATM    7  C16 UNL     1      22.251   3.077  50.876  1.00  0.00     0.062 C 
ENDROOT
BRANCH   4   8
HETATM    8  C9  UNL     1      26.376   0.985  52.468  1.00  0.00    -0.046 A 
HETATM    9  C10 UNL     1      27.384   1.762  52.999  1.00  0.00     0.010 A 
HETATM   10  C11 UNL     1      28.559   1.152  53.446  1.00  0.00     0.026 A 
HETATM   11  C12 UNL     1      28.711  -0.216  53.360  1.00  0.00     0.055 A 
HETATM   12 CL1  UNL     1      30.177  -0.978  53.919  1.00  0.00    -0.083 Cl
HETATM   13  C13 UNL     1      27.721  -1.021  52.833  1.00  0.00     0.056 A 
HETATM   14 CL2  UNL     1      27.950  -2.749  52.738  1.00  0.00    -0.083 Cl
HETATM   15  C14 UNL     1      26.553  -0.400  52.388  1.00  0.00     0.033 A 
ENDBRANCH   4   8
BRANCH   5  16
HETATM   16  N1  UNL     1      26.385   3.432  50.925  1.00  0.00    -0.396 N 
HETATM   17  H13 UNL     1      27.361   3.227  50.578  1.00  0.00     0.156 HD
HETATM   18  H14 UNL     1      26.332   4.462  51.122  1.00  0.00     0.156 HD
ENDBRANCH   5  16
BRANCH   1  19
HETATM   19  C4  UNL     1      20.521   1.281  51.334  1.00  0.00     0.011 C 
HETATM   20  C3  UNL     1      19.931   0.340  52.005  1.00  0.00     0.000 C 
BRANCH  20  21
HETATM   21  C2  UNL     1      18.586  -0.149  51.641  1.00  0.00    -0.010 C 
HETATM   22  C1  UNL     1      17.977   0.257  50.556  1.00  0.00     0.011 C 
ENDBRANCH  20  21
ENDBRANCH   1  19
TORSDOF 4
ENDMDL
MODEL 5
REMARK VINA RESULT:      -7.5      4.638      8.130
REMARK  4 active torsions:
REMARK  status: ('A' for Active; 'I' for Inactive)
REMARK    1  A    between atoms: C2_2  and  C3_3 
REMARK    2  A    between atoms: C4_4  and  C5_5 
REMARK    3  A    between atoms: C8_8  and  C9_9 
REMARK    4  A    between atoms: C15_17  and  N1_18 
ROOT
HETATM    1  C5  UNL     1      25.091  -0.309  53.548  1.00  0.00    -0.033 C 
HETATM    2  C6  UNL     1      24.515   0.689  52.858  1.00  0.00    -0.014 C 
HETATM    3  C7  UNL     1      23.221   1.394  53.052  1.00  0.00     0.044 C 
HETATM    4  C8  UNL     1      22.000   0.558  52.853  1.00  0.00     0.079 C 
HETATM    5  C15 UNL     1      21.673  -0.168  54.141  1.00  0.00     0.053 C 
HETATM    6  S1  UNL     1      22.827  -1.006  54.993  1.00  0.00    -0.088 SA
HETATM    7  C16 UNL     1      24.474  -0.945  54.741  1.00  0.00     0.062 C 
ENDROOT
BRANCH   4   8
HETATM    8  C9  UNL     1      20.849   1.278  52.324  1.00  0.00    -0.046 A 
HETATM    9  C10 UNL     1      20.556   2.622  52.430  1.00  0.00     0.010 A 
HETATM   10  C11 UNL     1      19.389   3.119  51.847  1.00  0.00     0.026 A 
HETATM   11  C12 UNL     1      18.535   2.275  51.167  1.00  0.00     0.055 A 
HETATM   12 CL1  UNL     1      17.077   2.895  50.437  1.00  0.00    -0.083 Cl
HETATM   13  C13 UNL     1      18.799   0.927  51.043  1.00  0.00     0.056 A 
HETATM   14 CL2  UNL     1      17.694  -0.111  50.177  1.00  0.00    -0.083 Cl
HETATM   15  C14 UNL     1      19.968   0.441  51.632  1.00  0.00     0.033 A 
ENDBRANCH   4   8
BRANCH   5  16
HETATM   16  N1  UNL     1      20.388  -0.219  54.756  1.00  0.00    -0.396 N 
HETATM   17  H13 UNL     1      19.542   0.403  54.859  1.00  0.00     0.156 HD
HETATM   18  H14 UNL     1      20.181  -1.117  55.261  1.00  0.00     0.156 HD
ENDBRANCH   5  16
BRANCH   1  19
HETATM   19  C4  UNL     1      26.397  -0.792  53.095  1.00  0.00     0.011 C 
HETATM   20  C3  UNL     1      27.533  -0.637  53.703  1.00  0.00     0.000 C 
BRANCH  20  21
HETATM   21  C2  UNL     1      28.791  -1.171  53.145  1.00  0.00    -0.010 C 
HETATM   22  C1  UNL     1      29.960  -0.750  53.558  1.00  0.00     0.011 C 
ENDBRANCH  20  21
ENDBRANCH   1  19
TORSDOF 4
ENDMDL
MODEL 6
REMARK VINA RESULT:      -7.5      5.729      8.729
REMARK  4 active torsions:
REMARK  status: ('A' for Active; 'I' for Inactive)
REMARK    1  A    between atoms: C2_2  and  C3_3 
REMARK    2  A    between atoms: C4_4  and  C5_5 
REMARK    3  A    between atoms: C8_8  and  C9_9 
REMARK    4  A    between atoms: C15_17  and  N1_18 
ROOT
HETATM    1  C5  UNL     1      26.699   6.016  48.912  1.00  0.00    -0.033 C 
HETATM    2  C6  UNL     1      26.363   4.717  48.979  1.00  0.00    -0.014 C 
HETATM    3  C7  UNL     1      25.131   4.049  49.473  1.00  0.00     0.044 C 
HETATM    4  C8  UNL     1      24.871   4.187  50.937  1.00  0.00     0.079 C 
HETATM    5  C15 UNL     1      24.138   5.487  51.196  1.00  0.00     0.053 C 
HETATM    6  S1  UNL     1      24.655   6.928  50.552  1.00  0.00    -0.088 SA
HETATM    7  C16 UNL     1      25.811   7.118  49.366  1.00  0.00     0.062 C 
ENDROOT
BRANCH   4   8
HETATM    8  C9  UNL     1      24.195   3.048  51.545  1.00  0.00    -0.046 A 
HETATM    9  C10 UNL     1      24.363   2.527  52.811  1.00  0.00     0.010 A 
HETATM   10  C11 UNL     1      23.610   1.419  53.204  1.00  0.00     0.026 A 
HETATM   11  C12 UNL     1      22.702   0.849  52.335  1.00  0.00     0.055 A 
HETATM   12 CL1  UNL     1      21.760  -0.535  52.826  1.00  0.00    -0.083 Cl
HETATM   13  C13 UNL     1      22.510   1.346  51.063  1.00  0.00     0.056 A 
HETATM   14 CL2  UNL     1      21.353   0.598  49.990  1.00  0.00    -0.083 Cl
HETATM   15  C14 UNL     1      23.270   2.453  50.681  1.00  0.00     0.033 A 
ENDBRANCH   4   8
BRANCH   5  16
HETATM   16  N1  UNL     1      22.964   5.627  51.991  1.00  0.00    -0.396 N 
HETATM   17  H13 UNL     1      22.651   6.173  52.839  1.00  0.00     0.156 HD
HETATM   18  H14 UNL     1      22.152   5.037  51.680  1.00  0.00     0.156 HD
ENDBRANCH   5  16
BRANCH   1  19
HETATM   19  C4  UNL     1      28.012   6.358  48.362  1.00  0.00     0.011 C 
HETATM   20  C3  UNL     1      29.034   5.567  48.251  1.00  0.00     0.000 C 
BRANCH  20  21
HETATM   21  C2  UNL     1      30.314   6.027  47.677  1.00  0.00    -0.010 C 
HETATM   22  C1  UNL     1      31.360   5.242  47.612  1.00  0.00     0.011 C 
ENDBRANCH  20  21
ENDBRANCH   1  19
TORSDOF 4
ENDMDL
MODEL 7
REMARK VINA RESULT:      -7.2      2.192      2.958
REMARK  4 active torsions:
REMARK  status: ('A' for Active; 'I' for Inactive)
REMARK    1  A    between atoms: C2_2  and  C3_3 
REMARK    2  A    between atoms: C4_4  and  C5_5 
REMARK    3  A    between atoms: C8_8  and  C9_9 
REMARK    4  A    between atoms: C15_17  and  N1_18 
ROOT
HETATM    1  C5  UNL     1      21.058   0.027  52.761  1.00  0.00    -0.033 C 
HETATM    2  C6  UNL     1      22.240   0.216  52.151  1.00  0.00    -0.014 C 
HETATM    3  C7  UNL     1      23.586  -0.348  52.429  1.00  0.00     0.044 C 
HETATM    4  C8  UNL     1      24.196   0.063  53.728  1.00  0.00     0.079 C 
HETATM    5  C15 UNL     1      23.705  -0.856  54.827  1.00  0.00     0.053 C 
HETATM    6  S1  UNL     1      22.092  -1.209  55.019  1.00  0.00    -0.088 SA
HETATM    7  C16 UNL     1      20.873  -0.865  53.936  1.00  0.00     0.062 C 
ENDROOT
BRANCH   4   8
HETATM    8  C9  UNL     1      25.650   0.167  53.712  1.00  0.00    -0.046 A 
HETATM    9  C10 UNL     1      26.435   1.262  54.007  1.00  0.00     0.010 A 
HETATM   10  C11 UNL     1      27.824   1.153  53.931  1.00  0.00     0.026 A 
HETATM   11  C12 UNL     1      28.411  -0.041  53.566  1.00  0.00     0.055 A 
HETATM   12 CL1  UNL     1      30.147  -0.179  53.471  1.00  0.00    -0.083 Cl
HETATM   13  C13 UNL     1      27.654  -1.155  53.265  1.00  0.00     0.056 A 
HETATM   14 CL2  UNL     1      28.432  -2.650  52.805  1.00  0.00    -0.083 Cl
HETATM   15  C14 UNL     1      26.266  -1.033  53.343  1.00  0.00     0.033 A 
ENDBRANCH   4   8
BRANCH   5  16
HETATM   16  N1  UNL     1      24.530  -1.505  55.791  1.00  0.00    -0.396 N 
HETATM   17  H13 UNL     1      24.617  -2.459  56.234  1.00  0.00     0.156 HD
HETATM   18  H14 UNL     1      25.281  -0.896  56.204  1.00  0.00     0.156 HD
ENDBRANCH   5  16
BRANCH   1  19
HETATM   19  C4  UNL     1      19.893   0.741  52.235  1.00  0.00     0.011 C 
HETATM   20  C3  UNL     1      19.237   0.460  51.151  1.00  0.00     0.000 C 
BRANCH  20  21
HETATM   21  C2  UNL     1      18.071   1.256  50.720  1.00  0.00    -0.010 C 
HETATM   22  C1  UNL     1      17.758   2.388  51.299  1.00  0.00     0.011 C 
ENDBRANCH  20  21
ENDBRANCH   1  19
TORSDOF 4
ENDMDL
MODEL 8
REMARK VINA RESULT:      -7.2      6.347      7.505
REMARK  4 active torsions:
REMARK  status: ('A' for Active; 'I' for Inactive)
REMARK    1  A    between atoms: C2_2  and  C3_3 
REMARK    2  A    between atoms: C4_4  and  C5_5 
REMARK    3  A    between atoms: C8_8  and  C9_9 
REMARK    4  A    between atoms: C15_17  and  N1_18 
ROOT
HETATM    1  C5  UNL     1      23.969   3.303  50.160  1.00  0.00    -0.033 C 
HETATM    2  C6  UNL     1      25.066   3.306  49.384  1.00  0.00    -0.014 C 
HETATM    3  C7  UNL     1      26.260   4.190  49.382  1.00  0.00     0.044 C 
HETATM    4  C8  UNL     1      26.002   5.614  49.016  1.00  0.00     0.079 C 
HETATM    5  C15 UNL     1      25.574   6.381  50.250  1.00  0.00     0.053 C 
HETATM    6  S1  UNL     1      24.391   5.811  51.269  1.00  0.00    -0.088 SA
HETATM    7  C16 UNL     1      23.737   4.278  51.258  1.00  0.00     0.062 C 
ENDROOT
BRANCH   4   8
HETATM    8  C9  UNL     1      27.100   6.272  48.318  1.00  0.00    -0.046 A 
HETATM    9  C10 UNL     1      27.079   7.456  47.610  1.00  0.00     0.010 A 
HETATM   10  C11 UNL     1      28.251   7.919  47.010  1.00  0.00     0.026 A 
HETATM   11  C12 UNL     1      29.424   7.201  47.124  1.00  0.00     0.055 A 
HETATM   12 CL1  UNL     1      30.889   7.778  46.375  1.00  0.00    -0.083 Cl
HETATM   13  C13 UNL     1      29.478   6.014  47.825  1.00  0.00     0.056 A 
HETATM   14 CL2  UNL     1      30.980   5.131  47.947  1.00  0.00    -0.083 Cl
HETATM   15  C14 UNL     1      28.299   5.560  48.419  1.00  0.00     0.033 A 
ENDBRANCH   4   8
BRANCH   5  16
HETATM   16  N1  UNL     1      26.110   7.631  50.672  1.00  0.00    -0.396 N 
HETATM   17  H13 UNL     1      27.052   8.105  50.722  1.00  0.00     0.156 HD
HETATM   18  H14 UNL     1      25.398   8.308  51.047  1.00  0.00     0.156 HD
ENDBRANCH   5  16
BRANCH   1  19
HETATM   19  C4  UNL     1      22.952   2.281  49.906  1.00  0.00     0.011 C 
HETATM   20  C3  UNL     1      22.281   1.618  50.798  1.00  0.00     0.000 C 
BRANCH  20  21
HETATM   21  C2  UNL     1      21.275   0.606  50.419  1.00  0.00    -0.010 C 
HETATM   22  C1  UNL     1      20.202   0.398  51.140  1.00  0.00     0.011 C 
ENDBRANCH  20  21
ENDBRANCH   1  19
TORSDOF 4
ENDMDL
MODEL 9
REMARK VINA RESULT:      -7.1      4.259      7.622
REMARK  4 active torsions:
REMARK  status: ('A' for Active; 'I' for Inactive)
REMARK    1  A    between atoms: C2_2  and  C3_3 
REMARK    2  A    between atoms: C4_4  and  C5_5 
REMARK    3  A    between atoms: C8_8  and  C9_9 
REMARK    4  A    between atoms: C15_17  and  N1_18 
ROOT
HETATM    1  C5  UNL     1      25.616   0.003  53.413  1.00  0.00    -0.033 C 
HETATM    2  C6  UNL     1      25.327   0.975  52.531  1.00  0.00    -0.014 C 
HETATM    3  C7  UNL     1      24.047   1.662  52.217  1.00  0.00     0.044 C 
HETATM    4  C8  UNL     1      22.992   0.801  51.605  1.00  0.00     0.079 C 
HETATM    5  C15 UNL     1      22.218   0.100  52.703  1.00  0.00     0.053 C 
HETATM    6  S1  UNL     1      22.984  -0.698  53.943  1.00  0.00    -0.088 SA
HETATM    7  C16 UNL     1      24.607  -0.616  54.313  1.00  0.00     0.062 C 
ENDROOT
BRANCH   4   8
HETATM    8  C9  UNL     1      22.111   1.489  50.670  1.00  0.00    -0.046 A 
HETATM    9  C10 UNL     1      21.498   0.986  49.541  1.00  0.00     0.010 A 
HETATM   10  C11 UNL     1      20.684   1.819  48.772  1.00  0.00     0.026 A 
HETATM   11  C12 UNL     1      20.490   3.136  49.137  1.00  0.00     0.055 A 
HETATM   12 CL1  UNL     1      19.472   4.177  48.177  1.00  0.00    -0.083 Cl
HETATM   13  C13 UNL     1      21.088   3.669  50.260  1.00  0.00     0.056 A 
HETATM   14 CL2  UNL     1      20.821   5.340  50.690  1.00  0.00    -0.083 Cl
HETATM   15  C14 UNL     1      21.901   2.827  51.020  1.00  0.00     0.033 A 
ENDBRANCH   4   8
BRANCH   5  16
HETATM   16  N1  UNL     1      20.798   0.041  52.803  1.00  0.00    -0.396 N 
HETATM   17  H13 UNL     1      20.073  -0.296  53.492  1.00  0.00     0.156 HD
HETATM   18  H14 UNL     1      20.285   0.436  51.975  1.00  0.00     0.156 HD
ENDBRANCH   5  16
BRANCH   1  19
HETATM   19  C4  UNL     1      27.000  -0.468  53.485  1.00  0.00     0.011 C 
HETATM   20  C3  UNL     1      28.065   0.269  53.578  1.00  0.00     0.000 C 
BRANCH  20  21
HETATM   21  C2  UNL     1      29.415  -0.323  53.644  1.00  0.00    -0.010 C 
HETATM   22  C1  UNL     1      29.622  -1.595  53.416  1.00  0.00     0.011 C 
ENDBRANCH  20  21
ENDBRANCH   1  19
TORSDOF 4
ENDMDL
