MODEL 1
REMARK VINA RESULT:      -8.3      0.000      0.000
REMARK  2 active torsions:
REMARK  status: ('A' for Active; 'I' for Inactive)
REMARK    1  A    between atoms: C10_14  and  N3_15 
REMARK    2  A    between atoms: N3_15  and  C11_16 
ROOT
HETATM    1  C1  UNL     1      20.843   1.792  48.739  1.00  0.00     0.056 C 
HETATM    2  C2  UNL     1      22.051   2.191  49.603  1.00  0.00     0.129 A 
HETATM    3  O1  UNL     1      22.092   3.616  49.902  1.00  0.00    -0.362 OA
HETATM    4  C3  UNL     1      23.016   2.982  49.071  1.00  0.00     0.167 A 
HETATM    5  C4  UNL     1      24.466   2.938  49.477  1.00  0.00     0.071 C 
HETATM    6  P1  UNL     1      24.506   2.870  51.352  1.00  0.00    -0.087 P 
HETATM    7  C5  UNL     1      23.230   1.578  51.713  1.00  0.00     0.022 A 
HETATM    8  C6  UNL     1      22.193   1.408  50.816  1.00  0.00     0.084 A 
HETATM    9  N1  UNL     1      21.323   0.443  51.176  1.00  0.00    -0.260 NA
HETATM   10  C7  UNL     1      21.451  -0.285  52.301  1.00  0.00     0.142 A 
HETATM   11  C8  UNL     1      22.493  -0.105  53.190  1.00  0.00     0.089 A 
HETATM   12  C9  UNL     1      22.590  -0.904  54.378  1.00  0.00     0.103 C 
HETATM   13  N2  UNL     1      22.663  -1.536  55.346  1.00  0.00    -0.191 NA
HETATM   14  C10 UNL     1      23.422   0.868  52.883  1.00  0.00     0.068 A 
HETATM   15  H7  UNL     1      25.837   2.376  51.732  1.00  0.00     0.062 HD
ENDROOT
BRANCH  14  16
HETATM   16  N3  UNL     1      24.522   1.116  53.743  1.00  0.00    -0.354 N 
HETATM   17  H9  UNL     1      24.260   1.758  54.524  1.00  0.00     0.166 HD
BRANCH  16  18
HETATM   18  C11 UNL     1      25.804   0.578  53.584  1.00  0.00     0.034 A 
HETATM   19  C12 UNL     1      25.998  -0.637  53.004  1.00  0.00     0.032 A 
HETATM   20  C13 UNL     1      27.299  -1.132  52.866  1.00  0.00     0.046 A 
HETATM   21  C14 UNL     1      28.342  -0.357  53.332  1.00  0.00     0.138 A 
HETATM   22  F1  UNL     1      29.630  -0.809  53.214  1.00  0.00    -0.204 F 
HETATM   23  C15 UNL     1      28.190   0.881  53.926  1.00  0.00     0.074 A 
HETATM   24 CL1  UNL     1      29.551   1.820  54.498  1.00  0.00    -0.081 Cl
HETATM   25  C16 UNL     1      26.880   1.315  54.033  1.00  0.00     0.056 A 
ENDBRANCH  16  18
ENDBRANCH  14  16
TORSDOF 2
ENDMDL
MODEL 2
REMARK VINA RESULT:      -7.7      3.658      5.733
REMARK  2 active torsions:
REMARK  status: ('A' for Active; 'I' for Inactive)
REMARK    1  A    between atoms: C10_14  and  N3_15 
REMARK    2  A    between atoms: N3_15  and  C11_16 
ROOT
HETATM    1  C1  UNL     1      21.469  -1.006  54.733  1.00  0.00     0.056 C 
HETATM    2  C2  UNL     1      21.408  -0.064  53.519  1.00  0.00     0.129 A 
HETATM    3  O1  UNL     1      20.429   1.003  53.674  1.00  0.00    -0.362 OA
HETATM    4  C3  UNL     1      20.287  -0.037  52.756  1.00  0.00     0.167 A 
HETATM    5  C4  UNL     1      20.274   0.276  51.282  1.00  0.00     0.071 C 
HETATM    6  P1  UNL     1      21.385   1.767  51.030  1.00  0.00    -0.087 P 
HETATM    7  C5  UNL     1      22.870   1.309  52.038  1.00  0.00     0.022 A 
HETATM    8  C6  UNL     1      22.696   0.474  53.125  1.00  0.00     0.084 A 
HETATM    9  N1  UNL     1      23.840   0.206  53.786  1.00  0.00    -0.260 NA
HETATM   10  C7  UNL     1      25.037   0.704  53.423  1.00  0.00     0.142 A 
HETATM   11  C8  UNL     1      25.197   1.538  52.334  1.00  0.00     0.089 A 
HETATM   12  C9  UNL     1      26.493   2.045  51.983  1.00  0.00     0.103 C 
HETATM   13  N2  UNL     1      27.534   2.471  51.707  1.00  0.00    -0.191 NA
HETATM   14  C10 UNL     1      24.066   1.854  51.610  1.00  0.00     0.068 A 
HETATM   15  H7  UNL     1      21.740   1.797  49.605  1.00  0.00     0.062 HD
ENDROOT
BRANCH  14  16
HETATM   16  N3  UNL     1      24.144   2.704  50.478  1.00  0.00    -0.354 N 
HETATM   17  H9  UNL     1      23.987   2.174  49.591  1.00  0.00     0.166 HD
BRANCH  16  18
HETATM   18  C11 UNL     1      24.397   4.079  50.521  1.00  0.00     0.034 A 
HETATM   19  C12 UNL     1      23.747   4.895  51.394  1.00  0.00     0.032 A 
HETATM   20  C13 UNL     1      24.036   6.263  51.400  1.00  0.00     0.046 A 
HETATM   21  C14 UNL     1      24.978   6.733  50.508  1.00  0.00     0.138 A 
HETATM   22  F1  UNL     1      25.287   8.068  50.485  1.00  0.00    -0.204 F 
HETATM   23  C15 UNL     1      25.662   5.940  49.606  1.00  0.00     0.074 A 
HETATM   24 CL1  UNL     1      26.849   6.592  48.498  1.00  0.00    -0.081 Cl
HETATM   25  C16 UNL     1      25.333   4.597  49.650  1.00  0.00     0.056 A 
ENDBRANCH  16  18
ENDBRANCH  14  16
TORSDOF 2
ENDMDL
MODEL 3
REMARK VINA RESULT:      -7.7      2.363      2.824
REMARK  2 active torsions:
REMARK  status: ('A' for Active; 'I' for Inactive)
REMARK    1  A    between atoms: C10_14  and  N3_15 
REMARK    2  A    between atoms: N3_15  and  C11_16 
ROOT
HETATM    1  C1  UNL     1      21.776   6.294  51.198  1.00  0.00     0.056 C 
HETATM    2  C2  UNL     1      23.071   5.542  50.850  1.00  0.00     0.129 A 
HETATM    3  O1  UNL     1      24.273   6.279  51.213  1.00  0.00    -0.362 OA
HETATM    4  C3  UNL     1      23.892   6.042  49.892  1.00  0.00     0.167 A 
HETATM    5  C4  UNL     1      24.774   5.198  49.009  1.00  0.00     0.071 C 
HETATM    6  P1  UNL     1      25.604   3.931  50.116  1.00  0.00    -0.087 P 
HETATM    7  C5  UNL     1      24.180   3.327  51.136  1.00  0.00     0.022 A 
HETATM    8  C6  UNL     1      23.124   4.187  51.366  1.00  0.00     0.084 A 
HETATM    9  N1  UNL     1      22.144   3.647  52.118  1.00  0.00    -0.260 NA
HETATM   10  C7  UNL     1      22.190   2.391  52.600  1.00  0.00     0.142 A 
HETATM   11  C8  UNL     1      23.253   1.541  52.362  1.00  0.00     0.089 A 
HETATM   12  C9  UNL     1      23.260   0.208  52.895  1.00  0.00     0.103 C 
HETATM   13  N2  UNL     1      23.276  -0.862  53.338  1.00  0.00    -0.191 NA
HETATM   14  C10 UNL     1      24.292   2.029  51.598  1.00  0.00     0.068 A 
HETATM   15  H7  UNL     1      26.084   2.851  49.242  1.00  0.00     0.062 HD
ENDROOT
BRANCH  14  16
HETATM   16  N3  UNL     1      25.420   1.221  51.307  1.00  0.00    -0.354 N 
HETATM   17  H9  UNL     1      25.424   0.913  50.309  1.00  0.00     0.166 HD
BRANCH  16  18
HETATM   18  C11 UNL     1      26.415   0.869  52.226  1.00  0.00     0.034 A 
HETATM   19  C12 UNL     1      26.903   1.766  53.125  1.00  0.00     0.032 A 
HETATM   20  C13 UNL     1      27.896   1.366  54.024  1.00  0.00     0.046 A 
HETATM   21  C14 UNL     1      28.344   0.062  53.960  1.00  0.00     0.138 A 
HETATM   22  F1  UNL     1      29.317  -0.366  54.826  1.00  0.00    -0.204 F 
HETATM   23  C15 UNL     1      27.877  -0.881  53.065  1.00  0.00     0.074 A 
HETATM   24 CL1  UNL     1      28.483  -2.522  53.030  1.00  0.00    -0.081 Cl
HETATM   25  C16 UNL     1      26.895  -0.424  52.203  1.00  0.00     0.056 A 
ENDBRANCH  16  18
ENDBRANCH  14  16
TORSDOF 2
ENDMDL
MODEL 4
REMARK VINA RESULT:      -7.6      3.768      5.580
REMARK  2 active torsions:
REMARK  status: ('A' for Active; 'I' for Inactive)
REMARK    1  A    between atoms: C10_14  and  N3_15 
REMARK    2  A    between atoms: N3_15  and  C11_16 
ROOT
HETATM    1  C1  UNL     1      27.319   5.040  48.709  1.00  0.00     0.056 C 
HETATM    2  C2  UNL     1      26.028   5.022  49.545  1.00  0.00     0.129 A 
HETATM    3  O1  UNL     1      24.828   5.221  48.744  1.00  0.00    -0.362 OA
HETATM    4  C3  UNL     1      25.298   6.160  49.662  1.00  0.00     0.167 A 
HETATM    5  C4  UNL     1      24.455   6.504  50.863  1.00  0.00     0.071 C 
HETATM    6  P1  UNL     1      23.503   4.955  51.325  1.00  0.00    -0.087 P 
HETATM    7  C5  UNL     1      24.826   3.660  51.253  1.00  0.00     0.022 A 
HETATM    8  C6  UNL     1      25.891   3.855  50.394  1.00  0.00     0.084 A 
HETATM    9  N1  UNL     1      26.793   2.853  50.421  1.00  0.00    -0.260 NA
HETATM   10  C7  UNL     1      26.669   1.767  51.207  1.00  0.00     0.142 A 
HETATM   11  C8  UNL     1      25.599   1.586  52.061  1.00  0.00     0.089 A 
HETATM   12  C9  UNL     1      25.507   0.413  52.883  1.00  0.00     0.103 C 
HETATM   13  N2  UNL     1      25.421  -0.541  53.535  1.00  0.00    -0.191 NA
HETATM   14  C10 UNL     1      24.636   2.574  52.085  1.00  0.00     0.068 A 
HETATM   15  H7  UNL     1      23.053   5.130  52.713  1.00  0.00     0.062 HD
ENDROOT
BRANCH  14  16
HETATM   16  N3  UNL     1      23.506   2.464  52.934  1.00  0.00    -0.354 N 
HETATM   17  H9  UNL     1      23.634   3.011  53.815  1.00  0.00     0.166 HD
BRANCH  16  18
HETATM   18  C11 UNL     1      22.355   1.722  52.648  1.00  0.00     0.034 A 
HETATM   19  C12 UNL     1      21.514   2.075  51.638  1.00  0.00     0.032 A 
HETATM   20  C13 UNL     1      20.376   1.301  51.390  1.00  0.00     0.046 A 
HETATM   21  C14 UNL     1      20.152   0.199  52.191  1.00  0.00     0.138 A 
HETATM   22  F1  UNL     1      19.047  -0.583  51.977  1.00  0.00    -0.204 F 
HETATM   23  C15 UNL     1      20.978  -0.195  53.225  1.00  0.00     0.074 A 
HETATM   24 CL1  UNL     1      20.644  -1.603  54.208  1.00  0.00    -0.081 Cl
HETATM   25  C16 UNL     1      22.087   0.610  53.420  1.00  0.00     0.056 A 
ENDBRANCH  16  18
ENDBRANCH  14  16
TORSDOF 2
ENDMDL
MODEL 5
REMARK VINA RESULT:      -7.6      4.061      6.447
REMARK  2 active torsions:
REMARK  status: ('A' for Active; 'I' for Inactive)
REMARK    1  A    between atoms: C10_14  and  N3_15 
REMARK    2  A    between atoms: N3_15  and  C11_16 
ROOT
HETATM    1  C1  UNL     1      22.286  -1.896  54.835  1.00  0.00     0.056 C 
HETATM    2  C2  UNL     1      21.769  -0.651  54.095  1.00  0.00     0.129 A 
HETATM    3  O1  UNL     1      20.985   0.233  54.946  1.00  0.00    -0.362 OA
HETATM    4  C3  UNL     1      20.436  -0.503  53.896  1.00  0.00     0.167 A 
HETATM    5  C4  UNL     1      19.831   0.224  52.722  1.00  0.00     0.071 C 
HETATM    6  P1  UNL     1      20.799   1.817  52.508  1.00  0.00    -0.087 P 
HETATM    7  C5  UNL     1      22.547   1.220  52.641  1.00  0.00     0.022 A 
HETATM    8  C6  UNL     1      22.801   0.092  53.398  1.00  0.00     0.084 A 
HETATM    9  N1  UNL     1      24.105  -0.254  53.427  1.00  0.00    -0.260 NA
HETATM   10  C7  UNL     1      25.066   0.433  52.781  1.00  0.00     0.142 A 
HETATM   11  C8  UNL     1      24.797   1.559  52.028  1.00  0.00     0.089 A 
HETATM   12  C9  UNL     1      25.854   2.261  51.356  1.00  0.00     0.103 C 
HETATM   13  N2  UNL     1      26.706   2.840  50.826  1.00  0.00    -0.191 NA
HETATM   14  C10 UNL     1      23.482   1.970  51.954  1.00  0.00     0.068 A 
HETATM   15  H7  UNL     1      20.538   2.293  51.143  1.00  0.00     0.062 HD
ENDROOT
BRANCH  14  16
HETATM   16  N3  UNL     1      23.123   3.117  51.202  1.00  0.00    -0.354 N 
HETATM   17  H9  UNL     1      23.093   3.973  51.800  1.00  0.00     0.166 HD
BRANCH  16  18
HETATM   18  C11 UNL     1      22.840   3.124  49.832  1.00  0.00     0.034 A 
HETATM   19  C12 UNL     1      22.517   1.981  49.167  1.00  0.00     0.032 A 
HETATM   20  C13 UNL     1      22.241   2.039  47.797  1.00  0.00     0.046 A 
HETATM   21  C14 UNL     1      22.309   3.267  47.171  1.00  0.00     0.138 A 
HETATM   22  F1  UNL     1      22.045   3.362  45.830  1.00  0.00    -0.204 F 
HETATM   23  C15 UNL     1      22.632   4.450  47.808  1.00  0.00     0.074 A 
HETATM   24 CL1  UNL     1      22.702   5.980  46.962  1.00  0.00    -0.081 Cl
HETATM   25  C16 UNL     1      22.893   4.328  49.161  1.00  0.00     0.056 A 
ENDBRANCH  16  18
ENDBRANCH  14  16
TORSDOF 2
ENDMDL
MODEL 6
REMARK VINA RESULT:      -7.4      3.556      5.774
REMARK  2 active torsions:
REMARK  status: ('A' for Active; 'I' for Inactive)
REMARK    1  A    between atoms: C10_14  and  N3_15 
REMARK    2  A    between atoms: N3_15  and  C11_16 
ROOT
HETATM    1  C1  UNL     1      24.562  -1.267  55.687  1.00  0.00     0.056 C 
HETATM    2  C2  UNL     1      25.158  -0.489  54.503  1.00  0.00     0.129 A 
HETATM    3  O1  UNL     1      26.168  -1.244  53.774  1.00  0.00    -0.362 OA
HETATM    4  C3  UNL     1      26.462  -0.117  54.541  1.00  0.00     0.167 A 
HETATM    5  C4  UNL     1      27.011   1.113  53.866  1.00  0.00     0.071 C 
HETATM    6  P1  UNL     1      26.270   1.168  52.143  1.00  0.00    -0.087 P 
HETATM    7  C5  UNL     1      24.484   0.815  52.486  1.00  0.00     0.022 A 
HETATM    8  C6  UNL     1      24.166   0.052  53.593  1.00  0.00     0.084 A 
HETATM    9  N1  UNL     1      22.841  -0.144  53.748  1.00  0.00    -0.260 NA
HETATM   10  C7  UNL     1      21.916   0.355  52.906  1.00  0.00     0.142 A 
HETATM   11  C8  UNL     1      22.250   1.117  51.803  1.00  0.00     0.089 A 
HETATM   12  C9  UNL     1      21.231   1.630  50.931  1.00  0.00     0.103 C 
HETATM   13  N2  UNL     1      20.413   2.032  50.216  1.00  0.00    -0.191 NA
HETATM   14  C10 UNL     1      23.590   1.357  51.583  1.00  0.00     0.068 A 
HETATM   15  H7  UNL     1      26.421   2.547  51.658  1.00  0.00     0.062 HD
ENDROOT
BRANCH  14  16
HETATM   16  N3  UNL     1      24.016   2.130  50.473  1.00  0.00    -0.354 N 
HETATM   17  H9  UNL     1      24.102   1.546  49.611  1.00  0.00     0.166 HD
BRANCH  16  18
HETATM   18  C11 UNL     1      24.290   3.501  50.506  1.00  0.00     0.034 A 
HETATM   19  C12 UNL     1      23.606   4.344  51.326  1.00  0.00     0.032 A 
HETATM   20  C13 UNL     1      23.917   5.708  51.324  1.00  0.00     0.046 A 
HETATM   21  C14 UNL     1      24.917   6.145  50.479  1.00  0.00     0.138 A 
HETATM   22  F1  UNL     1      25.250   7.474  50.450  1.00  0.00    -0.204 F 
HETATM   23  C15 UNL     1      25.637   5.324  49.632  1.00  0.00     0.074 A 
HETATM   24 CL1  UNL     1      26.897   5.935  48.583  1.00  0.00    -0.081 Cl
HETATM   25  C16 UNL     1      25.283   3.987  49.681  1.00  0.00     0.056 A 
ENDBRANCH  16  18
ENDBRANCH  14  16
TORSDOF 2
ENDMDL
MODEL 7
REMARK VINA RESULT:      -6.9      4.491      7.236
REMARK  2 active torsions:
REMARK  status: ('A' for Active; 'I' for Inactive)
REMARK    1  A    between atoms: C10_14  and  N3_15 
REMARK    2  A    between atoms: N3_15  and  C11_16 
ROOT
HETATM    1  C1  UNL     1      25.995  -0.857  53.428  1.00  0.00     0.056 C 
HETATM    2  C2  UNL     1      24.800   0.006  52.989  1.00  0.00     0.129 A 
HETATM    3  O1  UNL     1      23.996   0.479  54.107  1.00  0.00    -0.362 OA
HETATM    4  C3  UNL     1      23.540  -0.458  53.181  1.00  0.00     0.167 A 
HETATM    5  C4  UNL     1      22.368  -0.114  52.298  1.00  0.00     0.071 C 
HETATM    6  P1  UNL     1      22.443   1.734  51.986  1.00  0.00    -0.087 P 
HETATM    7  C5  UNL     1      24.232   1.977  51.571  1.00  0.00     0.022 A 
HETATM    8  C6  UNL     1      25.157   1.105  52.112  1.00  0.00     0.084 A 
HETATM    9  N1  UNL     1      26.427   1.373  51.746  1.00  0.00    -0.260 NA
HETATM   10  C7  UNL     1      26.762   2.392  50.933  1.00  0.00     0.142 A 
HETATM   11  C8  UNL     1      25.826   3.257  50.400  1.00  0.00     0.089 A 
HETATM   12  C9  UNL     1      26.229   4.331  49.536  1.00  0.00     0.103 C 
HETATM   13  N2  UNL     1      26.551   5.208  48.853  1.00  0.00    -0.191 NA
HETATM   14  C10 UNL     1      24.505   3.041  50.732  1.00  0.00     0.068 A 
HETATM   15  H7  UNL     1      21.616   2.000  50.800  1.00  0.00     0.062 HD
ENDROOT
BRANCH  14  16
HETATM   16  N3  UNL     1      23.483   3.884  50.227  1.00  0.00    -0.354 N 
HETATM   17  H9  UNL     1      23.150   4.557  50.953  1.00  0.00     0.166 HD
BRANCH  16  18
HETATM   18  C11 UNL     1      22.973   3.837  48.926  1.00  0.00     0.034 A 
HETATM   19  C12 UNL     1      22.591   2.663  48.353  1.00  0.00     0.032 A 
HETATM   20  C13 UNL     1      22.085   2.667  47.049  1.00  0.00     0.046 A 
HETATM   21  C14 UNL     1      21.994   3.877  46.392  1.00  0.00     0.138 A 
HETATM   22  F1  UNL     1      21.503   3.920  45.113  1.00  0.00    -0.204 F 
HETATM   23  C15 UNL     1      22.368   5.091  46.935  1.00  0.00     0.074 A 
HETATM   24 CL1  UNL     1      22.229   6.596  46.053  1.00  0.00    -0.081 Cl
HETATM   25  C16 UNL     1      22.860   5.021  48.227  1.00  0.00     0.056 A 
ENDBRANCH  16  18
ENDBRANCH  14  16
TORSDOF 2
ENDMDL
MODEL 8
REMARK VINA RESULT:      -6.6      8.463     10.585
REMARK  2 active torsions:
REMARK  status: ('A' for Active; 'I' for Inactive)
REMARK    1  A    between atoms: C10_14  and  N3_15 
REMARK    2  A    between atoms: N3_15  and  C11_16 
ROOT
HETATM    1  C1  UNL     1      25.983   3.899  49.618  1.00  0.00     0.056 C 
HETATM    2  C2  UNL     1      26.046   5.352  49.118  1.00  0.00     0.129 A 
HETATM    3  O1  UNL     1      25.607   6.317  50.116  1.00  0.00    -0.362 OA
HETATM    4  C3  UNL     1      24.893   6.045  48.949  1.00  0.00     0.167 A 
HETATM    5  C4  UNL     1      24.704   7.138  47.927  1.00  0.00     0.071 C 
HETATM    6  P1  UNL     1      26.228   8.230  48.007  1.00  0.00    -0.087 P 
HETATM    7  C5  UNL     1      27.593   6.977  48.030  1.00  0.00     0.022 A 
HETATM    8  C6  UNL     1      27.333   5.732  48.568  1.00  0.00     0.084 A 
HETATM    9  N1  UNL     1      28.394   4.900  48.534  1.00  0.00    -0.260 NA
HETATM   10  C7  UNL     1      29.591   5.249  48.025  1.00  0.00     0.142 A 
HETATM   11  C8  UNL     1      29.836   6.498  47.490  1.00  0.00     0.089 A 
HETATM   12  C9  UNL     1      31.127   6.827  46.957  1.00  0.00     0.103 C 
HETATM   13  N2  UNL     1      32.173   7.103  46.542  1.00  0.00    -0.191 NA
HETATM   14  C10 UNL     1      28.793   7.401  47.492  1.00  0.00     0.068 A 
HETATM   15  H7  UNL     1      26.272   8.992  46.752  1.00  0.00     0.062 HD
ENDROOT
BRANCH  14  16
HETATM   16  N3  UNL     1      28.962   8.705  46.961  1.00  0.00    -0.354 N 
HETATM   17  H9  UNL     1      28.676   8.749  45.957  1.00  0.00     0.166 HD
BRANCH  16  18
HETATM   18  C11 UNL     1      29.446   9.807  47.674  1.00  0.00     0.034 A 
HETATM   19  C12 UNL     1      30.237   9.652  48.770  1.00  0.00     0.032 A 
HETATM   20  C13 UNL     1      30.698  10.785  49.449  1.00  0.00     0.046 A 
HETATM   21  C14 UNL     1      30.326  12.025  48.972  1.00  0.00     0.138 A 
HETATM   22  F1  UNL     1      30.759  13.158  49.611  1.00  0.00    -0.204 F 
HETATM   23  C15 UNL     1      29.527  12.227  47.864  1.00  0.00     0.074 A 
HETATM   24 CL1  UNL     1      29.087  13.826  47.304  1.00  0.00    -0.081 Cl
HETATM   25  C16 UNL     1      29.103  11.069  47.236  1.00  0.00     0.056 A 
ENDBRANCH  16  18
ENDBRANCH  14  16
TORSDOF 2
ENDMDL
MODEL 9
REMARK VINA RESULT:      -6.4      6.033      8.215
REMARK  2 active torsions:
REMARK  status: ('A' for Active; 'I' for Inactive)
REMARK    1  A    between atoms: C10_14  and  N3_15 
REMARK    2  A    between atoms: N3_15  and  C11_16 
ROOT
HETATM    1  C1  UNL     1      22.873   2.131  50.807  1.00  0.00     0.056 C 
HETATM    2  C2  UNL     1      23.216   3.625  50.925  1.00  0.00     0.129 A 
HETATM    3  O1  UNL     1      23.115   4.126  52.289  1.00  0.00    -0.362 OA
HETATM    4  C3  UNL     1      22.241   4.504  51.270  1.00  0.00     0.167 A 
HETATM    5  C4  UNL     1      22.204   5.943  50.824  1.00  0.00     0.071 C 
HETATM    6  P1  UNL     1      23.937   6.628  51.042  1.00  0.00    -0.087 P 
HETATM    7  C5  UNL     1      24.973   5.282  50.303  1.00  0.00     0.022 A 
HETATM    8  C6  UNL     1      24.492   3.987  50.338  1.00  0.00     0.084 A 
HETATM    9  N1  UNL     1      25.324   3.088  49.774  1.00  0.00    -0.260 NA
HETATM   10  C7  UNL     1      26.509   3.419  49.229  1.00  0.00     0.142 A 
HETATM   11  C8  UNL     1      26.978   4.719  49.200  1.00  0.00     0.089 A 
HETATM   12  C9  UNL     1      28.248   5.027  48.608  1.00  0.00     0.103 C 
HETATM   13  N2  UNL     1      29.281   5.277  48.146  1.00  0.00    -0.191 NA
HETATM   14  C10 UNL     1      26.176   5.691  49.760  1.00  0.00     0.068 A 
HETATM   15  H7  UNL     1      24.025   7.837  50.211  1.00  0.00     0.062 HD
ENDROOT
BRANCH  14  16
HETATM   16  N3  UNL     1      26.584   7.049  49.772  1.00  0.00    -0.354 N 
HETATM   17  H9  UNL     1      26.815   7.371  50.739  1.00  0.00     0.166 HD
BRANCH  16  18
HETATM   18  C11 UNL     1      26.673   7.871  48.644  1.00  0.00     0.034 A 
HETATM   19  C12 UNL     1      25.865   7.688  47.564  1.00  0.00     0.032 A 
HETATM   20  C13 UNL     1      25.991   8.537  46.460  1.00  0.00     0.046 A 
HETATM   21  C14 UNL     1      26.942   9.536  46.514  1.00  0.00     0.138 A 
HETATM   22  F1  UNL     1      27.094  10.387  45.450  1.00  0.00    -0.204 F 
HETATM   23  C15 UNL     1      27.782   9.758  47.588  1.00  0.00     0.074 A 
HETATM   24 CL1  UNL     1      28.970  11.042  47.600  1.00  0.00    -0.081 Cl
HETATM   25  C16 UNL     1      27.608   8.886  48.649  1.00  0.00     0.056 A 
ENDBRANCH  16  18
ENDBRANCH  14  16
TORSDOF 2
ENDMDL
