MODEL 1
REMARK VINA RESULT:      -6.4      0.000      0.000
REMARK  8 active torsions:
REMARK  status: ('A' for Active; 'I' for Inactive)
REMARK    1  A    between atoms: O1_2  and  C2_3 
REMARK    2  A    between atoms: C6_9  and  N3_10 
REMARK    3  A    between atoms: N3_10  and  C7_11 
REMARK    4  A    between atoms: C7_11  and  C8_12 
REMARK    5  A    between atoms: C9_13  and  C10_14 
REMARK    6  A    between atoms: C10_14  and  C11_15 
REMARK    7  A    between atoms: C11_15  and  C12_16 
REMARK    8  A    between atoms: C12_16  and  S1_17 
ROOT
HETATM    1  C2  UNL     1      26.550   0.211  54.355  1.00  0.00     0.052 A 
HETATM    2  C3  UNL     1      25.465  -0.489  54.241  1.00  0.00     0.065 A 
HETATM    3  C4  UNL     1      24.466   0.248  53.513  1.00  0.00     0.071 A 
HETATM    4  N1  UNL     1      23.226   0.217  53.038  1.00  0.00    -0.241 NA
HETATM    5  C5  UNL     1      22.734   1.259  52.376  1.00  0.00     0.235 A 
HETATM    6  N2  UNL     1      23.498   2.369  52.179  1.00  0.00    -0.224 NA
HETATM    7  C6  UNL     1      24.836   2.497  52.650  1.00  0.00     0.133 A 
HETATM    8  C14 UNL     1      24.995   1.432  53.191  1.00  0.00     0.022 A 
HETATM    9  C15 UNL     1      26.434   1.570  53.693  1.00  0.00     0.109 A 
ENDROOT
BRANCH   7  10
HETATM   10  N3  UNL     1      24.639   3.813  51.983  1.00  0.00    -0.374 N 
HETATM   11  H6  UNL     1      24.412   4.772  51.892  1.00  0.00     0.161 HD
BRANCH  10  12
HETATM   12  C7  UNL     1      25.007   3.449  50.630  1.00  0.00     0.127 C 
BRANCH  12  13
HETATM   13  C8  UNL     1      25.812   4.441  49.902  1.00  0.00     0.018 C 
HETATM   14  C9  UNL     1      26.879   3.889  49.292  1.00  0.00     0.022 C 
BRANCH  14  15
HETATM   15  C10 UNL     1      27.523   5.064  48.644  1.00  0.00    -0.024 C 
BRANCH  15  16
HETATM   16  C11 UNL     1      28.492   5.848  48.222  1.00  0.00    -0.020 C 
BRANCH  16  17
HETATM   17  C12 UNL     1      29.723   6.679  48.004  1.00  0.00     0.100 C 
BRANCH  17  18
HETATM   18  S1  UNL     1      29.603   8.329  48.672  1.00  0.00    -0.170 SA
HETATM   19  C13 UNL     1      27.983   8.791  49.274  1.00  0.00     0.090 C 
ENDBRANCH  17  18
ENDBRANCH  16  17
ENDBRANCH  15  16
ENDBRANCH  14  15
ENDBRANCH  12  13
ENDBRANCH  10  12
ENDBRANCH   7  10
BRANCH   1  20
HETATM   20  O1  UNL     1      27.696  -0.167  54.977  1.00  0.00    -0.360 OA
HETATM   21  C1  UNL     1      28.969  -0.148  54.401  1.00  0.00     0.209 C 
ENDBRANCH   1  20
TORSDOF 8
ENDMDL
MODEL 2
REMARK VINA RESULT:      -6.0      2.969      4.677
REMARK  8 active torsions:
REMARK  status: ('A' for Active; 'I' for Inactive)
REMARK    1  A    between atoms: O1_2  and  C2_3 
REMARK    2  A    between atoms: C6_9  and  N3_10 
REMARK    3  A    between atoms: N3_10  and  C7_11 
REMARK    4  A    between atoms: C7_11  and  C8_12 
REMARK    5  A    between atoms: C9_13  and  C10_14 
REMARK    6  A    between atoms: C10_14  and  C11_15 
REMARK    7  A    between atoms: C11_15  and  C12_16 
REMARK    8  A    between atoms: C12_16  and  S1_17 
ROOT
HETATM    1  C2  UNL     1      20.826  -0.380  53.042  1.00  0.00     0.052 A 
HETATM    2  C3  UNL     1      20.832  -0.938  54.212  1.00  0.00     0.065 A 
HETATM    3  C4  UNL     1      22.179  -1.068  54.700  1.00  0.00     0.071 A 
HETATM    4  N1  UNL     1      22.931  -1.494  55.708  1.00  0.00    -0.241 NA
HETATM    5  C5  UNL     1      24.254  -1.370  55.657  1.00  0.00     0.235 A 
HETATM    6  N2  UNL     1      24.850  -0.806  54.570  1.00  0.00    -0.224 NA
HETATM    7  C6  UNL     1      24.129  -0.322  53.442  1.00  0.00     0.133 A 
HETATM    8  C14 UNL     1      22.995  -0.563  53.769  1.00  0.00     0.022 A 
HETATM    9  C15 UNL     1      22.221  -0.038  52.557  1.00  0.00     0.109 A 
ENDROOT
BRANCH   7  10
HETATM   10  N3  UNL     1      25.530  -0.025  53.037  1.00  0.00    -0.374 N 
HETATM   11  H6  UNL     1      26.433  -0.187  52.667  1.00  0.00     0.161 HD
BRANCH  10  12
HETATM   12  C7  UNL     1      25.605   1.362  53.448  1.00  0.00     0.127 C 
BRANCH  12  13
HETATM   13  C8  UNL     1      25.732   2.342  52.358  1.00  0.00     0.018 C 
HETATM   14  C9  UNL     1      26.335   1.824  51.270  1.00  0.00     0.022 C 
BRANCH  14  15
HETATM   15  C10 UNL     1      26.351   2.980  50.332  1.00  0.00    -0.024 C 
BRANCH  15  16
HETATM   16  C11 UNL     1      26.853   3.935  49.579  1.00  0.00    -0.020 C 
BRANCH  16  17
HETATM   17  C12 UNL     1      27.141   5.110  48.689  1.00  0.00     0.100 C 
BRANCH  17  18
HETATM   18  S1  UNL     1      25.856   6.348  48.696  1.00  0.00    -0.170 SA
HETATM   19  C13 UNL     1      24.185   5.710  48.674  1.00  0.00     0.090 C 
ENDBRANCH  17  18
ENDBRANCH  16  17
ENDBRANCH  15  16
ENDBRANCH  14  15
ENDBRANCH  12  13
ENDBRANCH  10  12
ENDBRANCH   7  10
BRANCH   1  20
HETATM   20  O1  UNL     1      19.735  -0.100  52.284  1.00  0.00    -0.360 OA
HETATM   21  C1  UNL     1      19.556   1.064  51.530  1.00  0.00     0.209 C 
ENDBRANCH   1  20
TORSDOF 8
ENDMDL
MODEL 3
REMARK VINA RESULT:      -6.0      2.276      3.243
REMARK  8 active torsions:
REMARK  status: ('A' for Active; 'I' for Inactive)
REMARK    1  A    between atoms: O1_2  and  C2_3 
REMARK    2  A    between atoms: C6_9  and  N3_10 
REMARK    3  A    between atoms: N3_10  and  C7_11 
REMARK    4  A    between atoms: C7_11  and  C8_12 
REMARK    5  A    between atoms: C9_13  and  C10_14 
REMARK    6  A    between atoms: C10_14  and  C11_15 
REMARK    7  A    between atoms: C11_15  and  C12_16 
REMARK    8  A    between atoms: C12_16  and  S1_17 
ROOT
HETATM    1  C2  UNL     1      22.876   0.505  53.310  1.00  0.00     0.052 A 
HETATM    2  C3  UNL     1      23.535  -0.593  53.508  1.00  0.00     0.065 A 
HETATM    3  C4  UNL     1      24.915  -0.424  53.137  1.00  0.00     0.071 A 
HETATM    4  N1  UNL     1      26.097  -1.024  53.053  1.00  0.00    -0.241 NA
HETATM    5  C5  UNL     1      27.156  -0.361  52.598  1.00  0.00     0.235 A 
HETATM    6  N2  UNL     1      27.037   0.940  52.212  1.00  0.00    -0.224 NA
HETATM    7  C6  UNL     1      25.813   1.666  52.263  1.00  0.00     0.133 A 
HETATM    8  C14 UNL     1      25.065   0.831  52.703  1.00  0.00     0.022 A 
HETATM    9  C15 UNL     1      23.751   1.614  52.761  1.00  0.00     0.109 A 
ENDROOT
BRANCH   7  10
HETATM   10  N3  UNL     1      26.738   2.698  51.720  1.00  0.00    -0.374 N 
HETATM   11  H6  UNL     1      27.500   3.329  51.698  1.00  0.00     0.161 HD
BRANCH  10  12
HETATM   12  C7  UNL     1      26.133   2.894  50.418  1.00  0.00     0.127 C 
BRANCH  12  13
HETATM   13  C8  UNL     1      26.780   3.902  49.562  1.00  0.00     0.018 C 
HETATM   14  C9  UNL     1      26.033   5.016  49.427  1.00  0.00     0.022 C 
BRANCH  14  15
HETATM   15  C10 UNL     1      26.876   5.860  48.536  1.00  0.00    -0.024 C 
BRANCH  15  16
HETATM   16  C11 UNL     1      27.948   6.491  48.106  1.00  0.00    -0.020 C 
BRANCH  16  17
HETATM   17  C12 UNL     1      29.062   7.439  47.773  1.00  0.00     0.100 C 
BRANCH  17  18
HETATM   18  S1  UNL     1      29.136   8.866  48.842  1.00  0.00    -0.170 SA
HETATM   19  C13 UNL     1      30.780   9.346  49.357  1.00  0.00     0.090 C 
ENDBRANCH  17  18
ENDBRANCH  16  17
ENDBRANCH  15  16
ENDBRANCH  14  15
ENDBRANCH  12  13
ENDBRANCH  10  12
ENDBRANCH   7  10
BRANCH   1  20
HETATM   20  O1  UNL     1      21.556   0.712  53.551  1.00  0.00    -0.360 OA
HETATM   21  C1  UNL     1      20.588  -0.293  53.645  1.00  0.00     0.209 C 
ENDBRANCH   1  20
TORSDOF 8
ENDMDL
MODEL 4
REMARK VINA RESULT:      -6.0      4.792      8.089
REMARK  8 active torsions:
REMARK  status: ('A' for Active; 'I' for Inactive)
REMARK    1  A    between atoms: O1_2  and  C2_3 
REMARK    2  A    between atoms: C6_9  and  N3_10 
REMARK    3  A    between atoms: N3_10  and  C7_11 
REMARK    4  A    between atoms: C7_11  and  C8_12 
REMARK    5  A    between atoms: C9_13  and  C10_14 
REMARK    6  A    between atoms: C10_14  and  C11_15 
REMARK    7  A    between atoms: C11_15  and  C12_16 
REMARK    8  A    between atoms: C12_16  and  S1_17 
ROOT
HETATM    1  C2  UNL     1      26.404   2.222  51.405  1.00  0.00     0.052 A 
HETATM    2  C3  UNL     1      27.464   2.596  52.050  1.00  0.00     0.065 A 
HETATM    3  C4  UNL     1      27.737   1.689  53.133  1.00  0.00     0.071 A 
HETATM    4  N1  UNL     1      28.557   1.422  54.144  1.00  0.00    -0.241 NA
HETATM    5  C5  UNL     1      28.346   0.362  54.918  1.00  0.00     0.235 A 
HETATM    6  N2  UNL     1      27.286  -0.460  54.681  1.00  0.00    -0.224 NA
HETATM    7  C6  UNL     1      26.353  -0.255  53.625  1.00  0.00     0.133 A 
HETATM    8  C14 UNL     1      26.792   0.745  53.117  1.00  0.00     0.022 A 
HETATM    9  C15 UNL     1      25.791   0.961  51.980  1.00  0.00     0.109 A 
ENDROOT
BRANCH   7  10
HETATM   10  N3  UNL     1      25.810  -1.491  54.253  1.00  0.00    -0.374 N 
HETATM   11  H6  UNL     1      25.724  -2.455  54.459  1.00  0.00     0.161 HD
BRANCH  10  12
HETATM   12  C7  UNL     1      24.752  -0.905  55.051  1.00  0.00     0.127 C 
BRANCH  12  13
HETATM   13  C8  UNL     1      23.440  -0.807  54.392  1.00  0.00     0.018 C 
HETATM   14  C9  UNL     1      22.455  -1.361  55.126  1.00  0.00     0.022 C 
BRANCH  14  15
HETATM   15  C10 UNL     1      21.257  -1.147  54.268  1.00  0.00    -0.024 C 
BRANCH  15  16
HETATM   16  C11 UNL     1      20.507  -0.612  53.328  1.00  0.00    -0.020 C 
BRANCH  16  17
HETATM   17  C12 UNL     1      19.701   0.254  52.404  1.00  0.00     0.100 C 
BRANCH  17  18
HETATM   18  S1  UNL     1      18.038  -0.335  52.137  1.00  0.00    -0.170 SA
HETATM   19  C13 UNL     1      17.530  -1.686  53.195  1.00  0.00     0.090 C 
ENDBRANCH  17  18
ENDBRANCH  16  17
ENDBRANCH  15  16
ENDBRANCH  14  15
ENDBRANCH  12  13
ENDBRANCH  10  12
ENDBRANCH   7  10
BRANCH   1  20
HETATM   20  O1  UNL     1      25.853   2.837  50.327  1.00  0.00    -0.360 OA
HETATM   21  C1  UNL     1      24.715   3.648  50.357  1.00  0.00     0.209 C 
ENDBRANCH   1  20
TORSDOF 8
ENDMDL
MODEL 5
REMARK VINA RESULT:      -6.0      2.068      3.189
REMARK  8 active torsions:
REMARK  status: ('A' for Active; 'I' for Inactive)
REMARK    1  A    between atoms: O1_2  and  C2_3 
REMARK    2  A    between atoms: C6_9  and  N3_10 
REMARK    3  A    between atoms: N3_10  and  C7_11 
REMARK    4  A    between atoms: C7_11  and  C8_12 
REMARK    5  A    between atoms: C9_13  and  C10_14 
REMARK    6  A    between atoms: C10_14  and  C11_15 
REMARK    7  A    between atoms: C11_15  and  C12_16 
REMARK    8  A    between atoms: C12_16  and  S1_17 
ROOT
HETATM    1  C2  UNL     1      25.090  -0.684  54.917  1.00  0.00     0.052 A 
HETATM    2  C3  UNL     1      24.184  -1.293  55.616  1.00  0.00     0.065 A 
HETATM    3  C4  UNL     1      22.907  -1.212  54.959  1.00  0.00     0.071 A 
HETATM    4  N1  UNL     1      21.625  -1.550  55.036  1.00  0.00    -0.241 NA
HETATM    5  C5  UNL     1      20.777  -1.194  54.075  1.00  0.00     0.235 A 
HETATM    6  N2  UNL     1      21.217  -0.479  53.003  1.00  0.00    -0.224 NA
HETATM    7  C6  UNL     1      22.570  -0.070  52.833  1.00  0.00     0.133 A 
HETATM    8  C14 UNL     1      23.078  -0.524  53.827  1.00  0.00     0.022 A 
HETATM    9  C15 UNL     1      24.533  -0.087  53.640  1.00  0.00     0.109 A 
ENDROOT
BRANCH   7  10
HETATM   10  N3  UNL     1      21.944   0.491  51.605  1.00  0.00    -0.374 N 
HETATM   11  H6  UNL     1      21.548   0.501  50.698  1.00  0.00     0.161 HD
BRANCH  10  12
HETATM   12  C7  UNL     1      21.889   1.888  51.985  1.00  0.00     0.127 C 
BRANCH  12  13
HETATM   13  C8  UNL     1      23.041   2.705  51.571  1.00  0.00     0.018 C 
HETATM   14  C9  UNL     1      23.418   2.453  50.302  1.00  0.00     0.022 C 
BRANCH  14  15
HETATM   15  C10 UNL     1      24.574   3.374  50.122  1.00  0.00    -0.024 C 
BRANCH  15  16
HETATM   16  C11 UNL     1      25.466   4.106  49.490  1.00  0.00    -0.020 C 
BRANCH  16  17
HETATM   17  C12 UNL     1      26.632   4.931  49.027  1.00  0.00     0.100 C 
BRANCH  17  18
HETATM   18  S1  UNL     1      26.352   6.690  49.128  1.00  0.00    -0.170 SA
HETATM   19  C13 UNL     1      26.518   7.578  47.584  1.00  0.00     0.090 C 
ENDBRANCH  17  18
ENDBRANCH  16  17
ENDBRANCH  15  16
ENDBRANCH  14  15
ENDBRANCH  12  13
ENDBRANCH  10  12
ENDBRANCH   7  10
BRANCH   1  20
HETATM   20  O1  UNL     1      26.406  -0.560  55.229  1.00  0.00    -0.360 OA
HETATM   21  C1  UNL     1      27.329   0.224  54.531  1.00  0.00     0.209 C 
ENDBRANCH   1  20
TORSDOF 8
ENDMDL
MODEL 6
REMARK VINA RESULT:      -6.0      2.741      3.652
REMARK  8 active torsions:
REMARK  status: ('A' for Active; 'I' for Inactive)
REMARK    1  A    between atoms: O1_2  and  C2_3 
REMARK    2  A    between atoms: C6_9  and  N3_10 
REMARK    3  A    between atoms: N3_10  and  C7_11 
REMARK    4  A    between atoms: C7_11  and  C8_12 
REMARK    5  A    between atoms: C9_13  and  C10_14 
REMARK    6  A    between atoms: C10_14  and  C11_15 
REMARK    7  A    between atoms: C11_15  and  C12_16 
REMARK    8  A    between atoms: C12_16  and  S1_17 
ROOT
HETATM    1  C2  UNL     1      23.974  -0.197  53.751  1.00  0.00     0.052 A 
HETATM    2  C3  UNL     1      24.893  -0.848  54.394  1.00  0.00     0.065 A 
HETATM    3  C4  UNL     1      26.186  -0.268  54.144  1.00  0.00     0.071 A 
HETATM    4  N1  UNL     1      27.484  -0.358  54.409  1.00  0.00    -0.241 NA
HETATM    5  C5  UNL     1      28.341   0.505  53.872  1.00  0.00     0.235 A 
HETATM    6  N2  UNL     1      27.893   1.490  53.044  1.00  0.00    -0.224 NA
HETATM    7  C6  UNL     1      26.523   1.666  52.700  1.00  0.00     0.133 A 
HETATM    8  C14 UNL     1      26.011   0.767  53.317  1.00  0.00     0.022 A 
HETATM    9  C15 UNL     1      24.537   0.960  52.950  1.00  0.00     0.109 A 
ENDROOT
BRANCH   7  10
HETATM   10  N3  UNL     1      27.156   2.776  51.936  1.00  0.00    -0.374 N 
HETATM   11  H6  UNL     1      27.773   3.525  51.748  1.00  0.00     0.161 HD
BRANCH  10  12
HETATM   12  C7  UNL     1      26.367   2.707  50.723  1.00  0.00     0.127 C 
BRANCH  12  13
HETATM   13  C8  UNL     1      26.146   3.989  50.036  1.00  0.00     0.018 C 
HETATM   14  C9  UNL     1      27.146   4.296  49.187  1.00  0.00     0.022 C 
BRANCH  14  15
HETATM   15  C10 UNL     1      26.705   5.605  48.632  1.00  0.00    -0.024 C 
BRANCH  15  16
HETATM   16  C11 UNL     1      25.877   6.558  48.261  1.00  0.00    -0.020 C 
BRANCH  16  17
HETATM   17  C12 UNL     1      24.807   7.599  48.106  1.00  0.00     0.100 C 
BRANCH  17  18
HETATM   18  S1  UNL     1      24.416   8.460  49.619  1.00  0.00    -0.170 SA
HETATM   19  C13 UNL     1      23.866   7.418  50.966  1.00  0.00     0.090 C 
ENDBRANCH  17  18
ENDBRANCH  16  17
ENDBRANCH  15  16
ENDBRANCH  14  15
ENDBRANCH  12  13
ENDBRANCH  10  12
ENDBRANCH   7  10
BRANCH   1  20
HETATM   20  O1  UNL     1      22.642  -0.461  53.754  1.00  0.00    -0.360 OA
HETATM   21  C1  UNL     1      21.973  -1.210  54.726  1.00  0.00     0.209 C 
ENDBRANCH   1  20
TORSDOF 8
ENDMDL
MODEL 7
REMARK VINA RESULT:      -5.7      3.555      5.988
REMARK  8 active torsions:
REMARK  status: ('A' for Active; 'I' for Inactive)
REMARK    1  A    between atoms: O1_2  and  C2_3 
REMARK    2  A    between atoms: C6_9  and  N3_10 
REMARK    3  A    between atoms: N3_10  and  C7_11 
REMARK    4  A    between atoms: C7_11  and  C8_12 
REMARK    5  A    between atoms: C9_13  and  C10_14 
REMARK    6  A    between atoms: C10_14  and  C11_15 
REMARK    7  A    between atoms: C11_15  and  C12_16 
REMARK    8  A    between atoms: C12_16  and  S1_17 
ROOT
HETATM    1  C2  UNL     1      26.816   2.299  51.727  1.00  0.00     0.052 A 
HETATM    2  C3  UNL     1      27.510   2.185  52.816  1.00  0.00     0.065 A 
HETATM    3  C4  UNL     1      26.888   1.246  53.711  1.00  0.00     0.071 A 
HETATM    4  N1  UNL     1      26.979   0.653  54.896  1.00  0.00    -0.241 NA
HETATM    5  C5  UNL     1      26.053  -0.219  55.284  1.00  0.00     0.235 A 
HETATM    6  N2  UNL     1      25.001  -0.511  54.469  1.00  0.00    -0.224 NA
HETATM    7  C6  UNL     1      24.817   0.074  53.184  1.00  0.00     0.133 A 
HETATM    8  C14 UNL     1      25.781   0.793  53.115  1.00  0.00     0.022 A 
HETATM    9  C15 UNL     1      25.584   1.418  51.731  1.00  0.00     0.109 A 
ENDROOT
BRANCH   7  10
HETATM   10  N3  UNL     1      23.626  -0.815  53.269  1.00  0.00    -0.374 N 
HETATM   11  H6  UNL     1      23.098  -1.650  53.219  1.00  0.00     0.161 HD
BRANCH  10  12
HETATM   12  C7  UNL     1      22.633   0.160  53.673  1.00  0.00     0.127 C 
BRANCH  12  13
HETATM   13  C8  UNL     1      22.011   0.923  52.580  1.00  0.00     0.018 C 
HETATM   14  C9  UNL     1      21.526   0.126  51.608  1.00  0.00     0.022 C 
BRANCH  14  15
HETATM   15  C10 UNL     1      20.966   1.106  50.638  1.00  0.00    -0.024 C 
BRANCH  15  16
HETATM   16  C11 UNL     1      20.432   2.229  50.207  1.00  0.00    -0.020 C 
BRANCH  16  17
HETATM   17  C12 UNL     1      19.785   3.568  50.005  1.00  0.00     0.100 C 
BRANCH  17  18
HETATM   18  S1  UNL     1      20.752   4.934  50.623  1.00  0.00    -0.170 SA
HETATM   19  C13 UNL     1      21.856   4.535  51.974  1.00  0.00     0.090 C 
ENDBRANCH  17  18
ENDBRANCH  16  17
ENDBRANCH  15  16
ENDBRANCH  14  15
ENDBRANCH  12  13
ENDBRANCH  10  12
ENDBRANCH   7  10
BRANCH   1  20
HETATM   20  O1  UNL     1      27.103   3.093  50.664  1.00  0.00    -0.360 OA
HETATM   21  C1  UNL     1      26.174   3.546  49.723  1.00  0.00     0.209 C 
ENDBRANCH   1  20
TORSDOF 8
ENDMDL
MODEL 8
REMARK VINA RESULT:      -5.7      2.528      3.220
REMARK  8 active torsions:
REMARK  status: ('A' for Active; 'I' for Inactive)
REMARK    1  A    between atoms: O1_2  and  C2_3 
REMARK    2  A    between atoms: C6_9  and  N3_10 
REMARK    3  A    between atoms: N3_10  and  C7_11 
REMARK    4  A    between atoms: C7_11  and  C8_12 
REMARK    5  A    between atoms: C9_13  and  C10_14 
REMARK    6  A    between atoms: C10_14  and  C11_15 
REMARK    7  A    between atoms: C11_15  and  C12_16 
REMARK    8  A    between atoms: C12_16  and  S1_17 
ROOT
HETATM    1  C2  UNL     1      22.255   0.369  53.045  1.00  0.00     0.052 A 
HETATM    2  C3  UNL     1      21.258   1.173  52.845  1.00  0.00     0.065 A 
HETATM    3  C4  UNL     1      21.726   2.434  52.336  1.00  0.00     0.071 A 
HETATM    4  N1  UNL     1      21.357   3.643  51.928  1.00  0.00    -0.241 NA
HETATM    5  C5  UNL     1      22.268   4.522  51.520  1.00  0.00     0.235 A 
HETATM    6  N2  UNL     1      23.589   4.188  51.517  1.00  0.00    -0.224 NA
HETATM    7  C6  UNL     1      24.080   2.920  51.936  1.00  0.00     0.133 A 
HETATM    8  C14 UNL     1      23.056   2.361  52.237  1.00  0.00     0.022 A 
HETATM    9  C15 UNL     1      23.586   0.996  52.683  1.00  0.00     0.109 A 
ENDROOT
BRANCH   7  10
HETATM   10  N3  UNL     1      25.346   3.610  51.564  1.00  0.00    -0.374 N 
HETATM   11  H6  UNL     1      26.122   4.216  51.656  1.00  0.00     0.161 HD
BRANCH  10  12
HETATM   12  C7  UNL     1      25.556   3.027  50.255  1.00  0.00     0.127 C 
BRANCH  12  13
HETATM   13  C8  UNL     1      26.616   3.649  49.446  1.00  0.00     0.018 C 
HETATM   14  C9  UNL     1      26.481   4.988  49.365  1.00  0.00     0.022 C 
BRANCH  14  15
HETATM   15  C10 UNL     1      27.638   5.376  48.512  1.00  0.00    -0.024 C 
BRANCH  15  16
HETATM   16  C11 UNL     1      28.883   5.667  48.201  1.00  0.00    -0.020 C 
BRANCH  16  17
HETATM   17  C12 UNL     1      30.249   6.252  47.994  1.00  0.00     0.100 C 
BRANCH  17  18
HETATM   18  S1  UNL     1      30.398   7.943  48.544  1.00  0.00    -0.170 SA
HETATM   19  C13 UNL     1      28.855   8.741  48.974  1.00  0.00     0.090 C 
ENDBRANCH  17  18
ENDBRANCH  16  17
ENDBRANCH  15  16
ENDBRANCH  14  15
ENDBRANCH  12  13
ENDBRANCH  10  12
ENDBRANCH   7  10
BRANCH   1  20
HETATM   20  O1  UNL     1      22.187  -0.903  53.517  1.00  0.00    -0.360 OA
HETATM   21  C1  UNL     1      21.113  -1.440  54.232  1.00  0.00     0.209 C 
ENDBRANCH   1  20
TORSDOF 8
ENDMDL
MODEL 9
REMARK VINA RESULT:      -5.6      3.586      4.221
REMARK  8 active torsions:
REMARK  status: ('A' for Active; 'I' for Inactive)
REMARK    1  A    between atoms: O1_2  and  C2_3 
REMARK    2  A    between atoms: C6_9  and  N3_10 
REMARK    3  A    between atoms: N3_10  and  C7_11 
REMARK    4  A    between atoms: C7_11  and  C8_12 
REMARK    5  A    between atoms: C9_13  and  C10_14 
REMARK    6  A    between atoms: C10_14  and  C11_15 
REMARK    7  A    between atoms: C11_15  and  C12_16 
REMARK    8  A    between atoms: C12_16  and  S1_17 
ROOT
HETATM    1  C2  UNL     1      25.329  -0.576  54.732  1.00  0.00     0.052 A 
HETATM    2  C3  UNL     1      24.515  -1.257  55.476  1.00  0.00     0.065 A 
HETATM    3  C4  UNL     1      23.184  -1.217  54.931  1.00  0.00     0.071 A 
HETATM    4  N1  UNL     1      21.930  -1.622  55.099  1.00  0.00    -0.241 NA
HETATM    5  C5  UNL     1      20.989  -1.273  54.227  1.00  0.00     0.235 A 
HETATM    6  N2  UNL     1      21.303  -0.495  53.154  1.00  0.00    -0.224 NA
HETATM    7  C6  UNL     1      22.616  -0.011  52.891  1.00  0.00     0.133 A 
HETATM    8  C14 UNL     1      23.226  -0.477  53.819  1.00  0.00     0.022 A 
HETATM    9  C15 UNL     1      24.638   0.040  53.532  1.00  0.00     0.109 A 
ENDROOT
BRANCH   7  10
HETATM   10  N3  UNL     1      21.862   0.564  51.743  1.00  0.00    -0.374 N 
HETATM   11  H6  UNL     1      21.464   0.615  50.839  1.00  0.00     0.161 HD
BRANCH  10  12
HETATM   12  C7  UNL     1      21.494   1.841  52.320  1.00  0.00     0.127 C 
BRANCH  12  13
HETATM   13  C8  UNL     1      22.213   3.009  51.789  1.00  0.00     0.018 C 
HETATM   14  C9  UNL     1      23.165   3.453  52.633  1.00  0.00     0.022 C 
BRANCH  14  15
HETATM   15  C10 UNL     1      23.734   4.613  51.893  1.00  0.00    -0.024 C 
BRANCH  15  16
HETATM   16  C11 UNL     1      23.807   5.832  51.402  1.00  0.00    -0.020 C 
BRANCH  16  17
HETATM   17  C12 UNL     1      23.608   7.174  50.760  1.00  0.00     0.100 C 
BRANCH  17  18
HETATM   18  S1  UNL     1      22.030   7.354  49.946  1.00  0.00    -0.170 SA
HETATM   19  C13 UNL     1      21.704   8.977  49.268  1.00  0.00     0.090 C 
ENDBRANCH  17  18
ENDBRANCH  16  17
ENDBRANCH  15  16
ENDBRANCH  14  15
ENDBRANCH  12  13
ENDBRANCH  10  12
ENDBRANCH   7  10
BRANCH   1  20
HETATM   20  O1  UNL     1      26.659  -0.398  54.940  1.00  0.00    -0.360 OA
HETATM   21  C1  UNL     1      27.547   0.174  54.024  1.00  0.00     0.209 C 
ENDBRANCH   1  20
TORSDOF 8
ENDMDL
