MODEL 1
REMARK VINA RESULT:      -7.2      0.000      0.000
REMARK  5 active torsions:
REMARK  status: ('A' for Active; 'I' for Inactive)
REMARK    1  A    between atoms: C2_2  and  O1_3 
REMARK    2  A    between atoms: O1_3  and  C3_4 
REMARK    3  A    between atoms: N1_7  and  C6_8 
REMARK    4  A    between atoms: C11_15  and  O3_16 
REMARK    5  A    between atoms: C16_21  and  O4_22 
ROOT
HETATM    1  C6  UNL     1      26.137   2.364  51.677  1.00  0.00     0.134 C 
HETATM    2  N2  UNL     1      26.903   3.203  51.022  1.00  0.00    -0.233 NA
HETATM    3  C7  UNL     1      26.715   4.081  49.900  1.00  0.00     0.069 A 
HETATM    4  C8  UNL     1      26.946   4.730  48.684  1.00  0.00     0.042 A 
HETATM    5  C9  UNL     1      25.736   5.008  49.537  1.00  0.00     0.205 A 
HETATM    6  O2  UNL     1      24.495   4.461  49.073  1.00  0.00    -0.334 OA
HETATM    7  C10 UNL     1      23.761   3.349  49.530  1.00  0.00     0.092 C 
HETATM    8  C11 UNL     1      22.740   3.103  48.693  1.00  0.00     0.170 C 
HETATM    9  C13 UNL     1      23.781   2.394  50.632  1.00  0.00     0.042 C 
HETATM   10  C14 UNL     1      24.736   2.015  51.475  1.00  0.00     0.054 C 
ENDROOT
BRANCH   1  11
HETATM   11  N1  UNL     1      26.811   1.721  52.733  1.00  0.00    -0.315 N 
HETATM   12  C5  UNL     1      28.174   2.059  52.973  1.00  0.00     0.097 A 
HETATM   13  C4  UNL     1      28.751   1.422  53.976  1.00  0.00     0.029 A 
HETATM   14  C3  UNL     1      28.173   0.402  54.888  1.00  0.00     0.203 A 
HETATM   15  C16 UNL     1      26.761   0.187  54.483  1.00  0.00     0.094 A 
HETATM   16  C15 UNL     1      26.102   0.776  53.498  1.00  0.00     0.133 A 
BRANCH  14  17
HETATM   17  O1  UNL     1      28.900  -0.754  54.854  1.00  0.00    -0.376 OA
BRANCH  17  18
HETATM   18  C2  UNL     1      29.372  -1.084  53.590  1.00  0.00     0.164 C 
HETATM   19  C1  UNL     1      28.987  -2.440  53.105  1.00  0.00     0.033 C 
ENDBRANCH  17  18
ENDBRANCH  14  17
BRANCH  15  20
HETATM   20  O4  UNL     1      26.167  -0.766  55.311  1.00  0.00    -0.356 OA
HETATM   21  C17 UNL     1      24.786  -1.017  55.050  1.00  0.00     0.209 C 
ENDBRANCH  15  20
ENDBRANCH   1  11
BRANCH   8  22
HETATM   22  O3  UNL     1      22.611   3.943  47.603  1.00  0.00    -0.365 OA
HETATM   23  C12 UNL     1      21.865   3.689  46.448  1.00  0.00     0.209 C 
ENDBRANCH   8  22
TORSDOF 5
ENDMDL
MODEL 2
REMARK VINA RESULT:      -7.2      4.197      5.476
REMARK  5 active torsions:
REMARK  status: ('A' for Active; 'I' for Inactive)
REMARK    1  A    between atoms: C2_2  and  O1_3 
REMARK    2  A    between atoms: O1_3  and  C3_4 
REMARK    3  A    between atoms: N1_7  and  C6_8 
REMARK    4  A    between atoms: C11_15  and  O3_16 
REMARK    5  A    between atoms: C16_21  and  O4_22 
ROOT
HETATM    1  C6  UNL     1      22.819   0.310  52.702  1.00  0.00     0.134 C 
HETATM    2  N2  UNL     1      22.468   0.910  51.590  1.00  0.00    -0.233 NA
HETATM    3  C7  UNL     1      21.222   1.135  50.911  1.00  0.00     0.069 A 
HETATM    4  C8  UNL     1      20.279   1.206  49.881  1.00  0.00     0.042 A 
HETATM    5  C9  UNL     1      19.957   1.572  51.307  1.00  0.00     0.205 A 
HETATM    6  O2  UNL     1      19.167   0.629  52.041  1.00  0.00    -0.334 OA
HETATM    7  C10 UNL     1      19.541  -0.290  53.041  1.00  0.00     0.092 C 
HETATM    8  C11 UNL     1      18.503  -1.093  53.331  1.00  0.00     0.170 C 
HETATM    9  C13 UNL     1      20.708  -0.626  53.847  1.00  0.00     0.042 C 
HETATM   10  C14 UNL     1      22.005  -0.379  53.696  1.00  0.00     0.054 C 
ENDROOT
BRANCH   1  11
HETATM   11  N1  UNL     1      24.206   0.364  52.935  1.00  0.00    -0.315 N 
HETATM   12  C5  UNL     1      24.762  -0.493  53.928  1.00  0.00     0.097 A 
HETATM   13  C4  UNL     1      26.068  -0.397  54.101  1.00  0.00     0.029 A 
HETATM   14  C3  UNL     1      27.037   0.483  53.399  1.00  0.00     0.203 A 
HETATM   15  C16 UNL     1      26.277   1.292  52.412  1.00  0.00     0.094 A 
HETATM   16  C15 UNL     1      24.976   1.263  52.172  1.00  0.00     0.133 A 
BRANCH  14  17
HETATM   17  O1  UNL     1      27.721   1.265  54.286  1.00  0.00    -0.376 OA
BRANCH  17  18
HETATM   18  C2  UNL     1      28.905   0.695  54.738  1.00  0.00     0.164 C 
HETATM   19  C1  UNL     1      29.719   0.013  53.692  1.00  0.00     0.033 C 
ENDBRANCH  17  18
ENDBRANCH  14  17
BRANCH  15  20
HETATM   20  O4  UNL     1      27.142   2.141  51.722  1.00  0.00    -0.356 OA
HETATM   21  C17 UNL     1      26.521   2.971  50.741  1.00  0.00     0.209 C 
ENDBRANCH  15  20
ENDBRANCH   1  11
BRANCH   8  22
HETATM   22  O3  UNL     1      17.331  -0.875  52.632  1.00  0.00    -0.365 OA
HETATM   23  C12 UNL     1      16.265  -1.771  52.507  1.00  0.00     0.209 C 
ENDBRANCH   8  22
TORSDOF 5
ENDMDL
MODEL 3
REMARK VINA RESULT:      -7.0      1.803      3.023
REMARK  5 active torsions:
REMARK  status: ('A' for Active; 'I' for Inactive)
REMARK    1  A    between atoms: C2_2  and  O1_3 
REMARK    2  A    between atoms: O1_3  and  C3_4 
REMARK    3  A    between atoms: N1_7  and  C6_8 
REMARK    4  A    between atoms: C11_15  and  O3_16 
REMARK    5  A    between atoms: C16_21  and  O4_22 
ROOT
HETATM    1  C6  UNL     1      24.057   1.608  51.584  1.00  0.00     0.134 C 
HETATM    2  N2  UNL     1      22.914   0.965  51.568  1.00  0.00    -0.233 NA
HETATM    3  C7  UNL     1      21.751   0.989  50.725  1.00  0.00     0.069 A 
HETATM    4  C8  UNL     1      20.409   1.022  50.336  1.00  0.00     0.042 A 
HETATM    5  C9  UNL     1      21.542   0.982  49.345  1.00  0.00     0.205 A 
HETATM    6  O2  UNL     1      21.830   2.208  48.660  1.00  0.00    -0.334 OA
HETATM    7  C10 UNL     1      22.877   3.131  48.844  1.00  0.00     0.092 C 
HETATM    8  C11 UNL     1      22.659   4.222  48.092  1.00  0.00     0.170 C 
HETATM    9  C13 UNL     1      24.117   3.253  49.601  1.00  0.00     0.042 C 
HETATM   10  C14 UNL     1      24.569   2.639  50.690  1.00  0.00     0.054 C 
ENDROOT
BRANCH   1  11
HETATM   11  N1  UNL     1      24.890   1.213  52.649  1.00  0.00    -0.315 N 
HETATM   12  C5  UNL     1      26.107   1.920  52.858  1.00  0.00     0.097 A 
HETATM   13  C4  UNL     1      26.845   1.502  53.871  1.00  0.00     0.029 A 
HETATM   14  C3  UNL     1      26.576   0.394  54.823  1.00  0.00     0.203 A 
HETATM   15  C16 UNL     1      25.276  -0.216  54.446  1.00  0.00     0.094 A 
HETATM   16  C15 UNL     1      24.474   0.135  53.454  1.00  0.00     0.133 A 
BRANCH  14  17
HETATM   17  O1  UNL     1      27.594  -0.518  54.813  1.00  0.00    -0.376 OA
BRANCH  17  18
HETATM   18  C2  UNL     1      28.845   0.041  54.582  1.00  0.00     0.164 C 
HETATM   19  C1  UNL     1      29.792  -0.822  53.819  1.00  0.00     0.033 C 
ENDBRANCH  17  18
ENDBRANCH  14  17
BRANCH  15  20
HETATM   20  O4  UNL     1      24.974  -1.267  55.312  1.00  0.00    -0.356 OA
HETATM   21  C17 UNL     1      23.589  -1.413  55.626  1.00  0.00     0.209 C 
ENDBRANCH  15  20
ENDBRANCH   1  11
BRANCH   8  22
HETATM   22  O3  UNL     1      21.510   4.230  47.323  1.00  0.00    -0.365 OA
HETATM   23  C12 UNL     1      20.462   5.151  47.413  1.00  0.00     0.209 C 
ENDBRANCH   8  22
TORSDOF 5
ENDMDL
MODEL 4
REMARK VINA RESULT:      -7.0      3.677      4.827
REMARK  5 active torsions:
REMARK  status: ('A' for Active; 'I' for Inactive)
REMARK    1  A    between atoms: C2_2  and  O1_3 
REMARK    2  A    between atoms: O1_3  and  C3_4 
REMARK    3  A    between atoms: N1_7  and  C6_8 
REMARK    4  A    between atoms: C11_15  and  O3_16 
REMARK    5  A    between atoms: C16_21  and  O4_22 
ROOT
HETATM    1  C6  UNL     1      22.816   1.404  52.811  1.00  0.00     0.134 C 
HETATM    2  N2  UNL     1      22.089   0.345  53.079  1.00  0.00    -0.233 NA
HETATM    3  C7  UNL     1      20.702   0.005  52.922  1.00  0.00     0.069 A 
HETATM    4  C8  UNL     1      19.424  -0.477  53.219  1.00  0.00     0.042 A 
HETATM    5  C9  UNL     1      19.775   0.129  51.885  1.00  0.00     0.205 A 
HETATM    6  O2  UNL     1      19.281   1.452  51.640  1.00  0.00    -0.334 OA
HETATM    7  C10 UNL     1      19.949   2.692  51.653  1.00  0.00     0.092 C 
HETATM    8  C11 UNL     1      19.058   3.690  51.532  1.00  0.00     0.170 C 
HETATM    9  C13 UNL     1      21.308   3.209  51.759  1.00  0.00     0.042 C 
HETATM   10  C14 UNL     1      22.436   2.682  52.223  1.00  0.00     0.054 C 
ENDROOT
BRANCH   1  11
HETATM   11  N1  UNL     1      24.170   1.237  53.163  1.00  0.00    -0.315 N 
HETATM   12  C5  UNL     1      24.952   2.399  53.420  1.00  0.00     0.097 A 
HETATM   13  C4  UNL     1      26.213   2.178  53.745  1.00  0.00     0.029 A 
HETATM   14  C3  UNL     1      26.926   0.882  53.880  1.00  0.00     0.203 A 
HETATM   15  C16 UNL     1      25.955  -0.199  53.577  1.00  0.00     0.094 A 
HETATM   16  C15 UNL     1      24.680  -0.073  53.245  1.00  0.00     0.133 A 
BRANCH  14  17
HETATM   17  O1  UNL     1      28.019   0.836  53.062  1.00  0.00    -0.376 OA
BRANCH  17  18
HETATM   18  C2  UNL     1      29.228   0.766  53.743  1.00  0.00     0.164 C 
HETATM   19  C1  UNL     1      29.980  -0.510  53.569  1.00  0.00     0.033 C 
ENDBRANCH  17  18
ENDBRANCH  14  17
BRANCH  15  20
HETATM   20  O4  UNL     1      26.575  -1.444  53.690  1.00  0.00    -0.356 OA
HETATM   21  C17 UNL     1      26.768  -2.137  52.457  1.00  0.00     0.209 C 
ENDBRANCH  15  20
ENDBRANCH   1  11
BRANCH   8  22
HETATM   22  O3  UNL     1      17.729   3.329  51.422  1.00  0.00    -0.365 OA
HETATM   23  C12 UNL     1      16.629   4.102  51.807  1.00  0.00     0.209 C 
ENDBRANCH   8  22
TORSDOF 5
ENDMDL
MODEL 5
REMARK VINA RESULT:      -6.8      4.079      7.511
REMARK  5 active torsions:
REMARK  status: ('A' for Active; 'I' for Inactive)
REMARK    1  A    between atoms: C2_2  and  O1_3 
REMARK    2  A    between atoms: O1_3  and  C3_4 
REMARK    3  A    between atoms: N1_7  and  C6_8 
REMARK    4  A    between atoms: C11_15  and  O3_16 
REMARK    5  A    between atoms: C16_21  and  O4_22 
ROOT
HETATM    1  C6  UNL     1      23.641   0.362  53.012  1.00  0.00     0.134 C 
HETATM    2  N2  UNL     1      24.049   1.210  52.098  1.00  0.00    -0.233 NA
HETATM    3  C7  UNL     1      25.331   1.707  51.678  1.00  0.00     0.069 A 
HETATM    4  C8  UNL     1      26.334   2.601  51.295  1.00  0.00     0.042 A 
HETATM    5  C9  UNL     1      26.563   1.116  51.390  1.00  0.00     0.205 A 
HETATM    6  O2  UNL     1      27.321   0.662  52.518  1.00  0.00    -0.334 OA
HETATM    7  C10 UNL     1      26.902   0.022  53.701  1.00  0.00     0.092 C 
HETATM    8  C11 UNL     1      27.932  -0.070  54.558  1.00  0.00     0.170 C 
HETATM    9  C13 UNL     1      25.693  -0.566  54.266  1.00  0.00     0.042 C 
HETATM   10  C14 UNL     1      24.403  -0.418  53.978  1.00  0.00     0.054 C 
ENDROOT
BRANCH   1  11
HETATM   11  N1  UNL     1      22.241   0.212  53.028  1.00  0.00    -0.315 N 
HETATM   12  C5  UNL     1      21.656  -0.591  54.049  1.00  0.00     0.097 A 
HETATM   13  C4  UNL     1      20.340  -0.694  54.011  1.00  0.00     0.029 A 
HETATM   14  C3  UNL     1      19.386  -0.085  53.048  1.00  0.00     0.203 A 
HETATM   15  C16 UNL     1      20.177   0.706  52.072  1.00  0.00     0.094 A 
HETATM   16  C15 UNL     1      21.490   0.865  52.032  1.00  0.00     0.133 A 
BRANCH  14  17
HETATM   17  O1  UNL     1      18.626  -1.044  52.439  1.00  0.00    -0.376 OA
BRANCH  17  18
HETATM   18  C2  UNL     1      17.553  -1.480  53.206  1.00  0.00     0.164 C 
HETATM   19  C1  UNL     1      17.573  -2.929  53.556  1.00  0.00     0.033 C 
ENDBRANCH  17  18
ENDBRANCH  14  17
BRANCH  15  20
HETATM   20  O4  UNL     1      19.326   1.302  51.140  1.00  0.00    -0.356 OA
HETATM   21  C17 UNL     1      18.645   2.468  51.602  1.00  0.00     0.209 C 
ENDBRANCH  15  20
ENDBRANCH   1  11
BRANCH   8  22
HETATM   22  O3  UNL     1      29.140   0.452  54.139  1.00  0.00    -0.365 OA
HETATM   23  C12 UNL     1      30.200  -0.265  53.575  1.00  0.00     0.209 C 
ENDBRANCH   8  22
TORSDOF 5
ENDMDL
MODEL 6
REMARK VINA RESULT:      -6.8      1.786      2.159
REMARK  5 active torsions:
REMARK  status: ('A' for Active; 'I' for Inactive)
REMARK    1  A    between atoms: C2_2  and  O1_3 
REMARK    2  A    between atoms: O1_3  and  C3_4 
REMARK    3  A    between atoms: N1_7  and  C6_8 
REMARK    4  A    between atoms: C11_15  and  O3_16 
REMARK    5  A    between atoms: C16_21  and  O4_22 
ROOT
HETATM    1  C6  UNL     1      24.134   1.825  51.646  1.00  0.00     0.134 C 
HETATM    2  N2  UNL     1      24.578   2.934  51.104  1.00  0.00    -0.233 NA
HETATM    3  C7  UNL     1      24.093   3.829  50.089  1.00  0.00     0.069 A 
HETATM    4  C8  UNL     1      24.077   4.653  48.960  1.00  0.00     0.042 A 
HETATM    5  C9  UNL     1      22.862   4.430  49.821  1.00  0.00     0.205 A 
HETATM    6  O2  UNL     1      21.849   3.573  49.279  1.00  0.00    -0.334 OA
HETATM    7  C10 UNL     1      21.520   2.240  49.593  1.00  0.00     0.092 C 
HETATM    8  C11 UNL     1      20.611   1.778  48.718  1.00  0.00     0.170 C 
HETATM    9  C13 UNL     1      21.868   1.221  50.576  1.00  0.00     0.042 C 
HETATM   10  C14 UNL     1      22.913   1.073  51.384  1.00  0.00     0.054 C 
ENDROOT
BRANCH   1  11
HETATM   11  N1  UNL     1      25.003   1.315  52.629  1.00  0.00    -0.315 N 
HETATM   12  C5  UNL     1      26.289   1.909  52.774  1.00  0.00     0.097 A 
HETATM   13  C4  UNL     1      27.057   1.387  53.713  1.00  0.00     0.029 A 
HETATM   14  C3  UNL     1      26.762   0.264  54.639  1.00  0.00     0.203 A 
HETATM   15  C16 UNL     1      25.391  -0.218  54.338  1.00  0.00     0.094 A 
HETATM   16  C15 UNL     1      24.554   0.241  53.422  1.00  0.00     0.133 A 
BRANCH  14  17
HETATM   17  O1  UNL     1      27.694  -0.728  54.520  1.00  0.00    -0.376 OA
BRANCH  17  18
HETATM   18  C2  UNL     1      28.584  -0.539  53.469  1.00  0.00     0.164 C 
HETATM   19  C1  UNL     1      29.988  -0.957  53.746  1.00  0.00     0.033 C 
ENDBRANCH  17  18
ENDBRANCH  14  17
BRANCH  15  20
HETATM   20  O4  UNL     1      25.061  -1.278  55.183  1.00  0.00    -0.356 OA
HETATM   21  C17 UNL     1      23.678  -1.371  55.525  1.00  0.00     0.209 C 
ENDBRANCH  15  20
ENDBRANCH   1  11
BRANCH   8  22
HETATM   22  O3  UNL     1      20.195   2.651  47.731  1.00  0.00    -0.365 OA
HETATM   23  C12 UNL     1      18.898   3.139  47.552  1.00  0.00     0.209 C 
ENDBRANCH   8  22
TORSDOF 5
ENDMDL
MODEL 7
REMARK VINA RESULT:      -6.7      5.058      8.335
REMARK  5 active torsions:
REMARK  status: ('A' for Active; 'I' for Inactive)
REMARK    1  A    between atoms: C2_2  and  O1_3 
REMARK    2  A    between atoms: O1_3  and  C3_4 
REMARK    3  A    between atoms: N1_7  and  C6_8 
REMARK    4  A    between atoms: C11_15  and  O3_16 
REMARK    5  A    between atoms: C16_21  and  O4_22 
ROOT
HETATM    1  C6  UNL     1      21.868   0.491  52.790  1.00  0.00     0.134 C 
HETATM    2  N2  UNL     1      22.166   1.738  52.513  1.00  0.00    -0.233 NA
HETATM    3  C7  UNL     1      23.347   2.548  52.636  1.00  0.00     0.069 A 
HETATM    4  C8  UNL     1      24.170   3.636  52.938  1.00  0.00     0.042 A 
HETATM    5  C9  UNL     1      24.695   2.368  52.318  1.00  0.00     0.205 A 
HETATM    6  O2  UNL     1      25.433   1.496  53.183  1.00  0.00    -0.334 OA
HETATM    7  C10 UNL     1      25.059   0.282  53.789  1.00  0.00     0.092 C 
HETATM    8  C11 UNL     1      26.010  -0.107  54.655  1.00  0.00     0.170 C 
HETATM    9  C13 UNL     1      23.956  -0.671  53.758  1.00  0.00     0.042 C 
HETATM   10  C14 UNL     1      22.693  -0.569  53.357  1.00  0.00     0.054 C 
ENDROOT
BRANCH   1  11
HETATM   11  N1  UNL     1      20.534   0.168  52.477  1.00  0.00    -0.315 N 
HETATM   12  C5  UNL     1      19.990   0.644  51.251  1.00  0.00     0.097 A 
HETATM   13  C4  UNL     1      18.735   0.308  51.014  1.00  0.00     0.029 A 
HETATM   14  C3  UNL     1      17.813  -0.499  51.853  1.00  0.00     0.203 A 
HETATM   15  C16 UNL     1      18.554  -0.900  53.076  1.00  0.00     0.094 A 
HETATM   16  C15 UNL     1      19.805  -0.612  53.396  1.00  0.00     0.133 A 
BRANCH  14  17
HETATM   17  O1  UNL     1      16.676   0.201  52.146  1.00  0.00    -0.376 OA
BRANCH  17  18
HETATM   18  C2  UNL     1      16.253   1.038  51.121  1.00  0.00     0.164 C 
HETATM   19  C1  UNL     1      15.569   2.286  51.566  1.00  0.00     0.033 C 
ENDBRANCH  17  18
ENDBRANCH  14  17
BRANCH  15  20
HETATM   20  O4  UNL     1      17.731  -1.664  53.904  1.00  0.00    -0.356 OA
HETATM   21  C17 UNL     1      17.577  -3.028  53.511  1.00  0.00     0.209 C 
ENDBRANCH  15  20
ENDBRANCH   1  11
BRANCH   8  22
HETATM   22  O3  UNL     1      27.114   0.715  54.778  1.00  0.00    -0.365 OA
HETATM   23  C12 UNL     1      28.449   0.303  54.827  1.00  0.00     0.209 C 
ENDBRANCH   8  22
TORSDOF 5
ENDMDL
MODEL 8
REMARK VINA RESULT:      -6.7      2.723      4.929
REMARK  5 active torsions:
REMARK  status: ('A' for Active; 'I' for Inactive)
REMARK    1  A    between atoms: C2_2  and  O1_3 
REMARK    2  A    between atoms: O1_3  and  C3_4 
REMARK    3  A    between atoms: N1_7  and  C6_8 
REMARK    4  A    between atoms: C11_15  and  O3_16 
REMARK    5  A    between atoms: C16_21  and  O4_22 
ROOT
HETATM    1  C6  UNL     1      25.163   3.917  50.492  1.00  0.00     0.134 C 
HETATM    2  N2  UNL     1      24.544   5.051  50.716  1.00  0.00    -0.233 NA
HETATM    3  C7  UNL     1      24.752   6.415  50.311  1.00  0.00     0.069 A 
HETATM    4  C8  UNL     1      24.875   7.805  50.386  1.00  0.00     0.042 A 
HETATM    5  C9  UNL     1      25.036   7.043  49.097  1.00  0.00     0.205 A 
HETATM    6  O2  UNL     1      26.376   6.894  48.611  1.00  0.00    -0.334 OA
HETATM    7  C10 UNL     1      27.233   5.777  48.628  1.00  0.00     0.092 C 
HETATM    8  C11 UNL     1      28.459   6.139  48.215  1.00  0.00     0.170 C 
HETATM    9  C13 UNL     1      27.186   4.357  48.957  1.00  0.00     0.042 C 
HETATM   10  C14 UNL     1      26.354   3.635  49.701  1.00  0.00     0.054 C 
ENDROOT
BRANCH   1  11
HETATM   11  N1  UNL     1      24.547   2.826  51.134  1.00  0.00    -0.315 N 
HETATM   12  C5  UNL     1      23.253   2.422  50.697  1.00  0.00     0.097 A 
HETATM   13  C4  UNL     1      22.729   1.393  51.339  1.00  0.00     0.029 A 
HETATM   14  C3  UNL     1      23.306   0.599  52.453  1.00  0.00     0.203 A 
HETATM   15  C16 UNL     1      24.643   1.165  52.763  1.00  0.00     0.094 A 
HETATM   16  C15 UNL     1      25.245   2.187  52.177  1.00  0.00     0.133 A 
BRANCH  14  17
HETATM   17  O1  UNL     1      22.478   0.607  53.541  1.00  0.00    -0.376 OA
BRANCH  17  18
HETATM   18  C2  UNL     1      21.834  -0.603  53.766  1.00  0.00     0.164 C 
HETATM   19  C1  UNL     1      22.311  -1.362  54.957  1.00  0.00     0.033 C 
ENDBRANCH  17  18
ENDBRANCH  14  17
BRANCH  15  20
HETATM   20  O4  UNL     1      25.232   0.453  53.808  1.00  0.00    -0.356 OA
HETATM   21  C17 UNL     1      25.786  -0.811  53.442  1.00  0.00     0.209 C 
ENDBRANCH  15  20
ENDBRANCH   1  11
BRANCH   8  22
HETATM   22  O3  UNL     1      28.636   7.465  47.871  1.00  0.00    -0.365 OA
HETATM   23  C12 UNL     1      29.528   8.362  48.466  1.00  0.00     0.209 C 
ENDBRANCH   8  22
TORSDOF 5
ENDMDL
MODEL 9
REMARK VINA RESULT:      -6.4      3.807      5.301
REMARK  5 active torsions:
REMARK  status: ('A' for Active; 'I' for Inactive)
REMARK    1  A    between atoms: C2_2  and  O1_3 
REMARK    2  A    between atoms: O1_3  and  C3_4 
REMARK    3  A    between atoms: N1_7  and  C6_8 
REMARK    4  A    between atoms: C11_15  and  O3_16 
REMARK    5  A    between atoms: C16_21  and  O4_22 
ROOT
HETATM    1  C6  UNL     1      24.751   3.851  50.852  1.00  0.00     0.134 C 
HETATM    2  N2  UNL     1      24.316   5.085  50.948  1.00  0.00    -0.233 NA
HETATM    3  C7  UNL     1      24.729   6.348  50.401  1.00  0.00     0.069 A 
HETATM    4  C8  UNL     1      25.065   7.703  50.328  1.00  0.00     0.042 A 
HETATM    5  C9  UNL     1      25.097   6.791  49.129  1.00  0.00     0.205 A 
HETATM    6  O2  UNL     1      26.394   6.386  48.674  1.00  0.00    -0.334 OA
HETATM    7  C10 UNL     1      27.069   5.159  48.819  1.00  0.00     0.092 C 
HETATM    8  C11 UNL     1      28.333   5.280  48.381  1.00  0.00     0.170 C 
HETATM    9  C13 UNL     1      26.806   3.807  49.298  1.00  0.00     0.042 C 
HETATM   10  C14 UNL     1      25.879   3.306  50.107  1.00  0.00     0.054 C 
ENDROOT
BRANCH   1  11
HETATM   11  N1  UNL     1      23.979   2.943  51.602  1.00  0.00    -0.315 N 
HETATM   12  C5  UNL     1      24.631   1.821  52.190  1.00  0.00     0.097 A 
HETATM   13  C4  UNL     1      23.854   1.006  52.880  1.00  0.00     0.029 A 
HETATM   14  C3  UNL     1      22.393   1.101  53.129  1.00  0.00     0.203 A 
HETATM   15  C16 UNL     1      21.899   2.322  52.444  1.00  0.00     0.094 A 
HETATM   16  C15 UNL     1      22.599   3.192  51.735  1.00  0.00     0.133 A 
BRANCH  14  17
HETATM   17  O1  UNL     1      21.749  -0.026  52.701  1.00  0.00    -0.376 OA
BRANCH  17  18
HETATM   18  C2  UNL     1      22.284  -1.204  53.205  1.00  0.00     0.164 C 
HETATM   19  C1  UNL     1      21.686  -1.672  54.489  1.00  0.00     0.033 C 
ENDBRANCH  17  18
ENDBRANCH  14  17
BRANCH  15  20
HETATM   20  O4  UNL     1      20.525   2.460  52.646  1.00  0.00    -0.356 OA
HETATM   21  C17 UNL     1      19.759   2.675  51.461  1.00  0.00     0.209 C 
ENDBRANCH  15  20
ENDBRANCH   1  11
BRANCH   8  22
HETATM   22  O3  UNL     1      28.710   6.519  47.898  1.00  0.00    -0.365 OA
HETATM   23  C12 UNL     1      30.012   7.026  47.848  1.00  0.00     0.209 C 
ENDBRANCH   8  22
TORSDOF 5
ENDMDL
