MODEL 1
REMARK VINA RESULT:      -8.3      0.000      0.000
REMARK  7 active torsions:
REMARK  status: ('A' for Active; 'I' for Inactive)
REMARK    1  A    between atoms: C4_5  and  C5_6 
REMARK    2  A    between atoms: C6_7  and  N2_8 
REMARK    3  A    between atoms: C6_7  and  C7_9 
REMARK    4  A    between atoms: C7_9  and  C8_10 
REMARK    5  A    between atoms: C13_15  and  N3_16 
REMARK    6  A    between atoms: C14_17  and  N4_18 
REMARK    7  A    between atoms: N4_18  and  C15_19 
ROOT
HETATM    1  C5  UNL     1      25.316   2.393  53.241  1.00  0.00     0.041 C 
HETATM    2  C6  UNL     1      26.416   2.243  52.525  1.00  0.00     0.008 C 
ENDROOT
BRANCH   1   3
HETATM    3  C4  UNL     1      24.063   2.909  52.752  1.00  0.00     0.029 A 
HETATM    4  C3  UNL     1      23.748   4.252  52.713  1.00  0.00     0.134 A 
HETATM    5  N1  UNL     1      22.551   4.692  52.242  1.00  0.00    -0.245 NA
HETATM    6  C2  UNL     1      21.619   3.827  51.791  1.00  0.00     0.124 A 
HETATM    7  C1  UNL     1      20.312   4.310  51.278  1.00  0.00     0.093 C 
HETATM    8  N5  UNL     1      21.913   2.512  51.823  1.00  0.00    -0.215 NA
HETATM    9  C14 UNL     1      23.090   2.037  52.283  1.00  0.00     0.141 A 
BRANCH   9  10
HETATM   10  N4  UNL     1      23.279   0.615  52.263  1.00  0.00    -0.344 N 
HETATM   11  H16 UNL     1      23.800   0.163  51.472  1.00  0.00     0.167 HD
BRANCH  10  12
HETATM   12  C15 UNL     1      22.774  -0.238  53.304  1.00  0.00     0.014 A 
HETATM   13  C16 UNL     1      23.417  -0.741  54.345  1.00  0.00     0.025 A 
HETATM   14  C17 UNL     1      22.529  -1.561  55.162  1.00  0.00    -0.002 A 
HETATM   15  C18 UNL     1      21.326  -1.534  54.575  1.00  0.00    -0.021 A 
HETATM   16  C19 UNL     1      21.342  -0.702  53.344  1.00  0.00     0.084 A 
ENDBRANCH  10  12
ENDBRANCH   9  10
ENDBRANCH   1   3
BRANCH   2  17
HETATM   17  N2  UNL     1      26.513   2.577  51.156  1.00  0.00    -0.402 N 
HETATM   18  H6  UNL     1      26.462   2.509  50.122  1.00  0.00     0.156 HD
HETATM   19  H7  UNL     1      26.903   3.564  51.108  1.00  0.00     0.156 HD
ENDBRANCH   2  17
BRANCH   2  20
HETATM   20  C7  UNL     1      27.652   1.700  53.141  1.00  0.00     0.097 C 
BRANCH  20  21
HETATM   21  C8  UNL     1      27.677   0.214  53.002  1.00  0.00    -0.026 A 
HETATM   22  C9  UNL     1      26.668  -0.653  52.634  1.00  0.00     0.010 A 
HETATM   23  C10 UNL     1      26.943  -1.991  52.579  1.00  0.00     0.001 A 
HETATM   24  C11 UNL     1      28.164  -2.533  52.866  1.00  0.00     0.002 A 
HETATM   25  C12 UNL     1      29.200  -1.671  53.239  1.00  0.00     0.029 A 
HETATM   26  C13 UNL     1      28.935  -0.304  53.301  1.00  0.00     0.032 A 
BRANCH  26  27
HETATM   27  N3  UNL     1      30.082   0.474  53.699  1.00  0.00    -0.399 N 
HETATM   28  H14 UNL     1      30.092   1.523  53.681  1.00  0.00     0.156 HD
HETATM   29  H15 UNL     1      31.057   0.268  54.055  1.00  0.00     0.156 HD
ENDBRANCH  26  27
ENDBRANCH  20  21
ENDBRANCH   2  20
TORSDOF 7
ENDMDL
MODEL 2
REMARK VINA RESULT:      -7.8      2.752      6.092
REMARK  7 active torsions:
REMARK  status: ('A' for Active; 'I' for Inactive)
REMARK    1  A    between atoms: C4_5  and  C5_6 
REMARK    2  A    between atoms: C6_7  and  N2_8 
REMARK    3  A    between atoms: C6_7  and  C7_9 
REMARK    4  A    between atoms: C7_9  and  C8_10 
REMARK    5  A    between atoms: C13_15  and  N3_16 
REMARK    6  A    between atoms: C14_17  and  N4_18 
REMARK    7  A    between atoms: N4_18  and  C15_19 
ROOT
HETATM    1  C5  UNL     1      23.406   2.183  50.946  1.00  0.00     0.041 C 
HETATM    2  C6  UNL     1      23.750   3.457  50.997  1.00  0.00     0.008 C 
ENDROOT
BRANCH   1   3
HETATM    3  C4  UNL     1      23.340   1.288  52.072  1.00  0.00     0.029 A 
HETATM    4  C3  UNL     1      22.191   1.050  52.799  1.00  0.00     0.134 A 
HETATM    5  N1  UNL     1      22.178   0.195  53.856  1.00  0.00    -0.245 NA
HETATM    6  C2  UNL     1      23.295  -0.457  54.238  1.00  0.00     0.124 A 
HETATM    7  C1  UNL     1      23.278  -1.390  55.395  1.00  0.00     0.093 C 
HETATM    8  N5  UNL     1      24.425  -0.235  53.538  1.00  0.00    -0.215 NA
HETATM    9  C14 UNL     1      24.477   0.605  52.483  1.00  0.00     0.141 A 
BRANCH   9  10
HETATM   10  N4  UNL     1      25.741   0.754  51.822  1.00  0.00    -0.344 N 
HETATM   11  H16 UNL     1      25.823   0.576  50.791  1.00  0.00     0.167 HD
BRANCH  10  12
HETATM   12  C15 UNL     1      26.932   1.146  52.527  1.00  0.00     0.014 A 
HETATM   13  C16 UNL     1      27.372   2.366  52.791  1.00  0.00     0.025 A 
HETATM   14  C17 UNL     1      28.627   2.320  53.532  1.00  0.00    -0.002 A 
HETATM   15  C18 UNL     1      28.928   1.027  53.706  1.00  0.00    -0.021 A 
HETATM   16  C19 UNL     1      27.900   0.144  53.096  1.00  0.00     0.084 A 
ENDBRANCH  10  12
ENDBRANCH   9  10
ENDBRANCH   1   3
BRANCH   2  17
HETATM   17  N2  UNL     1      24.106   4.127  52.189  1.00  0.00    -0.402 N 
HETATM   18  H6  UNL     1      24.348   4.304  53.181  1.00  0.00     0.156 HD
HETATM   19  H7  UNL     1      24.194   5.157  51.946  1.00  0.00     0.156 HD
ENDBRANCH   2  17
BRANCH   2  20
HETATM   20  C7  UNL     1      23.782   4.283  49.764  1.00  0.00     0.097 C 
BRANCH  20  21
HETATM   21  C8  UNL     1      25.196   4.563  49.379  1.00  0.00    -0.026 A 
HETATM   22  C9  UNL     1      26.303   3.740  49.429  1.00  0.00     0.010 A 
HETATM   23  C10 UNL     1      27.508   4.236  49.015  1.00  0.00     0.001 A 
HETATM   24  C11 UNL     1      27.692   5.507  48.549  1.00  0.00     0.002 A 
HETATM   25  C12 UNL     1      26.582   6.357  48.490  1.00  0.00     0.029 A 
HETATM   26  C13 UNL     1      25.347   5.866  48.909  1.00  0.00     0.032 A 
BRANCH  26  27
HETATM   27  N3  UNL     1      24.289   6.839  48.800  1.00  0.00    -0.399 N 
HETATM   28  H14 UNL     1      23.395   6.651  48.283  1.00  0.00     0.156 HD
HETATM   29  H15 UNL     1      24.124   7.829  49.135  1.00  0.00     0.156 HD
ENDBRANCH  26  27
ENDBRANCH  20  21
ENDBRANCH   2  20
TORSDOF 7
ENDMDL
MODEL 3
REMARK VINA RESULT:      -7.7      2.390      4.305
REMARK  7 active torsions:
REMARK  status: ('A' for Active; 'I' for Inactive)
REMARK    1  A    between atoms: C4_5  and  C5_6 
REMARK    2  A    between atoms: C6_7  and  N2_8 
REMARK    3  A    between atoms: C6_7  and  C7_9 
REMARK    4  A    between atoms: C7_9  and  C8_10 
REMARK    5  A    between atoms: C13_15  and  N3_16 
REMARK    6  A    between atoms: C14_17  and  N4_18 
REMARK    7  A    between atoms: N4_18  and  C15_19 
ROOT
HETATM    1  C5  UNL     1      25.617   1.377  51.895  1.00  0.00     0.041 C 
HETATM    2  C6  UNL     1      25.932   1.300  53.175  1.00  0.00     0.008 C 
ENDROOT
BRANCH   1   3
HETATM    3  C4  UNL     1      25.618   2.580  51.104  1.00  0.00     0.029 A 
HETATM    4  C3  UNL     1      26.706   3.022  50.379  1.00  0.00     0.134 A 
HETATM    5  N1  UNL     1      26.659   4.167  49.646  1.00  0.00    -0.245 NA
HETATM    6  C2  UNL     1      25.540   4.919  49.599  1.00  0.00     0.124 A 
HETATM    7  C1  UNL     1      25.492   6.169  48.798  1.00  0.00     0.093 C 
HETATM    8  N5  UNL     1      24.469   4.499  50.302  1.00  0.00    -0.215 NA
HETATM    9  C14 UNL     1      24.477   3.369  51.040  1.00  0.00     0.141 A 
BRANCH   9  10
HETATM   10  N4  UNL     1      23.272   3.032  51.741  1.00  0.00    -0.344 N 
HETATM   11  H16 UNL     1      23.119   3.372  52.723  1.00  0.00     0.167 HD
BRANCH  10  12
HETATM   12  C15 UNL     1      22.239   2.229  51.145  1.00  0.00     0.014 A 
HETATM   13  C16 UNL     1      22.282   1.528  50.024  1.00  0.00     0.025 A 
HETATM   14  C17 UNL     1      21.011   0.853  49.781  1.00  0.00    -0.002 A 
HETATM   15  C18 UNL     1      20.200   1.174  50.797  1.00  0.00    -0.021 A 
HETATM   16  C19 UNL     1      20.878   2.072  51.768  1.00  0.00     0.084 A 
ENDBRANCH  10  12
ENDBRANCH   9  10
ENDBRANCH   1   3
BRANCH   2  17
HETATM   17  N2  UNL     1      26.321   2.410  53.956  1.00  0.00    -0.402 N 
HETATM   18  H6  UNL     1      26.418   3.064  54.756  1.00  0.00     0.156 HD
HETATM   19  H7  UNL     1      26.934   3.020  53.338  1.00  0.00     0.156 HD
ENDBRANCH   2  17
BRANCH   2  20
HETATM   20  C7  UNL     1      25.893  -0.002  53.888  1.00  0.00     0.097 C 
BRANCH  20  21
HETATM   21  C8  UNL     1      24.482  -0.476  54.000  1.00  0.00    -0.026 A 
HETATM   22  C9  UNL     1      23.450  -0.396  53.087  1.00  0.00     0.010 A 
HETATM   23  C10 UNL     1      22.231  -0.911  53.430  1.00  0.00     0.001 A 
HETATM   24  C11 UNL     1      21.963  -1.506  54.630  1.00  0.00     0.002 A 
HETATM   25  C12 UNL     1      22.996  -1.597  55.570  1.00  0.00     0.029 A 
HETATM   26  C13 UNL     1      24.244  -1.076  55.235  1.00  0.00     0.032 A 
BRANCH  26  27
HETATM   27  N3  UNL     1      25.218  -1.232  56.286  1.00  0.00    -0.399 N 
HETATM   28  H14 UNL     1      25.050  -1.825  57.135  1.00  0.00     0.156 HD
HETATM   29  H15 UNL     1      26.194  -0.871  56.482  1.00  0.00     0.156 HD
ENDBRANCH  26  27
ENDBRANCH  20  21
ENDBRANCH   2  20
TORSDOF 7
ENDMDL
MODEL 4
REMARK VINA RESULT:      -7.7      1.698      2.427
REMARK  7 active torsions:
REMARK  status: ('A' for Active; 'I' for Inactive)
REMARK    1  A    between atoms: C4_5  and  C5_6 
REMARK    2  A    between atoms: C6_7  and  N2_8 
REMARK    3  A    between atoms: C6_7  and  C7_9 
REMARK    4  A    between atoms: C7_9  and  C8_10 
REMARK    5  A    between atoms: C13_15  and  N3_16 
REMARK    6  A    between atoms: C14_17  and  N4_18 
REMARK    7  A    between atoms: N4_18  and  C15_19 
ROOT
HETATM    1  C5  UNL     1      24.214   1.183  53.218  1.00  0.00     0.041 C 
HETATM    2  C6  UNL     1      25.280   0.600  52.698  1.00  0.00     0.008 C 
ENDROOT
BRANCH   1   3
HETATM    3  C4  UNL     1      23.546   2.339  52.677  1.00  0.00     0.029 A 
HETATM    4  C3  UNL     1      23.902   3.640  52.970  1.00  0.00     0.134 A 
HETATM    5  N1  UNL     1      23.239   4.700  52.434  1.00  0.00    -0.245 NA
HETATM    6  C2  UNL     1      22.203   4.519  51.590  1.00  0.00     0.124 A 
HETATM    7  C1  UNL     1      21.481   5.679  51.006  1.00  0.00     0.093 C 
HETATM    8  N5  UNL     1      21.844   3.254  51.294  1.00  0.00    -0.215 NA
HETATM    9  C14 UNL     1      22.477   2.177  51.805  1.00  0.00     0.141 A 
BRANCH   9  10
HETATM   10  N4  UNL     1      21.998   0.883  51.412  1.00  0.00    -0.344 N 
HETATM   11  H16 UNL     1      22.539   0.308  50.720  1.00  0.00     0.167 HD
BRANCH  10  12
HETATM   12  C15 UNL     1      20.780   0.327  51.934  1.00  0.00     0.014 A 
HETATM   13  C16 UNL     1      19.573   0.326  51.391  1.00  0.00     0.025 A 
HETATM   14  C17 UNL     1      18.611  -0.348  52.256  1.00  0.00    -0.002 A 
HETATM   15  C18 UNL     1      19.282  -0.754  53.341  1.00  0.00    -0.021 A 
HETATM   16  C19 UNL     1      20.717  -0.377  53.263  1.00  0.00     0.084 A 
ENDBRANCH  10  12
ENDBRANCH   9  10
ENDBRANCH   1   3
BRANCH   2  17
HETATM   17  N2  UNL     1      25.919   1.041  51.519  1.00  0.00    -0.402 N 
HETATM   18  H6  UNL     1      26.215   1.643  50.727  1.00  0.00     0.156 HD
HETATM   19  H7  UNL     1      26.511   0.231  51.169  1.00  0.00     0.156 HD
ENDBRANCH   2  17
BRANCH   2  20
HETATM   20  C7  UNL     1      25.884  -0.590  53.348  1.00  0.00     0.097 C 
BRANCH  20  21
HETATM   21  C8  UNL     1      27.355  -0.391  53.501  1.00  0.00    -0.026 A 
HETATM   22  C9  UNL     1      28.057   0.731  53.891  1.00  0.00     0.010 A 
HETATM   23  C10 UNL     1      29.421   0.662  53.953  1.00  0.00     0.001 A 
HETATM   24  C11 UNL     1      30.144  -0.458  53.654  1.00  0.00     0.002 A 
HETATM   25  C12 UNL     1      29.451  -1.607  53.258  1.00  0.00     0.029 A 
HETATM   26  C13 UNL     1      28.060  -1.551  53.188  1.00  0.00     0.032 A 
BRANCH  26  27
HETATM   27  N3  UNL     1      27.468  -2.797  52.767  1.00  0.00    -0.399 N 
HETATM   28  H14 UNL     1      26.727  -3.291  53.322  1.00  0.00     0.156 HD
HETATM   29  H15 UNL     1      27.576  -3.454  51.944  1.00  0.00     0.156 HD
ENDBRANCH  26  27
ENDBRANCH  20  21
ENDBRANCH   2  20
TORSDOF 7
ENDMDL
MODEL 5
REMARK VINA RESULT:      -7.6      1.443      5.853
REMARK  7 active torsions:
REMARK  status: ('A' for Active; 'I' for Inactive)
REMARK    1  A    between atoms: C4_5  and  C5_6 
REMARK    2  A    between atoms: C6_7  and  N2_8 
REMARK    3  A    between atoms: C6_7  and  C7_9 
REMARK    4  A    between atoms: C7_9  and  C8_10 
REMARK    5  A    between atoms: C13_15  and  N3_16 
REMARK    6  A    between atoms: C14_17  and  N4_18 
REMARK    7  A    between atoms: N4_18  and  C15_19 
ROOT
HETATM    1  C5  UNL     1      25.739   2.487  52.446  1.00  0.00     0.041 C 
HETATM    2  C6  UNL     1      25.559   3.030  51.255  1.00  0.00     0.008 C 
ENDROOT
BRANCH   1   3
HETATM    3  C4  UNL     1      26.824   1.613  52.812  1.00  0.00     0.029 A 
HETATM    4  C3  UNL     1      28.083   2.057  53.163  1.00  0.00     0.134 A 
HETATM    5  N1  UNL     1      29.077   1.192  53.501  1.00  0.00    -0.245 NA
HETATM    6  C2  UNL     1      28.868  -0.141  53.506  1.00  0.00     0.124 A 
HETATM    7  C1  UNL     1      29.956  -1.083  53.876  1.00  0.00     0.093 C 
HETATM    8  N5  UNL     1      27.644  -0.589  53.166  1.00  0.00    -0.215 NA
HETATM    9  C14 UNL     1      26.633   0.238  52.825  1.00  0.00     0.141 A 
BRANCH   9  10
HETATM   10  N4  UNL     1      25.377  -0.364  52.483  1.00  0.00    -0.344 N 
HETATM   11  H16 UNL     1      25.172  -0.632  51.489  1.00  0.00     0.167 HD
BRANCH  10  12
HETATM   12  C15 UNL     1      24.360  -0.623  53.466  1.00  0.00     0.014 A 
HETATM   13  C16 UNL     1      23.045  -0.560  53.330  1.00  0.00     0.025 A 
HETATM   14  C17 UNL     1      22.374  -0.900  54.580  1.00  0.00    -0.002 A 
HETATM   15  C18 UNL     1      23.333  -1.171  55.475  1.00  0.00    -0.021 A 
HETATM   16  C19 UNL     1      24.686  -1.028  54.878  1.00  0.00     0.084 A 
ENDBRANCH  10  12
ENDBRANCH   9  10
ENDBRANCH   1   3
BRANCH   2  17
HETATM   17  N2  UNL     1      26.425   2.822  50.159  1.00  0.00    -0.402 N 
HETATM   18  H6  UNL     1      26.918   2.957  49.256  1.00  0.00     0.156 HD
HETATM   19  H7  UNL     1      26.945   1.914  50.346  1.00  0.00     0.156 HD
ENDBRANCH   2  17
BRANCH   2  20
HETATM   20  C7  UNL     1      24.398   3.917  50.996  1.00  0.00     0.097 C 
BRANCH  20  21
HETATM   21  C8  UNL     1      23.130   3.138  51.106  1.00  0.00    -0.026 A 
HETATM   22  C9  UNL     1      22.769   1.951  50.500  1.00  0.00     0.010 A 
HETATM   23  C10 UNL     1      21.534   1.430  50.764  1.00  0.00     0.001 A 
HETATM   24  C11 UNL     1      20.621   2.012  51.599  1.00  0.00     0.002 A 
HETATM   25  C12 UNL     1      20.968   3.214  52.223  1.00  0.00     0.029 A 
HETATM   26  C13 UNL     1      22.224   3.758  51.963  1.00  0.00     0.032 A 
BRANCH  26  27
HETATM   27  N3  UNL     1      22.457   4.996  52.665  1.00  0.00    -0.399 N 
HETATM   28  H14 UNL     1      21.937   5.881  52.446  1.00  0.00     0.156 HD
HETATM   29  H15 UNL     1      23.088   5.322  53.450  1.00  0.00     0.156 HD
ENDBRANCH  26  27
ENDBRANCH  20  21
ENDBRANCH   2  20
TORSDOF 7
ENDMDL
MODEL 6
REMARK VINA RESULT:      -7.5      3.052      7.844
REMARK  7 active torsions:
REMARK  status: ('A' for Active; 'I' for Inactive)
REMARK    1  A    between atoms: C4_5  and  C5_6 
REMARK    2  A    between atoms: C6_7  and  N2_8 
REMARK    3  A    between atoms: C6_7  and  C7_9 
REMARK    4  A    between atoms: C7_9  and  C8_10 
REMARK    5  A    between atoms: C13_15  and  N3_16 
REMARK    6  A    between atoms: C14_17  and  N4_18 
REMARK    7  A    between atoms: N4_18  and  C15_19 
ROOT
HETATM    1  C5  UNL     1      23.756   3.159  51.975  1.00  0.00     0.041 C 
HETATM    2  C6  UNL     1      23.205   4.333  52.226  1.00  0.00     0.008 C 
ENDROOT
BRANCH   1   3
HETATM    3  C4  UNL     1      25.066   2.742  52.406  1.00  0.00     0.029 A 
HETATM    4  C3  UNL     1      25.377   2.410  53.709  1.00  0.00     0.134 A 
HETATM    5  N1  UNL     1      26.629   2.021  54.068  1.00  0.00    -0.245 NA
HETATM    6  C2  UNL     1      27.622   1.943  53.158  1.00  0.00     0.124 A 
HETATM    7  C1  UNL     1      28.990   1.518  53.553  1.00  0.00     0.093 C 
HETATM    8  N5  UNL     1      27.333   2.264  51.881  1.00  0.00    -0.215 NA
HETATM    9  C14 UNL     1      26.103   2.654  51.487  1.00  0.00     0.141 A 
BRANCH   9  10
HETATM   10  N4  UNL     1      25.925   2.968  50.099  1.00  0.00    -0.344 N 
HETATM   11  H16 UNL     1      25.557   2.243  49.436  1.00  0.00     0.167 HD
BRANCH  10  12
HETATM   12  C15 UNL     1      26.238   4.264  49.561  1.00  0.00     0.014 A 
HETATM   13  C16 UNL     1      25.518   5.374  49.607  1.00  0.00     0.025 A 
HETATM   14  C17 UNL     1      26.206   6.472  48.936  1.00  0.00    -0.002 A 
HETATM   15  C18 UNL     1      27.368   5.983  48.483  1.00  0.00    -0.021 A 
HETATM   16  C19 UNL     1      27.520   4.545  48.824  1.00  0.00     0.084 A 
ENDBRANCH  10  12
ENDBRANCH   9  10
ENDBRANCH   1   3
BRANCH   2  17
HETATM   17  N2  UNL     1      23.838   5.357  52.965  1.00  0.00    -0.402 N 
HETATM   18  H6  UNL     1      24.541   5.872  53.527  1.00  0.00     0.156 HD
HETATM   19  H7  UNL     1      23.168   6.181  52.983  1.00  0.00     0.156 HD
ENDBRANCH   2  17
BRANCH   2  20
HETATM   20  C7  UNL     1      21.843   4.652  51.726  1.00  0.00     0.097 C 
BRANCH  20  21
HETATM   21  C8  UNL     1      21.906   5.014  50.280  1.00  0.00    -0.026 A 
HETATM   22  C9  UNL     1      22.021   4.199  49.172  1.00  0.00     0.010 A 
HETATM   23  C10 UNL     1      22.058   4.778  47.935  1.00  0.00     0.001 A 
HETATM   24  C11 UNL     1      21.987   6.126  47.718  1.00  0.00     0.002 A 
HETATM   25  C12 UNL     1      21.868   6.968  48.829  1.00  0.00     0.029 A 
HETATM   26  C13 UNL     1      21.830   6.393  50.097  1.00  0.00     0.032 A 
BRANCH  26  27
HETATM   27  N3  UNL     1      21.708   7.367  51.153  1.00  0.00    -0.399 N 
HETATM   28  H14 UNL     1      21.304   8.323  51.000  1.00  0.00     0.156 HD
HETATM   29  H15 UNL     1      21.938   7.407  52.185  1.00  0.00     0.156 HD
ENDBRANCH  26  27
ENDBRANCH  20  21
ENDBRANCH   2  20
TORSDOF 7
ENDMDL
MODEL 7
REMARK VINA RESULT:      -7.5      2.120      6.557
REMARK  7 active torsions:
REMARK  status: ('A' for Active; 'I' for Inactive)
REMARK    1  A    between atoms: C4_5  and  C5_6 
REMARK    2  A    between atoms: C6_7  and  N2_8 
REMARK    3  A    between atoms: C6_7  and  C7_9 
REMARK    4  A    between atoms: C7_9  and  C8_10 
REMARK    5  A    between atoms: C13_15  and  N3_16 
REMARK    6  A    between atoms: C14_17  and  N4_18 
REMARK    7  A    between atoms: N4_18  and  C15_19 
ROOT
HETATM    1  C5  UNL     1      24.487  -0.123  53.049  1.00  0.00     0.041 C 
HETATM    2  C6  UNL     1      23.663  -0.755  53.865  1.00  0.00     0.008 C 
ENDROOT
BRANCH   1   3
HETATM    3  C4  UNL     1      25.792   0.377  53.400  1.00  0.00     0.029 A 
HETATM    4  C3  UNL     1      26.900  -0.425  53.576  1.00  0.00     0.134 A 
HETATM    5  N1  UNL     1      28.113   0.094  53.908  1.00  0.00    -0.245 NA
HETATM    6  C2  UNL     1      28.279   1.422  54.078  1.00  0.00     0.124 A 
HETATM    7  C1  UNL     1      29.605   1.987  54.440  1.00  0.00     0.093 C 
HETATM    8  N5  UNL     1      27.204   2.218  53.908  1.00  0.00    -0.215 NA
HETATM    9  C14 UNL     1      25.986   1.740  53.579  1.00  0.00     0.141 A 
BRANCH   9  10
HETATM   10  N4  UNL     1      24.924   2.693  53.428  1.00  0.00    -0.344 N 
HETATM   11  H16 UNL     1      24.457   3.102  54.273  1.00  0.00     0.167 HD
BRANCH  10  12
HETATM   12  C15 UNL     1      24.458   3.120  52.136  1.00  0.00     0.014 A 
HETATM   13  C16 UNL     1      24.937   2.811  50.942  1.00  0.00     0.025 A 
HETATM   14  C17 UNL     1      24.167   3.461  49.886  1.00  0.00    -0.002 A 
HETATM   15  C18 UNL     1      23.207   4.174  50.489  1.00  0.00    -0.021 A 
HETATM   16  C19 UNL     1      23.280   4.041  51.967  1.00  0.00     0.084 A 
ENDBRANCH  10  12
ENDBRANCH   9  10
ENDBRANCH   1   3
BRANCH   2  17
HETATM   17  N2  UNL     1      23.956  -1.031  55.219  1.00  0.00    -0.402 N 
HETATM   18  H6  UNL     1      24.483  -1.242  56.087  1.00  0.00     0.156 HD
HETATM   19  H7  UNL     1      23.030  -1.036  55.738  1.00  0.00     0.156 HD
ENDBRANCH   2  17
BRANCH   2  20
HETATM   20  C7  UNL     1      22.338  -1.225  53.388  1.00  0.00     0.097 C 
BRANCH  20  21
HETATM   21  C8  UNL     1      21.661  -0.139  52.621  1.00  0.00    -0.026 A 
HETATM   22  C9  UNL     1      21.758   0.188  51.284  1.00  0.00     0.010 A 
HETATM   23  C10 UNL     1      21.027   1.242  50.813  1.00  0.00     0.001 A 
HETATM   24  C11 UNL     1      20.195   2.002  51.586  1.00  0.00     0.002 A 
HETATM   25  C12 UNL     1      20.082   1.686  52.944  1.00  0.00     0.029 A 
HETATM   26  C13 UNL     1      20.822   0.614  53.439  1.00  0.00     0.032 A 
BRANCH  26  27
HETATM   27  N3  UNL     1      20.617   0.394  54.849  1.00  0.00    -0.399 N 
HETATM   28  H14 UNL     1      21.009   1.030  55.587  1.00  0.00     0.156 HD
HETATM   29  H15 UNL     1      20.117  -0.322  55.446  1.00  0.00     0.156 HD
ENDBRANCH  26  27
ENDBRANCH  20  21
ENDBRANCH   2  20
TORSDOF 7
ENDMDL
MODEL 8
REMARK VINA RESULT:      -7.4      2.022      2.908
REMARK  7 active torsions:
REMARK  status: ('A' for Active; 'I' for Inactive)
REMARK    1  A    between atoms: C4_5  and  C5_6 
REMARK    2  A    between atoms: C6_7  and  N2_8 
REMARK    3  A    between atoms: C6_7  and  C7_9 
REMARK    4  A    between atoms: C7_9  and  C8_10 
REMARK    5  A    between atoms: C13_15  and  N3_16 
REMARK    6  A    between atoms: C14_17  and  N4_18 
REMARK    7  A    between atoms: N4_18  and  C15_19 
ROOT
HETATM    1  C5  UNL     1      25.588   1.537  52.306  1.00  0.00     0.041 C 
HETATM    2  C6  UNL     1      26.121   1.648  53.509  1.00  0.00     0.008 C 
ENDROOT
BRANCH   1   3
HETATM    3  C4  UNL     1      25.437   2.609  51.356  1.00  0.00     0.029 A 
HETATM    4  C3  UNL     1      26.417   2.986  50.460  1.00  0.00     0.134 A 
HETATM    5  N1  UNL     1      26.228   4.006  49.581  1.00  0.00    -0.245 NA
HETATM    6  C2  UNL     1      25.067   4.693  49.550  1.00  0.00     0.124 A 
HETATM    7  C1  UNL     1      24.864   5.808  48.589  1.00  0.00     0.093 C 
HETATM    8  N5  UNL     1      24.101   4.336  50.419  1.00  0.00    -0.215 NA
HETATM    9  C14 UNL     1      24.251   3.330  51.306  1.00  0.00     0.141 A 
BRANCH   9  10
HETATM   10  N4  UNL     1      23.146   3.049  52.176  1.00  0.00    -0.344 N 
HETATM   11  H16 UNL     1      23.006   3.612  53.050  1.00  0.00     0.167 HD
BRANCH  10  12
HETATM   12  C15 UNL     1      22.201   2.002  51.898  1.00  0.00     0.014 A 
HETATM   13  C16 UNL     1      21.303   1.463  52.707  1.00  0.00     0.025 A 
HETATM   14  C17 UNL     1      20.540   0.424  52.024  1.00  0.00    -0.002 A 
HETATM   15  C18 UNL     1      21.011   0.356  50.772  1.00  0.00    -0.021 A 
HETATM   16  C19 UNL     1      22.105   1.337  50.551  1.00  0.00     0.084 A 
ENDBRANCH  10  12
ENDBRANCH   9  10
ENDBRANCH   1   3
BRANCH   2  17
HETATM   17  N2  UNL     1      26.626   2.858  54.036  1.00  0.00    -0.402 N 
HETATM   18  H6  UNL     1      27.179   3.528  54.602  1.00  0.00     0.156 HD
HETATM   19  H7  UNL     1      26.112   3.645  53.542  1.00  0.00     0.156 HD
ENDBRANCH   2  17
BRANCH   2  20
HETATM   20  C7  UNL     1      26.222   0.468  54.404  1.00  0.00     0.097 C 
BRANCH  20  21
HETATM   21  C8  UNL     1      27.227  -0.493  53.863  1.00  0.00    -0.026 A 
HETATM   22  C9  UNL     1      27.042  -1.614  53.080  1.00  0.00     0.010 A 
HETATM   23  C10 UNL     1      28.138  -2.342  52.709  1.00  0.00     0.001 A 
HETATM   24  C11 UNL     1      29.420  -2.030  53.064  1.00  0.00     0.002 A 
HETATM   25  C12 UNL     1      29.628  -0.897  53.858  1.00  0.00     0.029 A 
HETATM   26  C13 UNL     1      28.521  -0.145  54.245  1.00  0.00     0.032 A 
BRANCH  26  27
HETATM   27  N3  UNL     1      28.871   0.992  55.059  1.00  0.00    -0.399 N 
HETATM   28  H14 UNL     1      29.020   1.952  54.662  1.00  0.00     0.156 HD
HETATM   29  H15 UNL     1      29.047   1.170  56.087  1.00  0.00     0.156 HD
ENDBRANCH  26  27
ENDBRANCH  20  21
ENDBRANCH   2  20
TORSDOF 7
ENDMDL
MODEL 9
REMARK VINA RESULT:      -7.2      2.661      6.259
REMARK  7 active torsions:
REMARK  status: ('A' for Active; 'I' for Inactive)
REMARK    1  A    between atoms: C4_5  and  C5_6 
REMARK    2  A    between atoms: C6_7  and  N2_8 
REMARK    3  A    between atoms: C6_7  and  C7_9 
REMARK    4  A    between atoms: C7_9  and  C8_10 
REMARK    5  A    between atoms: C13_15  and  N3_16 
REMARK    6  A    between atoms: C14_17  and  N4_18 
REMARK    7  A    between atoms: N4_18  and  C15_19 
ROOT
HETATM    1  C5  UNL     1      24.628   2.132  51.179  1.00  0.00     0.041 C 
HETATM    2  C6  UNL     1      24.744   3.434  51.367  1.00  0.00     0.008 C 
ENDROOT
BRANCH   1   3
HETATM    3  C4  UNL     1      23.850   1.235  51.995  1.00  0.00     0.029 A 
HETATM    4  C3  UNL     1      22.516   0.956  51.773  1.00  0.00     0.134 A 
HETATM    5  N1  UNL     1      21.823   0.101  52.571  1.00  0.00    -0.245 NA
HETATM    6  C2  UNL     1      22.415  -0.511  53.617  1.00  0.00     0.124 A 
HETATM    7  C1  UNL     1      21.655  -1.444  54.488  1.00  0.00     0.093 C 
HETATM    8  N5  UNL     1      23.717  -0.248  53.846  1.00  0.00    -0.215 NA
HETATM    9  C14 UNL     1      24.439   0.594  53.076  1.00  0.00     0.141 A 
BRANCH   9  10
HETATM   10  N4  UNL     1      25.816   0.788  53.425  1.00  0.00    -0.344 N 
HETATM   11  H16 UNL     1      26.137   1.707  53.818  1.00  0.00     0.167 HD
BRANCH  10  12
HETATM   12  C15 UNL     1      26.802  -0.244  53.254  1.00  0.00     0.014 A 
HETATM   13  C16 UNL     1      26.669  -1.425  52.671  1.00  0.00     0.025 A 
HETATM   14  C17 UNL     1      27.921  -2.173  52.713  1.00  0.00    -0.002 A 
HETATM   15  C18 UNL     1      28.814  -1.399  53.343  1.00  0.00    -0.021 A 
HETATM   16  C19 UNL     1      28.215  -0.103  53.754  1.00  0.00     0.084 A 
ENDBRANCH  10  12
ENDBRANCH   9  10
ENDBRANCH   1   3
BRANCH   2  17
HETATM   17  N2  UNL     1      24.107   4.136  52.414  1.00  0.00    -0.402 N 
HETATM   18  H6  UNL     1      23.570   4.859  52.928  1.00  0.00     0.156 HD
HETATM   19  H7  UNL     1      24.263   3.571  53.301  1.00  0.00     0.156 HD
ENDBRANCH   2  17
BRANCH   2  20
HETATM   20  C7  UNL     1      25.579   4.258  50.458  1.00  0.00     0.097 C 
BRANCH  20  21
HETATM   21  C8  UNL     1      24.704   5.091  49.582  1.00  0.00    -0.026 A 
HETATM   22  C9  UNL     1      23.755   4.702  48.659  1.00  0.00     0.010 A 
HETATM   23  C10 UNL     1      23.075   5.669  47.972  1.00  0.00     0.001 A 
HETATM   24  C11 UNL     1      23.273   7.010  48.141  1.00  0.00     0.002 A 
HETATM   25  C12 UNL     1      24.230   7.425  49.073  1.00  0.00     0.029 A 
HETATM   26  C13 UNL     1      24.932   6.451  49.781  1.00  0.00     0.032 A 
BRANCH  26  27
HETATM   27  N3  UNL     1      25.887   7.008  50.707  1.00  0.00    -0.399 N 
HETATM   28  H14 UNL     1      26.684   6.453  51.105  1.00  0.00     0.156 HD
HETATM   29  H15 UNL     1      26.044   7.947  51.169  1.00  0.00     0.156 HD
ENDBRANCH  26  27
ENDBRANCH  20  21
ENDBRANCH   2  20
TORSDOF 7
ENDMDL
