MODEL 1
REMARK VINA RESULT:      -8.6      0.000      0.000
REMARK  5 active torsions:
REMARK  status: ('A' for Active; 'I' for Inactive)
REMARK    1  A    between atoms: N1_2  and  C2_3 
REMARK    2  A    between atoms: C2_3  and  C3_4 
REMARK       I    between atoms: C3_4  and  N2_6 
REMARK    3  A    between atoms: N2_6  and  C4_7 
REMARK    4  A    between atoms: C11_16  and  N5_17 
REMARK    5  A    between atoms: N5_17  and  C12_18 
ROOT
HETATM    1  C4  UNL     1      25.020  -0.706  54.185  1.00  0.00     0.035 A 
HETATM    2  C5  UNL     1      24.454  -1.321  55.307  1.00  0.00     0.032 A 
HETATM    3  C6  UNL     1      23.067  -1.369  55.476  1.00  0.00     0.035 A 
HETATM    4  C7  UNL     1      22.267  -0.786  54.495  1.00  0.00     0.069 A 
HETATM    5  N3  UNL     1      20.923  -0.781  54.569  1.00  0.00    -0.259 NA
HETATM    6  C8  UNL     1      20.150  -0.216  53.619  1.00  0.00     0.142 A 
HETATM    7  C9  UNL     1      20.724   0.397  52.500  1.00  0.00     0.089 A 
HETATM    8  C10 UNL     1      19.877   0.990  51.505  1.00  0.00     0.103 C 
HETATM    9  N4  UNL     1      19.194   1.470  50.679  1.00  0.00    -0.191 NA
HETATM   10  C11 UNL     1      22.110   0.416  52.383  1.00  0.00     0.067 A 
HETATM   11  C18 UNL     1      22.832  -0.185  53.398  1.00  0.00     0.023 A 
HETATM   12  C19 UNL     1      24.196  -0.139  53.236  1.00  0.00     0.045 A 
ENDROOT
BRANCH  10  13
HETATM   13  N5  UNL     1      22.654   1.037  51.250  1.00  0.00    -0.354 N 
HETATM   14  H11 UNL     1      22.713   0.523  50.334  1.00  0.00     0.166 HD
BRANCH  13  15
HETATM   15  C12 UNL     1      23.143   2.385  51.303  1.00  0.00     0.033 A 
HETATM   16  C13 UNL     1      22.555   3.319  52.153  1.00  0.00     0.029 A 
HETATM   17  C14 UNL     1      23.028   4.633  52.209  1.00  0.00     0.004 A 
HETATM   18  C15 UNL     1      24.097   4.961  51.390  1.00  0.00     0.019 A 
HETATM   19  C16 UNL     1      24.684   4.033  50.543  1.00  0.00     0.013 A 
HETATM   20 BR1  UNL     1      26.163   4.507  49.415  1.00  0.00    -0.051 Br
HETATM   21  C17 UNL     1      24.208   2.736  50.495  1.00  0.00     0.048 A 
ENDBRANCH  13  15
ENDBRANCH  10  13
BRANCH   1  22
HETATM   22  N2  UNL     1      26.442  -0.773  54.217  1.00  0.00    -0.326 N 
HETATM   23  C3  UNL     1      27.172   0.367  54.687  1.00  0.00     0.250 C 
HETATM   24  O1  UNL     1      26.497   1.374  55.047  1.00  0.00    -0.271 OA
HETATM   25  H7  UNL     1      27.073  -1.569  53.935  1.00  0.00     0.169 HD
BRANCH  23  26
HETATM   26  C2  UNL     1      28.644   0.541  54.811  1.00  0.00     0.371 C 
BRANCH  26  27
HETATM   27  N1  UNL     1      29.228   0.330  53.516  1.00  0.00     0.087 N 
HETATM   28  C1  UNL     1      29.969  -0.913  53.573  1.00  0.00     0.307 C 
HETATM   29  H4  UNL     1      29.802   1.158  53.289  1.00  0.00     0.315 HD
ENDBRANCH  26  27
ENDBRANCH  23  26
ENDBRANCH   1  22
TORSDOF 5
ENDMDL
MODEL 2
REMARK VINA RESULT:      -8.0      2.341      3.362
REMARK  5 active torsions:
REMARK  status: ('A' for Active; 'I' for Inactive)
REMARK    1  A    between atoms: N1_2  and  C2_3 
REMARK    2  A    between atoms: C2_3  and  C3_4 
REMARK       I    between atoms: C3_4  and  N2_6 
REMARK    3  A    between atoms: N2_6  and  C4_7 
REMARK    4  A    between atoms: C11_16  and  N5_17 
REMARK    5  A    between atoms: N5_17  and  C12_18 
ROOT
HETATM    1  C4  UNL     1      25.517   1.490  53.688  1.00  0.00     0.035 A 
HETATM    2  C5  UNL     1      24.830   0.274  53.603  1.00  0.00     0.032 A 
HETATM    3  C6  UNL     1      23.604   0.187  52.938  1.00  0.00     0.035 A 
HETATM    4  C7  UNL     1      23.087   1.348  52.363  1.00  0.00     0.069 A 
HETATM    5  N3  UNL     1      21.914   1.364  51.703  1.00  0.00    -0.259 NA
HETATM    6  C8  UNL     1      21.415   2.487  51.147  1.00  0.00     0.142 A 
HETATM    7  C9  UNL     1      22.108   3.699  51.237  1.00  0.00     0.089 A 
HETATM    8  C10 UNL     1      21.553   4.879  50.637  1.00  0.00     0.103 C 
HETATM    9  N4  UNL     1      21.113   5.848  50.141  1.00  0.00    -0.191 NA
HETATM   10  C11 UNL     1      23.325   3.728  51.911  1.00  0.00     0.067 A 
HETATM   11  C18 UNL     1      23.768   2.536  52.452  1.00  0.00     0.023 A 
HETATM   12  C19 UNL     1      24.974   2.616  53.107  1.00  0.00     0.045 A 
ENDROOT
BRANCH  10  13
HETATM   13  N5  UNL     1      23.994   4.957  51.983  1.00  0.00    -0.354 N 
HETATM   14  H11 UNL     1      23.920   5.558  52.843  1.00  0.00     0.166 HD
BRANCH  13  15
HETATM   15  C12 UNL     1      24.796   5.433  50.892  1.00  0.00     0.033 A 
HETATM   16  C13 UNL     1      25.506   4.539  50.093  1.00  0.00     0.029 A 
HETATM   17  C14 UNL     1      26.289   4.997  49.030  1.00  0.00     0.004 A 
HETATM   18  C15 UNL     1      26.326   6.364  48.808  1.00  0.00     0.019 A 
HETATM   19  C16 UNL     1      25.621   7.256  49.602  1.00  0.00     0.013 A 
HETATM   20 BR1  UNL     1      25.686   9.147  49.280  1.00  0.00    -0.051 Br
HETATM   21  C17 UNL     1      24.850   6.792  50.652  1.00  0.00     0.048 A 
ENDBRANCH  13  15
ENDBRANCH  10  13
BRANCH   1  22
HETATM   22  N2  UNL     1      26.738   1.348  54.406  1.00  0.00    -0.326 N 
HETATM   23  C3  UNL     1      27.970   1.597  53.718  1.00  0.00     0.250 C 
HETATM   24  O1  UNL     1      27.893   1.930  52.500  1.00  0.00    -0.271 OA
HETATM   25  H7  UNL     1      26.886   1.075  55.413  1.00  0.00     0.169 HD
BRANCH  23  26
HETATM   26  C2  UNL     1      29.360   1.515  54.242  1.00  0.00     0.371 C 
BRANCH  26  27
HETATM   27  N1  UNL     1      30.090   0.585  53.426  1.00  0.00     0.087 N 
HETATM   28  C1  UNL     1      29.730  -0.748  53.860  1.00  0.00     0.307 C 
HETATM   29  H4  UNL     1      31.095   0.806  53.515  1.00  0.00     0.315 HD
ENDBRANCH  26  27
ENDBRANCH  23  26
ENDBRANCH   1  22
TORSDOF 5
ENDMDL
MODEL 3
REMARK VINA RESULT:      -7.7      2.185      5.997
REMARK  5 active torsions:
REMARK  status: ('A' for Active; 'I' for Inactive)
REMARK    1  A    between atoms: N1_2  and  C2_3 
REMARK    2  A    between atoms: C2_3  and  C3_4 
REMARK       I    between atoms: C3_4  and  N2_6 
REMARK    3  A    between atoms: N2_6  and  C4_7 
REMARK    4  A    between atoms: C11_16  and  N5_17 
REMARK    5  A    between atoms: N5_17  and  C12_18 
ROOT
HETATM    1  C4  UNL     1      20.758   0.026  52.568  1.00  0.00     0.035 A 
HETATM    2  C5  UNL     1      20.358  -0.753  53.659  1.00  0.00     0.032 A 
HETATM    3  C6  UNL     1      21.291  -1.216  54.591  1.00  0.00     0.035 A 
HETATM    4  C7  UNL     1      22.631  -0.878  54.401  1.00  0.00     0.069 A 
HETATM    5  N3  UNL     1      23.602  -1.276  55.244  1.00  0.00    -0.259 NA
HETATM    6  C8  UNL     1      24.897  -0.949  55.059  1.00  0.00     0.142 A 
HETATM    7  C9  UNL     1      25.288  -0.169  53.965  1.00  0.00     0.089 A 
HETATM    8  C10 UNL     1      26.673   0.165  53.793  1.00  0.00     0.103 C 
HETATM    9  N4  UNL     1      27.803   0.451  53.647  1.00  0.00    -0.191 NA
HETATM   10  C11 UNL     1      24.317   0.265  53.068  1.00  0.00     0.067 A 
HETATM   11  C18 UNL     1      23.013  -0.113  53.328  1.00  0.00     0.023 A 
HETATM   12  C19 UNL     1      22.092   0.340  52.413  1.00  0.00     0.045 A 
ENDROOT
BRANCH  10  13
HETATM   13  N5  UNL     1      24.742   1.044  51.984  1.00  0.00    -0.354 N 
HETATM   14  H11 UNL     1      25.353   0.630  51.233  1.00  0.00     0.166 HD
BRANCH  13  15
HETATM   15  C12 UNL     1      24.362   2.422  51.863  1.00  0.00     0.033 A 
HETATM   16  C13 UNL     1      24.157   3.203  52.999  1.00  0.00     0.029 A 
HETATM   17  C14 UNL     1      23.787   4.546  52.887  1.00  0.00     0.004 A 
HETATM   18  C15 UNL     1      23.634   5.061  51.610  1.00  0.00     0.019 A 
HETATM   19  C16 UNL     1      23.837   4.286  50.477  1.00  0.00     0.013 A 
HETATM   20 BR1  UNL     1      23.620   5.017  48.716  1.00  0.00    -0.051 Br
HETATM   21  C17 UNL     1      24.203   2.958  50.599  1.00  0.00     0.048 A 
ENDBRANCH  13  15
ENDBRANCH  10  13
BRANCH   1  22
HETATM   22  N2  UNL     1      19.649   0.386  51.751  1.00  0.00    -0.326 N 
HETATM   23  C3  UNL     1      19.142   1.724  51.834  1.00  0.00     0.250 C 
HETATM   24  O1  UNL     1      19.721   2.510  52.639  1.00  0.00    -0.271 OA
HETATM   25  H7  UNL     1      19.116  -0.207  51.062  1.00  0.00     0.169 HD
BRANCH  23  26
HETATM   26  C2  UNL     1      18.006   2.334  51.093  1.00  0.00     0.371 C 
BRANCH  26  27
HETATM   27  N1  UNL     1      17.841   3.682  51.562  1.00  0.00     0.087 N 
HETATM   28  C1  UNL     1      16.587   4.175  51.030  1.00  0.00     0.307 C 
HETATM   29  H4  UNL     1      18.670   4.223  51.269  1.00  0.00     0.315 HD
ENDBRANCH  26  27
ENDBRANCH  23  26
ENDBRANCH   1  22
TORSDOF 5
ENDMDL
MODEL 4
REMARK VINA RESULT:      -7.5      3.230      6.358
REMARK  5 active torsions:
REMARK  status: ('A' for Active; 'I' for Inactive)
REMARK    1  A    between atoms: N1_2  and  C2_3 
REMARK    2  A    between atoms: C2_3  and  C3_4 
REMARK       I    between atoms: C3_4  and  N2_6 
REMARK    3  A    between atoms: N2_6  and  C4_7 
REMARK    4  A    between atoms: C11_16  and  N5_17 
REMARK    5  A    between atoms: N5_17  and  C12_18 
ROOT
HETATM    1  C4  UNL     1      24.695   3.407  51.036  1.00  0.00     0.035 A 
HETATM    2  C5  UNL     1      25.996   2.957  50.787  1.00  0.00     0.032 A 
HETATM    3  C6  UNL     1      26.458   1.758  51.337  1.00  0.00     0.035 A 
HETATM    4  C7  UNL     1      25.584   1.026  52.140  1.00  0.00     0.069 A 
HETATM    5  N3  UNL     1      25.937  -0.140  52.714  1.00  0.00    -0.259 NA
HETATM    6  C8  UNL     1      25.091  -0.847  53.490  1.00  0.00     0.142 A 
HETATM    7  C9  UNL     1      23.791  -0.390  53.734  1.00  0.00     0.089 A 
HETATM    8  C10 UNL     1      22.913  -1.163  54.564  1.00  0.00     0.103 C 
HETATM    9  N4  UNL     1      22.182  -1.792  55.234  1.00  0.00    -0.191 NA
HETATM   10  C11 UNL     1      23.384   0.811  53.160  1.00  0.00     0.067 A 
HETATM   11  C18 UNL     1      24.310   1.476  52.378  1.00  0.00     0.023 A 
HETATM   12  C19 UNL     1      23.859   2.656  51.835  1.00  0.00     0.045 A 
ENDROOT
BRANCH  10  13
HETATM   13  N5  UNL     1      22.077   1.241  53.424  1.00  0.00    -0.354 N 
HETATM   14  H11 UNL     1      21.874   1.868  54.244  1.00  0.00     0.166 HD
BRANCH  13  15
HETATM   15  C12 UNL     1      20.980   0.842  52.590  1.00  0.00     0.033 A 
HETATM   16  C13 UNL     1      20.948   1.197  51.243  1.00  0.00     0.029 A 
HETATM   17  C14 UNL     1      19.882   0.811  50.425  1.00  0.00     0.004 A 
HETATM   18  C15 UNL     1      18.869   0.066  51.009  1.00  0.00     0.019 A 
HETATM   19  C16 UNL     1      18.898  -0.289  52.349  1.00  0.00     0.013 A 
HETATM   20 BR1  UNL     1      17.486  -1.321  53.139  1.00  0.00    -0.051 Br
HETATM   21  C17 UNL     1      19.957   0.099  53.149  1.00  0.00     0.048 A 
ENDBRANCH  13  15
ENDBRANCH  10  13
BRANCH   1  22
HETATM   22  N2  UNL     1      24.438   4.644  50.379  1.00  0.00    -0.326 N 
HETATM   23  C3  UNL     1      23.937   5.741  51.154  1.00  0.00     0.250 C 
HETATM   24  O1  UNL     1      23.753   5.536  52.389  1.00  0.00    -0.271 OA
HETATM   25  H7  UNL     1      24.564   4.892  49.362  1.00  0.00     0.169 HD
BRANCH  23  26
HETATM   26  C2  UNL     1      23.594   7.116  50.704  1.00  0.00     0.371 C 
BRANCH  26  27
HETATM   27  N1  UNL     1      22.244   7.393  51.110  1.00  0.00     0.087 N 
HETATM   28  C1  UNL     1      21.364   6.733  50.167  1.00  0.00     0.307 C 
HETATM   29  H4  UNL     1      22.130   8.418  51.153  1.00  0.00     0.315 HD
ENDBRANCH  26  27
ENDBRANCH  23  26
ENDBRANCH   1  22
TORSDOF 5
ENDMDL
MODEL 5
REMARK VINA RESULT:      -7.4      2.445      6.180
REMARK  5 active torsions:
REMARK  status: ('A' for Active; 'I' for Inactive)
REMARK    1  A    between atoms: N1_2  and  C2_3 
REMARK    2  A    between atoms: C2_3  and  C3_4 
REMARK       I    between atoms: C3_4  and  N2_6 
REMARK    3  A    between atoms: N2_6  and  C4_7 
REMARK    4  A    between atoms: C11_16  and  N5_17 
REMARK    5  A    between atoms: N5_17  and  C12_18 
ROOT
HETATM    1  C4  UNL     1      21.591   0.863  52.897  1.00  0.00     0.035 A 
HETATM    2  C5  UNL     1      21.645  -0.513  53.143  1.00  0.00     0.032 A 
HETATM    3  C6  UNL     1      22.866  -1.156  53.364  1.00  0.00     0.035 A 
HETATM    4  C7  UNL     1      24.028  -0.384  53.332  1.00  0.00     0.069 A 
HETATM    5  N3  UNL     1      25.250  -0.912  53.533  1.00  0.00    -0.259 NA
HETATM    6  C8  UNL     1      26.372  -0.165  53.502  1.00  0.00     0.142 A 
HETATM    7  C9  UNL     1      26.310   1.211  53.256  1.00  0.00     0.089 A 
HETATM    8  C10 UNL     1      27.520   1.982  53.228  1.00  0.00     0.103 C 
HETATM    9  N4  UNL     1      28.503   2.624  53.213  1.00  0.00    -0.191 NA
HETATM   10  C11 UNL     1      25.066   1.798  53.042  1.00  0.00     0.067 A 
HETATM   11  C18 UNL     1      23.965   0.965  53.091  1.00  0.00     0.023 A 
HETATM   12  C19 UNL     1      22.761   1.593  52.873  1.00  0.00     0.045 A 
ENDROOT
BRANCH  10  13
HETATM   13  N5  UNL     1      25.038   3.178  52.798  1.00  0.00    -0.354 N 
HETATM   14  H11 UNL     1      25.286   3.862  53.560  1.00  0.00     0.166 HD
BRANCH  13  15
HETATM   15  C12 UNL     1      24.674   3.700  51.513  1.00  0.00     0.033 A 
HETATM   16  C13 UNL     1      25.108   3.076  50.346  1.00  0.00     0.029 A 
HETATM   17  C14 UNL     1      24.756   3.580  49.090  1.00  0.00     0.004 A 
HETATM   18  C15 UNL     1      23.963   4.715  49.059  1.00  0.00     0.019 A 
HETATM   19  C16 UNL     1      23.529   5.339  50.220  1.00  0.00     0.013 A 
HETATM   20 BR1  UNL     1      22.431   6.912  50.157  1.00  0.00    -0.051 Br
HETATM   21  C17 UNL     1      23.884   4.833  51.456  1.00  0.00     0.048 A 
ENDBRANCH  13  15
ENDBRANCH  10  13
BRANCH   1  22
HETATM   22  N2  UNL     1      20.252   1.304  52.701  1.00  0.00    -0.326 N 
HETATM   23  C3  UNL     1      19.690   1.225  51.385  1.00  0.00     0.250 C 
HETATM   24  O1  UNL     1      20.430   0.761  50.470  1.00  0.00    -0.271 OA
HETATM   25  H7  UNL     1      19.576   1.700  53.406  1.00  0.00     0.169 HD
BRANCH  23  26
HETATM   26  C2  UNL     1      18.330   1.620  50.931  1.00  0.00     0.371 C 
BRANCH  26  27
HETATM   27  N1  UNL     1      18.068   0.959  49.683  1.00  0.00     0.087 N 
HETATM   28  C1  UNL     1      17.070  -0.061  49.934  1.00  0.00     0.307 C 
HETATM   29  H4  UNL     1      18.964   0.597  49.321  1.00  0.00     0.315 HD
ENDBRANCH  26  27
ENDBRANCH  23  26
ENDBRANCH   1  22
TORSDOF 5
ENDMDL
MODEL 6
REMARK VINA RESULT:      -7.4      2.741      4.874
REMARK  5 active torsions:
REMARK  status: ('A' for Active; 'I' for Inactive)
REMARK    1  A    between atoms: N1_2  and  C2_3 
REMARK    2  A    between atoms: C2_3  and  C3_4 
REMARK       I    between atoms: C3_4  and  N2_6 
REMARK    3  A    between atoms: N2_6  and  C4_7 
REMARK    4  A    between atoms: C11_16  and  N5_17 
REMARK    5  A    between atoms: N5_17  and  C12_18 
ROOT
HETATM    1  C4  UNL     1      25.792   2.483  52.238  1.00  0.00     0.035 A 
HETATM    2  C5  UNL     1      26.403   2.731  51.004  1.00  0.00     0.032 A 
HETATM    3  C6  UNL     1      25.637   2.979  49.861  1.00  0.00     0.035 A 
HETATM    4  C7  UNL     1      24.248   2.970  49.987  1.00  0.00     0.069 A 
HETATM    5  N3  UNL     1      23.427   3.197  48.945  1.00  0.00    -0.259 NA
HETATM    6  C8  UNL     1      22.085   3.188  49.069  1.00  0.00     0.142 A 
HETATM    7  C9  UNL     1      21.482   2.939  50.307  1.00  0.00     0.089 A 
HETATM    8  C10 UNL     1      20.051   2.936  50.410  1.00  0.00     0.103 C 
HETATM    9  N4  UNL     1      18.880   2.940  50.507  1.00  0.00    -0.191 NA
HETATM   10  C11 UNL     1      22.293   2.699  51.412  1.00  0.00     0.067 A 
HETATM   11  C18 UNL     1      23.659   2.725  51.203  1.00  0.00     0.023 A 
HETATM   12  C19 UNL     1      24.416   2.482  52.324  1.00  0.00     0.045 A 
ENDROOT
BRANCH  10  13
HETATM   13  N5  UNL     1      21.658   2.453  52.637  1.00  0.00    -0.354 N 
HETATM   14  H11 UNL     1      21.357   3.251  53.254  1.00  0.00     0.166 HD
BRANCH  13  15
HETATM   15  C12 UNL     1      21.399   1.116  53.086  1.00  0.00     0.033 A 
HETATM   16  C13 UNL     1      22.424   0.335  53.616  1.00  0.00     0.029 A 
HETATM   17  C14 UNL     1      22.177  -0.968  54.055  1.00  0.00     0.004 A 
HETATM   18  C15 UNL     1      20.881  -1.444  53.942  1.00  0.00     0.019 A 
HETATM   19  C16 UNL     1      19.858  -0.670  53.415  1.00  0.00     0.013 A 
HETATM   20 BR1  UNL     1      18.068  -1.347  53.266  1.00  0.00    -0.051 Br
HETATM   21  C17 UNL     1      20.113   0.619  52.983  1.00  0.00     0.048 A 
ENDBRANCH  13  15
ENDBRANCH  10  13
BRANCH   1  22
HETATM   22  N2  UNL     1      26.757   2.259  53.260  1.00  0.00    -0.326 N 
HETATM   23  C3  UNL     1      27.171   0.913  53.528  1.00  0.00     0.250 C 
HETATM   24  O1  UNL     1      26.645  -0.001  52.831  1.00  0.00    -0.271 OA
HETATM   25  H7  UNL     1      27.238   2.961  53.881  1.00  0.00     0.169 HD
BRANCH  23  26
HETATM   26  C2  UNL     1      28.152   0.427  54.535  1.00  0.00     0.371 C 
BRANCH  26  27
HETATM   27  N1  UNL     1      29.462   0.494  53.949  1.00  0.00     0.087 N 
HETATM   28  C1  UNL     1      29.894  -0.865  53.698  1.00  0.00     0.307 C 
HETATM   29  H4  UNL     1      30.071   1.023  54.594  1.00  0.00     0.315 HD
ENDBRANCH  26  27
ENDBRANCH  23  26
ENDBRANCH   1  22
TORSDOF 5
ENDMDL
MODEL 7
REMARK VINA RESULT:      -7.4      2.617      4.669
REMARK  5 active torsions:
REMARK  status: ('A' for Active; 'I' for Inactive)
REMARK    1  A    between atoms: N1_2  and  C2_3 
REMARK    2  A    between atoms: C2_3  and  C3_4 
REMARK       I    between atoms: C3_4  and  N2_6 
REMARK    3  A    between atoms: N2_6  and  C4_7 
REMARK    4  A    between atoms: C11_16  and  N5_17 
REMARK    5  A    between atoms: N5_17  and  C12_18 
ROOT
HETATM    1  C4  UNL     1      26.336   1.756  51.605  1.00  0.00     0.035 A 
HETATM    2  C5  UNL     1      27.383   1.716  52.532  1.00  0.00     0.032 A 
HETATM    3  C6  UNL     1      27.244   1.030  53.742  1.00  0.00     0.035 A 
HETATM    4  C7  UNL     1      26.032   0.390  53.998  1.00  0.00     0.069 A 
HETATM    5  N3  UNL     1      25.803  -0.295  55.134  1.00  0.00    -0.259 NA
HETATM    6  C8  UNL     1      24.631  -0.913  55.380  1.00  0.00     0.142 A 
HETATM    7  C9  UNL     1      23.588  -0.868  54.447  1.00  0.00     0.089 A 
HETATM    8  C10 UNL     1      22.351  -1.536  54.735  1.00  0.00     0.103 C 
HETATM    9  N4  UNL     1      21.337  -2.086  54.956  1.00  0.00    -0.191 NA
HETATM   10  C11 UNL     1      23.781  -0.171  53.259  1.00  0.00     0.067 A 
HETATM   11  C18 UNL     1      25.011   0.435  53.082  1.00  0.00     0.023 A 
HETATM   12  C19 UNL     1      25.152   1.111  51.893  1.00  0.00     0.045 A 
ENDROOT
BRANCH  10  13
HETATM   13  N5  UNL     1      22.718  -0.145  52.346  1.00  0.00    -0.354 N 
HETATM   14  H11 UNL     1      22.431  -1.019  51.833  1.00  0.00     0.166 HD
BRANCH  13  15
HETATM   15  C12 UNL     1      21.992   1.064  52.083  1.00  0.00     0.033 A 
HETATM   16  C13 UNL     1      21.031   1.523  52.981  1.00  0.00     0.029 A 
HETATM   17  C14 UNL     1      20.321   2.700  52.730  1.00  0.00     0.004 A 
HETATM   18  C15 UNL     1      20.613   3.383  51.560  1.00  0.00     0.019 A 
HETATM   19  C16 UNL     1      21.569   2.928  50.664  1.00  0.00     0.013 A 
HETATM   20 BR1  UNL     1      21.958   3.888  49.048  1.00  0.00    -0.051 Br
HETATM   21  C17 UNL     1      22.265   1.762  50.922  1.00  0.00     0.048 A 
ENDBRANCH  13  15
ENDBRANCH  10  13
BRANCH   1  22
HETATM   22  N2  UNL     1      26.694   2.505  50.448  1.00  0.00    -0.326 N 
HETATM   23  C3  UNL     1      25.991   3.724  50.177  1.00  0.00     0.250 C 
HETATM   24  O1  UNL     1      25.086   4.062  50.994  1.00  0.00    -0.271 OA
HETATM   25  H7  UNL     1      27.430   2.292  49.724  1.00  0.00     0.169 HD
BRANCH  23  26
HETATM   26  C2  UNL     1      26.178   4.671  49.045  1.00  0.00     0.371 C 
BRANCH  26  27
HETATM   27  N1  UNL     1      27.318   5.495  49.337  1.00  0.00     0.087 N 
HETATM   28  C1  UNL     1      27.171   6.720  48.579  1.00  0.00     0.307 C 
HETATM   29  H4  UNL     1      28.167   4.953  49.111  1.00  0.00     0.315 HD
ENDBRANCH  26  27
ENDBRANCH  23  26
ENDBRANCH   1  22
TORSDOF 5
ENDMDL
MODEL 8
REMARK VINA RESULT:      -7.3      2.128      2.701
REMARK  5 active torsions:
REMARK  status: ('A' for Active; 'I' for Inactive)
REMARK    1  A    between atoms: N1_2  and  C2_3 
REMARK    2  A    between atoms: C2_3  and  C3_4 
REMARK       I    between atoms: C3_4  and  N2_6 
REMARK    3  A    between atoms: N2_6  and  C4_7 
REMARK    4  A    between atoms: C11_16  and  N5_17 
REMARK    5  A    between atoms: N5_17  and  C12_18 
ROOT
HETATM    1  C4  UNL     1      24.528   0.654  53.106  1.00  0.00     0.035 A 
HETATM    2  C5  UNL     1      23.600  -0.212  53.696  1.00  0.00     0.032 A 
HETATM    3  C6  UNL     1      22.331  -0.393  53.138  1.00  0.00     0.035 A 
HETATM    4  C7  UNL     1      22.018   0.316  51.979  1.00  0.00     0.069 A 
HETATM    5  N3  UNL     1      20.823   0.209  51.369  1.00  0.00    -0.259 NA
HETATM    6  C8  UNL     1      20.521   0.895  50.247  1.00  0.00     0.142 A 
HETATM    7  C9  UNL     1      21.455   1.760  49.664  1.00  0.00     0.089 A 
HETATM    8  C10 UNL     1      21.106   2.477  48.471  1.00  0.00     0.103 C 
HETATM    9  N4  UNL     1      20.836   3.062  47.490  1.00  0.00    -0.191 NA
HETATM   10  C11 UNL     1      22.703   1.901  50.262  1.00  0.00     0.067 A 
HETATM   11  C18 UNL     1      22.935   1.163  51.408  1.00  0.00     0.023 A 
HETATM   12  C19 UNL     1      24.181   1.338  51.960  1.00  0.00     0.045 A 
ENDROOT
BRANCH  10  13
HETATM   13  N5  UNL     1      23.615   2.774  49.653  1.00  0.00    -0.354 N 
HETATM   14  H11 UNL     1      24.394   2.400  49.052  1.00  0.00     0.166 HD
BRANCH  13  15
HETATM   15  C12 UNL     1      23.515   4.194  49.827  1.00  0.00     0.033 A 
HETATM   16  C13 UNL     1      23.000   4.729  51.005  1.00  0.00     0.029 A 
HETATM   17  C14 UNL     1      22.901   6.113  51.180  1.00  0.00     0.004 A 
HETATM   18  C15 UNL     1      23.335   6.919  50.140  1.00  0.00     0.019 A 
HETATM   19  C16 UNL     1      23.848   6.389  48.965  1.00  0.00     0.013 A 
HETATM   20 BR1  UNL     1      24.443   7.523  47.536  1.00  0.00    -0.051 Br
HETATM   21  C17 UNL     1      23.941   5.019  48.803  1.00  0.00     0.048 A 
ENDBRANCH  13  15
ENDBRANCH  10  13
BRANCH   1  22
HETATM   22  N2  UNL     1      25.749   0.684  53.837  1.00  0.00    -0.326 N 
HETATM   23  C3  UNL     1      26.864  -0.065  53.338  1.00  0.00     0.250 C 
HETATM   24  O1  UNL     1      26.690  -0.714  52.266  1.00  0.00    -0.271 OA
HETATM   25  H7  UNL     1      25.972   1.195  54.731  1.00  0.00     0.169 HD
BRANCH  23  26
HETATM   26  C2  UNL     1      28.229  -0.194  53.915  1.00  0.00     0.371 C 
BRANCH  26  27
HETATM   27  N1  UNL     1      28.431   0.897  54.828  1.00  0.00     0.087 N 
HETATM   28  C1  UNL     1      29.047   1.976  54.084  1.00  0.00     0.307 C 
HETATM   29  H4  UNL     1      28.996   0.548  55.618  1.00  0.00     0.315 HD
ENDBRANCH  26  27
ENDBRANCH  23  26
ENDBRANCH   1  22
TORSDOF 5
ENDMDL
MODEL 9
REMARK VINA RESULT:      -7.2      4.876      7.561
REMARK  5 active torsions:
REMARK  status: ('A' for Active; 'I' for Inactive)
REMARK    1  A    between atoms: N1_2  and  C2_3 
REMARK    2  A    between atoms: C2_3  and  C3_4 
REMARK       I    between atoms: C3_4  and  N2_6 
REMARK    3  A    between atoms: N2_6  and  C4_7 
REMARK    4  A    between atoms: C11_16  and  N5_17 
REMARK    5  A    between atoms: N5_17  and  C12_18 
ROOT
HETATM    1  C4  UNL     1      26.534   6.975  49.091  1.00  0.00     0.035 A 
HETATM    2  C5  UNL     1      25.716   8.004  48.613  1.00  0.00     0.032 A 
HETATM    3  C6  UNL     1      24.386   7.758  48.260  1.00  0.00     0.035 A 
HETATM    4  C7  UNL     1      23.901   6.458  48.398  1.00  0.00     0.069 A 
HETATM    5  N3  UNL     1      22.635   6.123  48.085  1.00  0.00    -0.259 NA
HETATM    6  C8  UNL     1      22.168   4.865  48.219  1.00  0.00     0.142 A 
HETATM    7  C9  UNL     1      22.994   3.842  48.698  1.00  0.00     0.089 A 
HETATM    8  C10 UNL     1      22.469   2.512  48.830  1.00  0.00     0.103 C 
HETATM    9  N4  UNL     1      22.048   1.423  48.952  1.00  0.00    -0.191 NA
HETATM   10  C11 UNL     1      24.310   4.143  49.034  1.00  0.00     0.067 A 
HETATM   11  C18 UNL     1      24.712   5.455  48.868  1.00  0.00     0.023 A 
HETATM   12  C19 UNL     1      26.019   5.702  49.214  1.00  0.00     0.045 A 
ENDROOT
BRANCH  10  13
HETATM   13  N5  UNL     1      25.110   3.096  49.511  1.00  0.00    -0.354 N 
HETATM   14  H11 UNL     1      25.604   2.452  48.841  1.00  0.00     0.166 HD
BRANCH  13  15
HETATM   15  C12 UNL     1      25.280   2.870  50.917  1.00  0.00     0.033 A 
HETATM   16  C13 UNL     1      24.268   3.203  51.815  1.00  0.00     0.029 A 
HETATM   17  C14 UNL     1      24.428   2.985  53.187  1.00  0.00     0.004 A 
HETATM   18  C15 UNL     1      25.625   2.428  53.608  1.00  0.00     0.019 A 
HETATM   19  C16 UNL     1      26.634   2.096  52.716  1.00  0.00     0.013 A 
HETATM   20 BR1  UNL     1      28.286   1.327  53.319  1.00  0.00    -0.051 Br
HETATM   21  C17 UNL     1      26.465   2.317  51.361  1.00  0.00     0.048 A 
ENDBRANCH  13  15
ENDBRANCH  10  13
BRANCH   1  22
HETATM   22  N2  UNL     1      27.844   7.448  49.388  1.00  0.00    -0.326 N 
HETATM   23  C3  UNL     1      28.832   7.426  48.350  1.00  0.00     0.250 C 
HETATM   24  O1  UNL     1      28.473   6.983  47.222  1.00  0.00    -0.271 OA
HETATM   25  H7  UNL     1      28.219   7.830  50.296  1.00  0.00     0.169 HD
BRANCH  23  26
HETATM   26  C2  UNL     1      30.254   7.860  48.412  1.00  0.00     0.371 C 
BRANCH  26  27
HETATM   27  N1  UNL     1      30.466   8.511  49.675  1.00  0.00     0.087 N 
HETATM   28  C1  UNL     1      30.600   9.929  49.413  1.00  0.00     0.307 C 
HETATM   29  H4  UNL     1      31.292   8.080  50.119  1.00  0.00     0.315 HD
ENDBRANCH  26  27
ENDBRANCH  23  26
ENDBRANCH   1  22
TORSDOF 5
ENDMDL
