MODEL 1
REMARK VINA RESULT:      -7.2      0.000      0.000
REMARK  5 active torsions:
REMARK  status: ('A' for Active; 'I' for Inactive)
REMARK    1  A    between atoms: C2_2  and  C3_3 
REMARK    2  A    between atoms: C3_3  and  C4_4 
REMARK    3  A    between atoms: C4_4  and  C5_5 
REMARK    4  A    between atoms: C5_5  and  N1_6 
REMARK    5  A    between atoms: C10_12  and  O2_13 
ROOT
HETATM    1  C4  UNL     1      27.533   1.398  53.645  1.00  0.00     0.001 C 
HETATM    2  C6  UNL     1      26.262   1.406  53.292  1.00  0.00     0.038 C 
HETATM    3  C7  UNL     1      25.590   0.159  53.736  1.00  0.00     0.232 C 
HETATM    4  O1  UNL     1      24.409  -0.096  53.036  1.00  0.00    -0.345 OA
HETATM    5  C8  UNL     1      23.346   0.759  52.778  1.00  0.00     0.079 A 
HETATM    6  C9  UNL     1      22.150   0.084  52.647  1.00  0.00     0.074 A 
HETATM    7  C10 UNL     1      20.956   0.685  52.391  1.00  0.00     0.076 A 
HETATM    8  C12 UNL     1      20.969   2.072  52.260  1.00  0.00    -0.028 A 
HETATM    9  C13 UNL     1      19.732   2.843  51.981  1.00  0.00     0.051 C 
HETATM   10  C14 UNL     1      22.143   2.816  52.382  1.00  0.00     0.021 A 
HETATM   11  C15 UNL     1      23.328   2.130  52.644  1.00  0.00    -0.006 A 
HETATM   12  C16 UNL     1      24.432   3.108  52.731  1.00  0.00     0.161 C 
HETATM   13  N2  UNL     1      25.729   2.527  52.583  1.00  0.00    -0.387 N 
HETATM   14  H20 UNL     1      26.446   2.904  51.893  1.00  0.00     0.159 HD
ENDROOT
BRANCH   1  15
HETATM   15  C3  UNL     1      27.925   0.195  54.356  1.00  0.00     0.061 C 
BRANCH  15  16
HETATM   16  C2  UNL     1      28.800  -0.620  53.787  1.00  0.00    -0.154 C 
HETATM   17  C1  UNL     1      29.839  -1.345  53.398  1.00  0.00     0.096 C 
ENDBRANCH  15  16
ENDBRANCH   1  15
BRANCH   1  18
HETATM   18  C5  UNL     1      28.740   2.247  53.547  1.00  0.00     0.307 C 
BRANCH  18  19
HETATM   19  N1  UNL     1      29.543   2.247  54.747  1.00  0.00     0.082 N 
HETATM   20  H6  UNL     1      29.404   3.118  55.315  1.00  0.00     0.313 HD
HETATM   21  H7  UNL     1      30.537   2.025  54.586  1.00  0.00     0.313 HD
ENDBRANCH  18  19
ENDBRANCH   1  18
BRANCH   7  22
HETATM   22  O2  UNL     1      19.727   0.091  52.246  1.00  0.00    -0.355 OA
HETATM   23  C11 UNL     1      19.200  -0.693  53.281  1.00  0.00     0.210 C 
ENDBRANCH   7  22
TORSDOF 5
ENDMDL
MODEL 2
REMARK VINA RESULT:      -6.9      3.738      5.837
REMARK  5 active torsions:
REMARK  status: ('A' for Active; 'I' for Inactive)
REMARK    1  A    between atoms: C2_2  and  C3_3 
REMARK    2  A    between atoms: C3_3  and  C4_4 
REMARK    3  A    between atoms: C4_4  and  C5_5 
REMARK    4  A    between atoms: C5_5  and  N1_6 
REMARK    5  A    between atoms: C10_12  and  O2_13 
ROOT
HETATM    1  C4  UNL     1      24.404   0.265  53.130  1.00  0.00     0.001 C 
HETATM    2  C6  UNL     1      24.652   1.202  52.236  1.00  0.00     0.038 C 
HETATM    3  C7  UNL     1      23.471   2.084  52.064  1.00  0.00     0.232 C 
HETATM    4  O1  UNL     1      23.496   2.792  50.861  1.00  0.00    -0.345 OA
HETATM    5  C8  UNL     1      24.529   3.539  50.310  1.00  0.00     0.079 A 
HETATM    6  C9  UNL     1      24.066   4.562  49.509  1.00  0.00     0.074 A 
HETATM    7  C10 UNL     1      24.870   5.442  48.850  1.00  0.00     0.076 A 
HETATM    8  C12 UNL     1      26.243   5.276  49.013  1.00  0.00    -0.028 A 
HETATM    9  C13 UNL     1      27.223   6.171  48.347  1.00  0.00     0.051 C 
HETATM   10  C14 UNL     1      26.779   4.264  49.809  1.00  0.00     0.021 A 
HETATM   11  C15 UNL     1      25.892   3.401  50.452  1.00  0.00    -0.006 A 
HETATM   12  C16 UNL     1      26.671   2.417  51.232  1.00  0.00     0.161 C 
HETATM   13  N2  UNL     1      25.929   1.251  51.594  1.00  0.00    -0.387 N 
HETATM   14  H20 UNL     1      26.287   0.267  51.405  1.00  0.00     0.159 HD
ENDROOT
BRANCH   1  15
HETATM   15  C3  UNL     1      23.068   0.345  53.693  1.00  0.00     0.061 C 
BRANCH  15  16
HETATM   16  C2  UNL     1      22.448  -0.781  54.012  1.00  0.00    -0.154 C 
HETATM   17  C1  UNL     1      21.624  -1.751  54.380  1.00  0.00     0.096 C 
ENDBRANCH  15  16
ENDBRANCH   1  15
BRANCH   1  18
HETATM   18  C5  UNL     1      25.068  -0.891  53.773  1.00  0.00     0.307 C 
BRANCH  18  19
HETATM   19  N1  UNL     1      25.995  -0.516  54.814  1.00  0.00     0.082 N 
HETATM   20  H6  UNL     1      25.782  -0.993  55.723  1.00  0.00     0.313 HD
HETATM   21  H7  UNL     1      26.125   0.502  54.913  1.00  0.00     0.313 HD
ENDBRANCH  18  19
ENDBRANCH   1  18
BRANCH   7  22
HETATM   22  O2  UNL     1      24.493   6.482  48.037  1.00  0.00    -0.355 OA
HETATM   23  C11 UNL     1      23.203   6.514  47.492  1.00  0.00     0.210 C 
ENDBRANCH   7  22
TORSDOF 5
ENDMDL
MODEL 3
REMARK VINA RESULT:      -6.8      3.638      6.196
REMARK  5 active torsions:
REMARK  status: ('A' for Active; 'I' for Inactive)
REMARK    1  A    between atoms: C2_2  and  C3_3 
REMARK    2  A    between atoms: C3_3  and  C4_4 
REMARK    3  A    between atoms: C4_4  and  C5_5 
REMARK    4  A    between atoms: C5_5  and  N1_6 
REMARK    5  A    between atoms: C10_12  and  O2_13 
ROOT
HETATM    1  C4  UNL     1      25.150   5.724  49.317  1.00  0.00     0.001 C 
HETATM    2  C6  UNL     1      25.173   4.656  50.091  1.00  0.00     0.038 C 
HETATM    3  C7  UNL     1      23.792   4.204  50.398  1.00  0.00     0.232 C 
HETATM    4  O1  UNL     1      23.730   3.388  51.528  1.00  0.00    -0.345 OA
HETATM    5  C8  UNL     1      24.501   2.278  51.846  1.00  0.00     0.079 A 
HETATM    6  C9  UNL     1      23.823   1.378  52.641  1.00  0.00     0.074 A 
HETATM    7  C10 UNL     1      24.350   0.208  53.095  1.00  0.00     0.076 A 
HETATM    8  C12 UNL     1      25.660  -0.076  52.716  1.00  0.00    -0.028 A 
HETATM    9  C13 UNL     1      26.345  -1.321  53.146  1.00  0.00     0.051 C 
HETATM   10  C14 UNL     1      26.403   0.789  51.913  1.00  0.00     0.021 A 
HETATM   11  C15 UNL     1      25.795   1.969  51.487  1.00  0.00    -0.006 A 
HETATM   12  C16 UNL     1      26.757   2.725  50.657  1.00  0.00     0.161 C 
HETATM   13  N2  UNL     1      26.426   4.106  50.505  1.00  0.00    -0.387 N 
HETATM   14  H20 UNL     1      27.126   4.883  50.699  1.00  0.00     0.159 HD
ENDROOT
BRANCH   1  15
HETATM   15  C3  UNL     1      23.808   6.163  48.982  1.00  0.00     0.061 C 
BRANCH  15  16
HETATM   16  C2  UNL     1      23.574   6.604  47.755  1.00  0.00    -0.154 C 
HETATM   17  C1  UNL     1      23.090   7.008  46.590  1.00  0.00     0.096 C 
ENDBRANCH  15  16
ENDBRANCH   1  15
BRANCH   1  18
HETATM   18  C5  UNL     1      26.082   6.661  48.654  1.00  0.00     0.307 C 
BRANCH  18  19
HETATM   19  N1  UNL     1      26.951   7.357  49.573  1.00  0.00     0.082 N 
HETATM   20  H6  UNL     1      26.556   7.386  50.545  1.00  0.00     0.313 HD
HETATM   21  H7  UNL     1      27.262   8.282  49.236  1.00  0.00     0.313 HD
ENDBRANCH  18  19
ENDBRANCH   1  18
BRANCH   7  22
HETATM   22  O2  UNL     1      23.747  -0.738  53.886  1.00  0.00    -0.355 OA
HETATM   23  C11 UNL     1      22.377  -0.648  54.166  1.00  0.00     0.210 C 
ENDBRANCH   7  22
TORSDOF 5
ENDMDL
MODEL 4
REMARK VINA RESULT:      -6.7      1.809      2.521
REMARK  5 active torsions:
REMARK  status: ('A' for Active; 'I' for Inactive)
REMARK    1  A    between atoms: C2_2  and  C3_3 
REMARK    2  A    between atoms: C3_3  and  C4_4 
REMARK    3  A    between atoms: C4_4  and  C5_5 
REMARK    4  A    between atoms: C5_5  and  N1_6 
REMARK    5  A    between atoms: C10_12  and  O2_13 
ROOT
HETATM    1  C4  UNL     1      25.665   0.701  53.057  1.00  0.00     0.001 C 
HETATM    2  C6  UNL     1      24.379   0.450  52.903  1.00  0.00     0.038 C 
HETATM    3  C7  UNL     1      23.829  -0.214  54.111  1.00  0.00     0.232 C 
HETATM    4  O1  UNL     1      22.633  -0.889  53.859  1.00  0.00    -0.345 OA
HETATM    5  C8  UNL     1      21.496  -0.434  53.205  1.00  0.00     0.079 A 
HETATM    6  C9  UNL     1      20.349  -1.053  53.656  1.00  0.00     0.074 A 
HETATM    7  C10 UNL     1      19.100  -0.791  53.182  1.00  0.00     0.076 A 
HETATM    8  C12 UNL     1      19.002   0.170  52.178  1.00  0.00    -0.028 A 
HETATM    9  C13 UNL     1      17.696   0.545  51.580  1.00  0.00     0.051 C 
HETATM   10  C14 UNL     1      20.121   0.836  51.677  1.00  0.00     0.021 A 
HETATM   11  C15 UNL     1      21.367   0.513  52.213  1.00  0.00    -0.006 A 
HETATM   12  C16 UNL     1      22.398   1.331  51.540  1.00  0.00     0.161 C 
HETATM   13  N2  UNL     1      23.724   0.821  51.687  1.00  0.00    -0.387 N 
HETATM   14  H20 UNL     1      24.370   0.668  50.856  1.00  0.00     0.159 HD
ENDROOT
BRANCH   1  15
HETATM   15  C3  UNL     1      26.187   0.267  54.340  1.00  0.00     0.061 C 
BRANCH  15  16
HETATM   16  C2  UNL     1      27.478  -0.010  54.437  1.00  0.00    -0.154 C 
HETATM   17  C1  UNL     1      28.803  -0.039  54.459  1.00  0.00     0.096 C 
ENDBRANCH  15  16
ENDBRANCH   1  15
BRANCH   1  18
HETATM   18  C5  UNL     1      26.797   1.302  52.319  1.00  0.00     0.307 C 
BRANCH  18  19
HETATM   19  N1  UNL     1      26.647   2.720  52.088  1.00  0.00     0.082 N 
HETATM   20  H6  UNL     1      27.091   3.293  52.846  1.00  0.00     0.313 HD
HETATM   21  H7  UNL     1      25.679   3.010  51.879  1.00  0.00     0.313 HD
ENDBRANCH  18  19
ENDBRANCH   1  18
BRANCH   7  22
HETATM   22  O2  UNL     1      17.914  -1.359  53.572  1.00  0.00    -0.355 OA
HETATM   23  C11 UNL     1      17.809  -2.751  53.696  1.00  0.00     0.210 C 
ENDBRANCH   7  22
TORSDOF 5
ENDMDL
MODEL 5
REMARK VINA RESULT:      -6.7      3.380      4.655
REMARK  5 active torsions:
REMARK  status: ('A' for Active; 'I' for Inactive)
REMARK    1  A    between atoms: C2_2  and  C3_3 
REMARK    2  A    between atoms: C3_3  and  C4_4 
REMARK    3  A    between atoms: C4_4  and  C5_5 
REMARK    4  A    between atoms: C5_5  and  N1_6 
REMARK    5  A    between atoms: C10_12  and  O2_13 
ROOT
HETATM    1  C4  UNL     1      26.565   0.691  53.568  1.00  0.00     0.001 C 
HETATM    2  C6  UNL     1      26.085   1.709  52.881  1.00  0.00     0.038 C 
HETATM    3  C7  UNL     1      26.515   1.630  51.462  1.00  0.00     0.232 C 
HETATM    4  O1  UNL     1      26.427   2.856  50.801  1.00  0.00    -0.345 OA
HETATM    5  C8  UNL     1      25.365   3.749  50.757  1.00  0.00     0.079 A 
HETATM    6  C9  UNL     1      25.347   4.486  49.592  1.00  0.00     0.074 A 
HETATM    7  C10 UNL     1      24.412   5.432  49.297  1.00  0.00     0.076 A 
HETATM    8  C12 UNL     1      23.420   5.647  50.251  1.00  0.00    -0.028 A 
HETATM    9  C13 UNL     1      22.344   6.650  50.047  1.00  0.00     0.051 C 
HETATM   10  C14 UNL     1      23.377   4.936  51.450  1.00  0.00     0.021 A 
HETATM   11  C15 UNL     1      24.370   3.984  51.681  1.00  0.00    -0.006 A 
HETATM   12  C16 UNL     1      24.130   3.360  53.000  1.00  0.00     0.161 C 
HETATM   13  N2  UNL     1      25.272   2.687  53.534  1.00  0.00    -0.387 N 
HETATM   14  H20 UNL     1      25.630   2.869  54.519  1.00  0.00     0.159 HD
ENDROOT
BRANCH   1  15
HETATM   15  C3  UNL     1      27.370  -0.215  52.770  1.00  0.00     0.061 C 
BRANCH  15  16
HETATM   16  C2  UNL     1      28.594  -0.506  53.184  1.00  0.00    -0.154 C 
HETATM   17  C1  UNL     1      29.699  -0.861  53.822  1.00  0.00     0.096 C 
ENDBRANCH  15  16
ENDBRANCH   1  15
BRANCH   1  18
HETATM   18  C5  UNL     1      26.552   0.149  54.944  1.00  0.00     0.307 C 
BRANCH  18  19
HETATM   19  N1  UNL     1      25.526  -0.842  55.163  1.00  0.00     0.082 N 
HETATM   20  H6  UNL     1      25.892  -1.820  55.064  1.00  0.00     0.313 HD
HETATM   21  H7  UNL     1      24.663  -0.678  54.623  1.00  0.00     0.313 HD
ENDBRANCH  18  19
ENDBRANCH   1  18
BRANCH   7  22
HETATM   22  O2  UNL     1      24.323   6.205  48.168  1.00  0.00    -0.355 OA
HETATM   23  C11 UNL     1      25.297   7.177  47.904  1.00  0.00     0.210 C 
ENDBRANCH   7  22
TORSDOF 5
ENDMDL
MODEL 6
REMARK VINA RESULT:      -6.6      1.966      3.177
REMARK  5 active torsions:
REMARK  status: ('A' for Active; 'I' for Inactive)
REMARK    1  A    between atoms: C2_2  and  C3_3 
REMARK    2  A    between atoms: C3_3  and  C4_4 
REMARK    3  A    between atoms: C4_4  and  C5_5 
REMARK    4  A    between atoms: C5_5  and  N1_6 
REMARK    5  A    between atoms: C10_12  and  O2_13 
ROOT
HETATM    1  C4  UNL     1      25.860   0.254  53.074  1.00  0.00     0.001 C 
HETATM    2  C6  UNL     1      24.558   0.406  52.926  1.00  0.00     0.038 C 
HETATM    3  C7  UNL     1      24.266   1.447  51.909  1.00  0.00     0.232 C 
HETATM    4  O1  UNL     1      22.973   1.962  52.019  1.00  0.00    -0.345 OA
HETATM    5  C8  UNL     1      21.769   1.279  52.123  1.00  0.00     0.079 A 
HETATM    6  C9  UNL     1      20.713   1.995  51.599  1.00  0.00     0.074 A 
HETATM    7  C10 UNL     1      19.425   1.554  51.575  1.00  0.00     0.076 A 
HETATM    8  C12 UNL     1      19.186   0.295  52.122  1.00  0.00    -0.028 A 
HETATM    9  C13 UNL     1      17.824  -0.296  52.155  1.00  0.00     0.051 C 
HETATM   10  C14 UNL     1      20.207  -0.482  52.668  1.00  0.00     0.021 A 
HETATM   11  C15 UNL     1      21.501   0.037  52.656  1.00  0.00    -0.006 A 
HETATM   12  C16 UNL     1      22.412  -0.946  53.279  1.00  0.00     0.161 C 
HETATM   13  N2  UNL     1      23.658  -0.390  53.702  1.00  0.00    -0.387 N 
HETATM   14  H20 UNL     1      24.040  -0.531  54.684  1.00  0.00     0.159 HD
ENDROOT
BRANCH   1  15
HETATM   15  C3  UNL     1      26.642   1.130  52.221  1.00  0.00     0.061 C 
BRANCH  15  16
HETATM   16  C2  UNL     1      27.597   1.863  52.772  1.00  0.00    -0.154 C 
HETATM   17  C1  UNL     1      28.541   2.421  53.517  1.00  0.00     0.096 C 
ENDBRANCH  15  16
ENDBRANCH   1  15
BRANCH   1  18
HETATM   18  C5  UNL     1      26.824  -0.548  53.858  1.00  0.00     0.307 C 
BRANCH  18  19
HETATM   19  N1  UNL     1      26.731  -0.330  55.282  1.00  0.00     0.082 N 
HETATM   20  H6  UNL     1      26.879  -1.214  55.828  1.00  0.00     0.313 HD
HETATM   21  H7  UNL     1      25.886   0.185  55.573  1.00  0.00     0.313 HD
ENDBRANCH  18  19
ENDBRANCH   1  18
BRANCH   7  22
HETATM   22  O2  UNL     1      18.322   2.199  51.075  1.00  0.00    -0.355 OA
HETATM   23  C11 UNL     1      18.076   3.535  51.418  1.00  0.00     0.210 C 
ENDBRANCH   7  22
TORSDOF 5
ENDMDL
MODEL 7
REMARK VINA RESULT:      -6.6      3.076      3.873
REMARK  5 active torsions:
REMARK  status: ('A' for Active; 'I' for Inactive)
REMARK    1  A    between atoms: C2_2  and  C3_3 
REMARK    2  A    between atoms: C3_3  and  C4_4 
REMARK    3  A    between atoms: C4_4  and  C5_5 
REMARK    4  A    between atoms: C5_5  and  N1_6 
REMARK    5  A    between atoms: C10_12  and  O2_13 
ROOT
HETATM    1  C4  UNL     1      26.733   1.118  53.717  1.00  0.00     0.001 C 
HETATM    2  C6  UNL     1      25.852   1.542  52.831  1.00  0.00     0.038 C 
HETATM    3  C7  UNL     1      26.533   2.242  51.713  1.00  0.00     0.232 C 
HETATM    4  O1  UNL     1      25.674   3.076  50.995  1.00  0.00    -0.345 OA
HETATM    5  C8  UNL     1      24.420   2.793  50.472  1.00  0.00     0.079 A 
HETATM    6  C9  UNL     1      24.136   3.548  49.353  1.00  0.00     0.074 A 
HETATM    7  C10 UNL     1      22.974   3.467  48.648  1.00  0.00     0.076 A 
HETATM    8  C12 UNL     1      22.027   2.554  49.108  1.00  0.00    -0.028 A 
HETATM    9  C13 UNL     1      20.722   2.373  48.425  1.00  0.00     0.051 C 
HETATM   10  C14 UNL     1      22.249   1.759  50.232  1.00  0.00     0.021 A 
HETATM   11  C15 UNL     1      23.464   1.899  50.902  1.00  0.00    -0.006 A 
HETATM   12  C16 UNL     1      23.482   0.968  52.050  1.00  0.00     0.161 C 
HETATM   13  N2  UNL     1      24.460   1.293  53.040  1.00  0.00    -0.387 N 
HETATM   14  H20 UNL     1      24.218   1.381  54.072  1.00  0.00     0.159 HD
ENDROOT
BRANCH   1  15
HETATM   15  C3  UNL     1      28.104   1.445  53.369  1.00  0.00     0.061 C 
BRANCH  15  16
HETATM   16  C2  UNL     1      29.029   0.505  53.489  1.00  0.00    -0.154 C 
HETATM   17  C1  UNL     1      29.751  -0.594  53.648  1.00  0.00     0.096 C 
ENDBRANCH  15  16
ENDBRANCH   1  15
BRANCH   1  18
HETATM   18  C5  UNL     1      26.784   0.391  55.004  1.00  0.00     0.307 C 
BRANCH  18  19
HETATM   19  N1  UNL     1      26.002  -0.823  55.011  1.00  0.00     0.082 N 
HETATM   20  H6  UNL     1      25.970  -1.267  55.960  1.00  0.00     0.313 HD
HETATM   21  H7  UNL     1      26.253  -1.487  54.263  1.00  0.00     0.313 HD
ENDBRANCH  18  19
ENDBRANCH   1  18
BRANCH   7  22
HETATM   22  O2  UNL     1      22.614   4.178  47.531  1.00  0.00    -0.355 OA
HETATM   23  C11 UNL     1      22.634   5.579  47.554  1.00  0.00     0.210 C 
ENDBRANCH   7  22
TORSDOF 5
ENDMDL
MODEL 8
REMARK VINA RESULT:      -6.6      6.953     10.112
REMARK  5 active torsions:
REMARK  status: ('A' for Active; 'I' for Inactive)
REMARK    1  A    between atoms: C2_2  and  C3_3 
REMARK    2  A    between atoms: C3_3  and  C4_4 
REMARK    3  A    between atoms: C4_4  and  C5_5 
REMARK    4  A    between atoms: C5_5  and  N1_6 
REMARK    5  A    between atoms: C10_12  and  O2_13 
ROOT
HETATM    1  C4  UNL     1      25.337   5.780  49.778  1.00  0.00     0.001 C 
HETATM    2  C6  UNL     1      26.566   5.992  49.349  1.00  0.00     0.038 C 
HETATM    3  C7  UNL     1      27.140   4.748  48.776  1.00  0.00     0.232 C 
HETATM    4  O1  UNL     1      28.534   4.774  48.717  1.00  0.00    -0.345 OA
HETATM    5  C8  UNL     1      29.367   5.764  48.215  1.00  0.00     0.079 A 
HETATM    6  C9  UNL     1      30.559   5.257  47.740  1.00  0.00     0.074 A 
HETATM    7  C10 UNL     1      31.551   6.013  47.196  1.00  0.00     0.076 A 
HETATM    8  C12 UNL     1      31.323   7.385  47.125  1.00  0.00    -0.028 A 
HETATM    9  C13 UNL     1      32.328   8.316  46.552  1.00  0.00     0.051 C 
HETATM   10  C14 UNL     1      30.141   7.965  47.585  1.00  0.00     0.021 A 
HETATM   11  C15 UNL     1      29.171   7.125  48.130  1.00  0.00    -0.006 A 
HETATM   12  C16 UNL     1      28.015   7.946  48.549  1.00  0.00     0.161 C 
HETATM   13  N2  UNL     1      27.149   7.291  49.478  1.00  0.00    -0.387 N 
HETATM   14  H20 UNL     1      26.850   7.743  50.393  1.00  0.00     0.159 HD
ENDROOT
BRANCH   1  15
HETATM   15  C3  UNL     1      24.885   4.415  49.579  1.00  0.00     0.061 C 
BRANCH  15  16
HETATM   16  C2  UNL     1      23.704   4.215  49.014  1.00  0.00    -0.154 C 
HETATM   17  C1  UNL     1      22.560   3.767  48.517  1.00  0.00     0.096 C 
ENDBRANCH  15  16
ENDBRANCH   1  15
BRANCH   1  18
HETATM   18  C5  UNL     1      24.222   6.508  50.422  1.00  0.00     0.307 C 
BRANCH  18  19
HETATM   19  N1  UNL     1      24.455   6.799  51.817  1.00  0.00     0.082 N 
HETATM   20  H6  UNL     1      24.733   5.945  52.359  1.00  0.00     0.313 HD
HETATM   21  H7  UNL     1      23.694   7.331  52.266  1.00  0.00     0.313 HD
ENDBRANCH  18  19
ENDBRANCH   1  18
BRANCH   7  22
HETATM   22  O2  UNL     1      32.760   5.590  46.703  1.00  0.00    -0.355 OA
HETATM   23  C11 UNL     1      32.805   4.605  45.708  1.00  0.00     0.210 C 
ENDBRANCH   7  22
TORSDOF 5
ENDMDL
MODEL 9
REMARK VINA RESULT:      -6.5      7.822     11.425
REMARK  5 active torsions:
REMARK  status: ('A' for Active; 'I' for Inactive)
REMARK    1  A    between atoms: C2_2  and  C3_3 
REMARK    2  A    between atoms: C3_3  and  C4_4 
REMARK    3  A    between atoms: C4_4  and  C5_5 
REMARK    4  A    between atoms: C5_5  and  N1_6 
REMARK    5  A    between atoms: C10_12  and  O2_13 
ROOT
HETATM    1  C4  UNL     1      27.512   7.664  48.780  1.00  0.00     0.001 C 
HETATM    2  C6  UNL     1      28.801   7.388  48.806  1.00  0.00     0.038 C 
HETATM    3  C7  UNL     1      29.061   6.056  48.204  1.00  0.00     0.232 C 
HETATM    4  O1  UNL     1      30.293   5.522  48.587  1.00  0.00    -0.345 OA
HETATM    5  C8  UNL     1      31.545   6.121  48.576  1.00  0.00     0.079 A 
HETATM    6  C9  UNL     1      32.563   5.206  48.404  1.00  0.00     0.074 A 
HETATM    7  C10 UNL     1      33.884   5.530  48.357  1.00  0.00     0.076 A 
HETATM    8  C12 UNL     1      34.202   6.880  48.493  1.00  0.00    -0.028 A 
HETATM    9  C13 UNL     1      35.606   7.359  48.458  1.00  0.00     0.051 C 
HETATM   10  C14 UNL     1      33.223   7.857  48.670  1.00  0.00     0.021 A 
HETATM   11  C15 UNL     1      31.890   7.448  48.708  1.00  0.00    -0.006 A 
HETATM   12  C16 UNL     1      31.035   8.638  48.901  1.00  0.00     0.161 C 
HETATM   13  N2  UNL     1      29.719   8.332  49.365  1.00  0.00    -0.387 N 
HETATM   14  H20 UNL     1      29.289   8.809  50.213  1.00  0.00     0.159 HD
ENDROOT
BRANCH   1  15
HETATM   15  C3  UNL     1      26.709   6.612  48.184  1.00  0.00     0.061 C 
BRANCH  15  16
HETATM   16  C2  UNL     1      25.930   5.887  48.972  1.00  0.00    -0.154 C 
HETATM   17  C1  UNL     1      25.270   4.958  49.648  1.00  0.00     0.096 C 
ENDBRANCH  15  16
ENDBRANCH   1  15
BRANCH   1  18
HETATM   18  C5  UNL     1      26.577   8.739  49.179  1.00  0.00     0.307 C 
BRANCH  18  19
HETATM   19  N1  UNL     1      26.585   9.014  50.596  1.00  0.00     0.082 N 
HETATM   20  H6  UNL     1      27.469   9.488  50.902  1.00  0.00     0.313 HD
HETATM   21  H7  UNL     1      26.341   8.200  51.182  1.00  0.00     0.313 HD
ENDBRANCH  18  19
ENDBRANCH   1  18
BRANCH   7  22
HETATM   22  O2  UNL     1      34.954   4.687  48.189  1.00  0.00    -0.355 OA
HETATM   23  C11 UNL     1      34.742   3.345  47.845  1.00  0.00     0.210 C 
ENDBRANCH   7  22
TORSDOF 5
ENDMDL
