MODEL 1
REMARK VINA RESULT:      -7.8      0.000      0.000
REMARK  2 active torsions:
REMARK  status: ('A' for Active; 'I' for Inactive)
REMARK    1  A    between atoms: O1_2  and  C2_3 
REMARK    2  A    between atoms: C10_12  and  O3_13 
ROOT
HETATM    1  C2  UNL     1      28.297  -0.143  54.847  1.00  0.00     0.141 C 
HETATM    2  C3  UNL     1      27.166   0.491  54.588  1.00  0.00    -0.027 C 
HETATM    3  C4  UNL     1      26.871   1.498  53.600  1.00  0.00     0.006 C 
HETATM    4  C5  UNL     1      25.914   2.266  53.142  1.00  0.00    -0.019 C 
HETATM    5  C6  UNL     1      24.493   2.627  53.328  1.00  0.00     0.105 C 
HETATM    6  C7  UNL     1      23.724   2.256  52.118  1.00  0.00     0.136 C 
HETATM    7  O2  UNL     1      24.347   1.983  51.084  1.00  0.00    -0.297 OA
HETATM    8  C8  UNL     1      22.239   2.223  52.208  1.00  0.00     0.146 C 
HETATM    9  C9  UNL     1      21.788   0.830  52.525  1.00  0.00     0.090 C 
HETATM   10  C10 UNL     1      20.529   0.592  52.858  1.00  0.00     0.095 C 
HETATM   11  C11 UNL     1      20.330  -0.612  53.678  1.00  0.00     0.040 C 
HETATM   12  C12 UNL     1      21.400  -1.322  53.996  1.00  0.00     0.037 C 
HETATM   13  C13 UNL     1      22.765  -1.136  53.498  1.00  0.00     0.300 C 
HETATM   14  O4  UNL     1      23.662  -0.656  54.473  1.00  0.00    -0.285 OA
HETATM   15  C14 UNL     1      24.990  -0.353  54.262  1.00  0.00     0.265 C 
HETATM   16  O5  UNL     1      25.242  -0.597  53.030  1.00  0.00    -0.265 OA
HETATM   17  C15 UNL     1      25.900   0.176  55.353  1.00  0.00     0.151 C 
HETATM   18  O6  UNL     1      22.726  -0.180  52.457  1.00  0.00    -0.318 OA
ENDROOT
BRANCH   1  19
HETATM   19  O1  UNL     1      29.396   0.175  54.075  1.00  0.00    -0.367 OA
HETATM   20  C1  UNL     1      30.160  -0.821  53.430  1.00  0.00     0.208 C 
ENDBRANCH   1  19
BRANCH  10  21
HETATM   21  O3  UNL     1      19.525   1.451  52.431  1.00  0.00    -0.358 OA
HETATM   22  H11 UNL     1      19.837   2.381  52.131  1.00  0.00     0.217 HD
ENDBRANCH  10  21
TORSDOF 2
ENDMDL
MODEL 2
REMARK VINA RESULT:      -7.1      2.777      4.852
REMARK  2 active torsions:
REMARK  status: ('A' for Active; 'I' for Inactive)
REMARK    1  A    between atoms: O1_2  and  C2_3 
REMARK    2  A    between atoms: C10_12  and  O3_13 
ROOT
HETATM    1  C2  UNL     1      25.470   5.331  48.972  1.00  0.00     0.141 C 
HETATM    2  C3  UNL     1      25.380   4.157  49.575  1.00  0.00    -0.027 C 
HETATM    3  C4  UNL     1      26.235   3.553  50.565  1.00  0.00     0.006 C 
HETATM    4  C5  UNL     1      26.396   2.475  51.291  1.00  0.00    -0.019 C 
HETATM    5  C6  UNL     1      25.818   1.146  51.585  1.00  0.00     0.105 C 
HETATM    6  C7  UNL     1      25.375   1.099  52.997  1.00  0.00     0.136 C 
HETATM    7  O2  UNL     1      25.766   1.984  53.768  1.00  0.00    -0.297 OA
HETATM    8  C8  UNL     1      24.475  -0.009  53.417  1.00  0.00     0.146 C 
HETATM    9  C9  UNL     1      23.049   0.442  53.325  1.00  0.00     0.090 C 
HETATM   10  C10 UNL     1      22.061  -0.429  53.448  1.00  0.00     0.095 C 
HETATM   11  C11 UNL     1      20.807  -0.030  52.791  1.00  0.00     0.040 C 
HETATM   12  C12 UNL     1      20.790   1.131  52.156  1.00  0.00     0.037 C 
HETATM   13  C13 UNL     1      21.839   2.153  52.155  1.00  0.00     0.300 C 
HETATM   14  O4  UNL     1      22.497   2.286  50.915  1.00  0.00    -0.285 OA
HETATM   15  C14 UNL     1      23.547   3.139  50.651  1.00  0.00     0.265 C 
HETATM   16  O5  UNL     1      23.794   3.778  51.733  1.00  0.00    -0.265 OA
HETATM   17  C15 UNL     1      24.223   3.223  49.297  1.00  0.00     0.151 C 
HETATM   18  O6  UNL     1      22.814   1.785  53.109  1.00  0.00    -0.318 OA
ENDROOT
BRANCH   1  19
HETATM   19  O1  UNL     1      26.535   6.140  49.312  1.00  0.00    -0.367 OA
HETATM   20  C1  UNL     1      27.490   6.545  48.356  1.00  0.00     0.208 C 
ENDBRANCH   1  19
BRANCH  10  21
HETATM   21  O3  UNL     1      22.259  -1.607  54.157  1.00  0.00    -0.358 OA
HETATM   22  H11 UNL     1      22.028  -2.470  53.655  1.00  0.00     0.217 HD
ENDBRANCH  10  21
TORSDOF 2
ENDMDL
MODEL 3
REMARK VINA RESULT:      -7.0      3.132      5.871
REMARK  2 active torsions:
REMARK  status: ('A' for Active; 'I' for Inactive)
REMARK    1  A    between atoms: O1_2  and  C2_3 
REMARK    2  A    between atoms: C10_12  and  O3_13 
ROOT
HETATM    1  C2  UNL     1      23.730   5.689  48.645  1.00  0.00     0.141 C 
HETATM    2  C3  UNL     1      24.289   4.570  49.072  1.00  0.00    -0.027 C 
HETATM    3  C4  UNL     1      25.667   4.276  49.375  1.00  0.00     0.006 C 
HETATM    4  C5  UNL     1      26.469   3.324  49.780  1.00  0.00    -0.019 C 
HETATM    5  C6  UNL     1      26.511   1.905  50.194  1.00  0.00     0.105 C 
HETATM    6  C7  UNL     1      26.942   1.814  51.609  1.00  0.00     0.136 C 
HETATM    7  O2  UNL     1      27.446   2.812  52.137  1.00  0.00    -0.297 OA
HETATM    8  C8  UNL     1      26.738   0.526  52.326  1.00  0.00     0.146 C 
HETATM    9  C9  UNL     1      25.436   0.565  53.065  1.00  0.00     0.090 C 
HETATM   10  C10 UNL     1      24.939  -0.535  53.607  1.00  0.00     0.095 C 
HETATM   11  C11 UNL     1      23.478  -0.530  53.775  1.00  0.00     0.040 C 
HETATM   12  C12 UNL     1      22.819   0.547  53.377  1.00  0.00     0.037 C 
HETATM   13  C13 UNL     1      23.391   1.815  52.921  1.00  0.00     0.300 C 
HETATM   14  O4  UNL     1      23.204   2.057  51.545  1.00  0.00    -0.285 OA
HETATM   15  C14 UNL     1      23.678   3.148  50.850  1.00  0.00     0.265 C 
HETATM   16  O5  UNL     1      24.302   3.888  51.689  1.00  0.00    -0.265 OA
HETATM   17  C15 UNL     1      23.455   3.342  49.363  1.00  0.00     0.151 C 
HETATM   18  O6  UNL     1      24.784   1.778  53.155  1.00  0.00    -0.318 OA
ENDROOT
BRANCH   1  19
HETATM   19  O1  UNL     1      24.557   6.776  48.442  1.00  0.00    -0.367 OA
HETATM   20  C1  UNL     1      24.443   7.587  47.293  1.00  0.00     0.208 C 
ENDBRANCH   1  19
BRANCH  10  21
HETATM   21  O3  UNL     1      25.787  -1.574  53.967  1.00  0.00    -0.358 OA
HETATM   22  H11 UNL     1      26.224  -2.078  53.189  1.00  0.00     0.217 HD
ENDBRANCH  10  21
TORSDOF 2
ENDMDL
MODEL 4
REMARK VINA RESULT:      -7.0      1.676      3.485
REMARK  2 active torsions:
REMARK  status: ('A' for Active; 'I' for Inactive)
REMARK    1  A    between atoms: O1_2  and  C2_3 
REMARK    2  A    between atoms: C10_12  and  O3_13 
ROOT
HETATM    1  C2  UNL     1      27.013   1.229  53.472  1.00  0.00     0.141 C 
HETATM    2  C3  UNL     1      25.822   0.739  53.171  1.00  0.00    -0.027 C 
HETATM    3  C4  UNL     1      24.906  -0.033  53.972  1.00  0.00     0.006 C 
HETATM    4  C5  UNL     1      23.739  -0.626  53.946  1.00  0.00    -0.019 C 
HETATM    5  C6  UNL     1      22.575  -0.916  53.083  1.00  0.00     0.105 C 
HETATM    6  C7  UNL     1      21.368  -0.262  53.641  1.00  0.00     0.136 C 
HETATM    7  O2  UNL     1      21.412   0.162  54.802  1.00  0.00    -0.297 OA
HETATM    8  C8  UNL     1      20.165  -0.142  52.773  1.00  0.00     0.146 C 
HETATM    9  C9  UNL     1      20.172   1.190  52.089  1.00  0.00     0.090 C 
HETATM   10  C10 UNL     1      19.318   1.447  51.112  1.00  0.00     0.095 C 
HETATM   11  C11 UNL     1      19.763   2.479  50.164  1.00  0.00     0.040 C 
HETATM   12  C12 UNL     1      20.946   3.036  50.374  1.00  0.00     0.037 C 
HETATM   13  C13 UNL     1      21.813   2.854  51.540  1.00  0.00     0.300 C 
HETATM   14  O4  UNL     1      22.991   2.131  51.260  1.00  0.00    -0.285 OA
HETATM   15  C14 UNL     1      23.955   1.782  52.180  1.00  0.00     0.265 C 
HETATM   16  O5  UNL     1      23.580   2.243  53.314  1.00  0.00    -0.265 OA
HETATM   17  C15 UNL     1      25.195   0.988  51.818  1.00  0.00     0.151 C 
HETATM   18  O6  UNL     1      21.095   2.125  52.514  1.00  0.00    -0.318 OA
ENDROOT
BRANCH   1  19
HETATM   19  O1  UNL     1      27.496   0.990  54.743  1.00  0.00    -0.367 OA
HETATM   20  C1  UNL     1      28.667   0.232  54.958  1.00  0.00     0.208 C 
ENDBRANCH   1  19
BRANCH  10  21
HETATM   21  O3  UNL     1      18.113   0.761  51.047  1.00  0.00    -0.358 OA
HETATM   22  H11 UNL     1      17.291   1.277  51.379  1.00  0.00     0.217 HD
ENDBRANCH  10  21
TORSDOF 2
ENDMDL
MODEL 5
REMARK VINA RESULT:      -6.9      1.894      6.835
REMARK  2 active torsions:
REMARK  status: ('A' for Active; 'I' for Inactive)
REMARK    1  A    between atoms: O1_2  and  C2_3 
REMARK    2  A    between atoms: C10_12  and  O3_13 
ROOT
HETATM    1  C2  UNL     1      18.665   1.752  50.951  1.00  0.00     0.141 C 
HETATM    2  C3  UNL     1      19.468   1.404  51.943  1.00  0.00    -0.027 C 
HETATM    3  C4  UNL     1      19.471   0.219  52.763  1.00  0.00     0.006 C 
HETATM    4  C5  UNL     1      20.092  -0.362  53.759  1.00  0.00    -0.019 C 
HETATM    5  C6  UNL     1      21.202  -0.199  54.721  1.00  0.00     0.105 C 
HETATM    6  C7  UNL     1      22.223  -1.246  54.483  1.00  0.00     0.136 C 
HETATM    7  O2  UNL     1      21.921  -2.213  53.773  1.00  0.00    -0.297 OA
HETATM    8  C8  UNL     1      23.564  -1.078  55.105  1.00  0.00     0.146 C 
HETATM    9  C9  UNL     1      24.488  -0.415  54.130  1.00  0.00     0.090 C 
HETATM   10  C10 UNL     1      25.673   0.027  54.522  1.00  0.00     0.095 C 
HETATM   11  C11 UNL     1      26.220   1.120  53.706  1.00  0.00     0.040 C 
HETATM   12  C12 UNL     1      25.494   1.547  52.685  1.00  0.00     0.037 C 
HETATM   13  C13 UNL     1      24.259   0.952  52.170  1.00  0.00     0.300 C 
HETATM   14  O4  UNL     1      23.112   1.739  52.402  1.00  0.00    -0.285 OA
HETATM   15  C14 UNL     1      21.822   1.397  52.062  1.00  0.00     0.265 C 
HETATM   16  O5  UNL     1      21.872   0.249  51.497  1.00  0.00    -0.265 OA
HETATM   17  C15 UNL     1      20.627   2.283  52.355  1.00  0.00     0.151 C 
HETATM   18  O6  UNL     1      24.059  -0.284  52.825  1.00  0.00    -0.318 OA
ENDROOT
BRANCH   1  19
HETATM   19  O1  UNL     1      17.656   0.874  50.612  1.00  0.00    -0.367 OA
HETATM   20  C1  UNL     1      16.310   1.127  50.953  1.00  0.00     0.208 C 
ENDBRANCH   1  19
BRANCH  10  21
HETATM   21  O3  UNL     1      26.294  -0.544  55.625  1.00  0.00    -0.358 OA
HETATM   22  H11 UNL     1      27.300  -0.716  55.526  1.00  0.00     0.217 HD
ENDBRANCH  10  21
TORSDOF 2
ENDMDL
MODEL 6
REMARK VINA RESULT:      -6.9      2.133      6.110
REMARK  2 active torsions:
REMARK  status: ('A' for Active; 'I' for Inactive)
REMARK    1  A    between atoms: O1_2  and  C2_3 
REMARK    2  A    between atoms: C10_12  and  O3_13 
ROOT
HETATM    1  C2  UNL     1      22.009   5.167  50.340  1.00  0.00     0.141 C 
HETATM    2  C3  UNL     1      22.020   4.229  51.272  1.00  0.00    -0.027 C 
HETATM    3  C4  UNL     1      21.211   3.044  51.407  1.00  0.00     0.006 C 
HETATM    4  C5  UNL     1      20.999   2.004  52.173  1.00  0.00    -0.019 C 
HETATM    5  C6  UNL     1      21.437   1.340  53.419  1.00  0.00     0.105 C 
HETATM    6  C7  UNL     1      22.023   0.018  53.098  1.00  0.00     0.136 C 
HETATM    7  O2  UNL     1      21.832  -0.453  51.971  1.00  0.00    -0.297 OA
HETATM    8  C8  UNL     1      22.821  -0.673  54.147  1.00  0.00     0.146 C 
HETATM    9  C9  UNL     1      24.272  -0.349  53.968  1.00  0.00     0.090 C 
HETATM   10  C10 UNL     1      25.154  -0.678  54.898  1.00  0.00     0.095 C 
HETATM   11  C11 UNL     1      26.367   0.153  54.915  1.00  0.00     0.040 C 
HETATM   12  C12 UNL     1      26.457   1.125  54.021  1.00  0.00     0.037 C 
HETATM   13  C13 UNL     1      25.549   1.383  52.902  1.00  0.00     0.300 C 
HETATM   14  O4  UNL     1      24.780   2.555  53.056  1.00  0.00    -0.285 OA
HETATM   15  C14 UNL     1      23.820   3.007  52.177  1.00  0.00     0.265 C 
HETATM   16  O5  UNL     1      23.774   2.172  51.207  1.00  0.00    -0.265 OA
HETATM   17  C15 UNL     1      23.015   4.270  52.410  1.00  0.00     0.151 C 
HETATM   18  O6  UNL     1      24.647   0.299  52.808  1.00  0.00    -0.318 OA
ENDROOT
BRANCH   1  19
HETATM   19  O1  UNL     1      21.096   5.034  49.314  1.00  0.00    -0.367 OA
HETATM   20  C1  UNL     1      20.125   6.025  49.055  1.00  0.00     0.208 C 
ENDBRANCH   1  19
BRANCH  10  21
HETATM   21  O3  UNL     1      24.891  -1.736  55.758  1.00  0.00    -0.358 OA
HETATM   22  H11 UNL     1      24.004  -1.681  56.269  1.00  0.00     0.217 HD
ENDBRANCH  10  21
TORSDOF 2
ENDMDL
MODEL 7
REMARK VINA RESULT:      -6.8      2.780      5.387
REMARK  2 active torsions:
REMARK  status: ('A' for Active; 'I' for Inactive)
REMARK    1  A    between atoms: O1_2  and  C2_3 
REMARK    2  A    between atoms: C10_12  and  O3_13 
ROOT
HETATM    1  C2  UNL     1      23.637   5.963  50.603  1.00  0.00     0.141 C 
HETATM    2  C3  UNL     1      22.889   5.115  51.290  1.00  0.00    -0.027 C 
HETATM    3  C4  UNL     1      21.561   4.623  51.025  1.00  0.00     0.006 C 
HETATM    4  C5  UNL     1      20.623   3.839  51.494  1.00  0.00    -0.019 C 
HETATM    5  C6  UNL     1      20.284   2.933  52.612  1.00  0.00     0.105 C 
HETATM    6  C7  UNL     1      20.108   1.555  52.099  1.00  0.00     0.136 C 
HETATM    7  O2  UNL     1      19.990   1.391  50.879  1.00  0.00    -0.297 OA
HETATM    8  C8  UNL     1      20.091   0.434  53.078  1.00  0.00     0.146 C 
HETATM    9  C9  UNL     1      21.469  -0.138  53.208  1.00  0.00     0.090 C 
HETATM   10  C10 UNL     1      21.748  -1.005  54.168  1.00  0.00     0.095 C 
HETATM   11  C11 UNL     1      23.164  -1.049  54.563  1.00  0.00     0.040 C 
HETATM   12  C12 UNL     1      24.000  -0.236  53.936  1.00  0.00     0.037 C 
HETATM   13  C13 UNL     1      23.710   0.607  52.775  1.00  0.00     0.300 C 
HETATM   14  O4  UNL     1      23.702   1.986  53.065  1.00  0.00    -0.285 OA
HETATM   15  C14 UNL     1      23.415   2.993  52.170  1.00  0.00     0.265 C 
HETATM   16  O5  UNL     1      23.171   2.437  51.042  1.00  0.00    -0.265 OA
HETATM   17  C15 UNL     1      23.408   4.460  52.550  1.00  0.00     0.151 C 
HETATM   18  O6  UNL     1      22.423   0.271  52.298  1.00  0.00    -0.318 OA
ENDROOT
BRANCH   1  19
HETATM   19  O1  UNL     1      23.104   6.485  49.442  1.00  0.00    -0.367 OA
HETATM   20  C1  UNL     1      23.811   6.446  48.222  1.00  0.00     0.208 C 
ENDBRANCH   1  19
BRANCH  10  21
HETATM   21  O3  UNL     1      20.736  -1.783  54.714  1.00  0.00    -0.358 OA
HETATM   22  H11 UNL     1      19.961  -1.264  55.142  1.00  0.00     0.217 HD
ENDBRANCH  10  21
TORSDOF 2
ENDMDL
MODEL 8
REMARK VINA RESULT:      -6.8      2.780      5.419
REMARK  2 active torsions:
REMARK  status: ('A' for Active; 'I' for Inactive)
REMARK    1  A    between atoms: O1_2  and  C2_3 
REMARK    2  A    between atoms: C10_12  and  O3_13 
ROOT
HETATM    1  C2  UNL     1      22.704   4.246  48.191  1.00  0.00     0.141 C 
HETATM    2  C3  UNL     1      23.036   3.296  49.049  1.00  0.00    -0.027 C 
HETATM    3  C4  UNL     1      24.104   3.249  50.015  1.00  0.00     0.006 C 
HETATM    4  C5  UNL     1      24.651   2.493  50.933  1.00  0.00    -0.019 C 
HETATM    5  C6  UNL     1      24.553   1.176  51.598  1.00  0.00     0.105 C 
HETATM    6  C7  UNL     1      24.245   1.367  53.034  1.00  0.00     0.136 C 
HETATM    7  O2  UNL     1      24.380   2.496  53.521  1.00  0.00    -0.297 OA
HETATM    8  C8  UNL     1      23.779   0.191  53.817  1.00  0.00     0.146 C 
HETATM    9  C9  UNL     1      22.281   0.161  53.834  1.00  0.00     0.090 C 
HETATM   10  C10 UNL     1      21.636  -0.901  54.290  1.00  0.00     0.095 C 
HETATM   11  C11 UNL     1      20.280  -1.074  53.749  1.00  0.00     0.040 C 
HETATM   12  C12 UNL     1      19.848  -0.175  52.878  1.00  0.00     0.037 C 
HETATM   13  C13 UNL     1      20.509   1.074  52.496  1.00  0.00     0.300 C 
HETATM   14  O4  UNL     1      21.005   1.071  51.176  1.00  0.00    -0.285 OA
HETATM   15  C14 UNL     1      21.705   2.097  50.580  1.00  0.00     0.265 C 
HETATM   16  O5  UNL     1      21.805   3.038  51.442  1.00  0.00    -0.265 OA
HETATM   17  C15 UNL     1      22.225   2.024  49.158  1.00  0.00     0.151 C 
HETATM   18  O6  UNL     1      21.612   1.270  53.358  1.00  0.00    -0.318 OA
ENDROOT
BRANCH   1  19
HETATM   19  O1  UNL     1      23.472   5.393  48.183  1.00  0.00    -0.367 OA
HETATM   20  C1  UNL     1      22.984   6.613  48.700  1.00  0.00     0.208 C 
ENDBRANCH   1  19
BRANCH  10  21
HETATM   21  O3  UNL     1      22.250  -1.742  55.209  1.00  0.00    -0.358 OA
HETATM   22  H11 UNL     1      22.218  -2.741  54.984  1.00  0.00     0.217 HD
ENDBRANCH  10  21
TORSDOF 2
ENDMDL
MODEL 9
REMARK VINA RESULT:      -6.6      2.629      6.142
REMARK  2 active torsions:
REMARK  status: ('A' for Active; 'I' for Inactive)
REMARK    1  A    between atoms: O1_2  and  C2_3 
REMARK    2  A    between atoms: C10_12  and  O3_13 
ROOT
HETATM    1  C2  UNL     1      20.861   0.209  53.173  1.00  0.00     0.141 C 
HETATM    2  C3  UNL     1      21.982   0.894  53.030  1.00  0.00    -0.027 C 
HETATM    3  C4  UNL     1      23.353   0.465  53.139  1.00  0.00     0.006 C 
HETATM    4  C5  UNL     1      24.590   0.888  53.065  1.00  0.00    -0.019 C 
HETATM    5  C6  UNL     1      25.422   2.087  52.826  1.00  0.00     0.105 C 
HETATM    6  C7  UNL     1      26.225   1.897  51.596  1.00  0.00     0.136 C 
HETATM    7  O2  UNL     1      26.317   0.758  51.122  1.00  0.00    -0.297 OA
HETATM    8  C8  UNL     1      26.876   3.089  50.988  1.00  0.00     0.146 C 
HETATM    9  C9  UNL     1      25.985   3.659  49.927  1.00  0.00     0.090 C 
HETATM   10  C10 UNL     1      26.253   4.838  49.389  1.00  0.00     0.095 C 
HETATM   11  C11 UNL     1      25.084   5.539  48.836  1.00  0.00     0.040 C 
HETATM   12  C12 UNL     1      23.908   4.939  48.929  1.00  0.00     0.037 C 
HETATM   13  C13 UNL     1      23.647   3.573  49.388  1.00  0.00     0.300 C 
HETATM   14  O4  UNL     1      22.985   3.511  50.631  1.00  0.00    -0.285 OA
HETATM   15  C14 UNL     1      22.660   2.357  51.311  1.00  0.00     0.265 C 
HETATM   16  O5  UNL     1      23.062   1.373  50.597  1.00  0.00    -0.265 OA
HETATM   17  C15 UNL     1      21.959   2.359  52.655  1.00  0.00     0.151 C 
HETATM   18  O6  UNL     1      24.889   2.915  49.541  1.00  0.00    -0.318 OA
ENDROOT
BRANCH   1  19
HETATM   19  O1  UNL     1      20.970  -1.133  53.476  1.00  0.00    -0.367 OA
HETATM   20  C1  UNL     1      21.387  -1.572  54.751  1.00  0.00     0.208 C 
ENDBRANCH   1  19
BRANCH  10  21
HETATM   21  O3  UNL     1      27.557   5.315  49.379  1.00  0.00    -0.358 OA
HETATM   22  H11 UNL     1      27.697   6.208  48.895  1.00  0.00     0.217 HD
ENDBRANCH  10  21
TORSDOF 2
ENDMDL
