MODEL 1
REMARK VINA RESULT:      -8.9      0.000      0.000
REMARK  2 active torsions:
REMARK  status: ('A' for Active; 'I' for Inactive)
REMARK    1  A    between atoms: C6_6  and  N1_7 
REMARK    2  A    between atoms: N1_7  and  C8_9 
ROOT
HETATM    1  C8  UNL     1      24.254  -0.370  53.707  1.00  0.00     0.143 A 
HETATM    2  N2  UNL     1      24.513  -0.916  54.900  1.00  0.00    -0.223 NA
HETATM    3  C9  UNL     1      23.548  -1.393  55.708  1.00  0.00     0.236 A 
HETATM    4  N3  UNL     1      22.260  -1.315  55.291  1.00  0.00    -0.241 NA
HETATM    5  C10 UNL     1      21.930  -0.783  54.116  1.00  0.00     0.072 A 
HETATM    6  C11 UNL     1      20.639  -0.679  53.644  1.00  0.00     0.039 A 
HETATM    7  C12 UNL     1      20.284  -0.132  52.431  1.00  0.00    -0.054 A 
HETATM    8  C13 UNL     1      18.887  -0.053  51.990  1.00  0.00     0.049 C 
HETATM    9  C14 UNL     1      21.343   0.329  51.674  1.00  0.00    -0.055 A 
HETATM   10  C15 UNL     1      21.075   0.938  50.349  1.00  0.00     0.049 C 
HETATM   11  C16 UNL     1      22.672   0.265  52.070  1.00  0.00     0.025 A 
HETATM   12  C17 UNL     1      22.938  -0.294  53.291  1.00  0.00     0.039 A 
ENDROOT
BRANCH   1  13
HETATM   13  N1  UNL     1      25.367   0.096  52.954  1.00  0.00    -0.335 N 
HETATM   14  C7  UNL     1      25.338   1.307  52.146  1.00  0.00     0.158 C 
BRANCH  13  15
HETATM   15  C6  UNL     1      26.594  -0.649  52.973  1.00  0.00     0.036 A 
HETATM   16  C5  UNL     1      26.544  -1.986  52.583  1.00  0.00     0.029 A 
HETATM   17  C4  UNL     1      27.769  -2.645  52.626  1.00  0.00     0.003 A 
HETATM   18  C3  UNL     1      28.977  -2.143  52.997  1.00  0.00     0.007 A 
HETATM   19  C2  UNL     1      28.956  -0.796  53.376  1.00  0.00    -0.060 A 
HETATM   20  C1  UNL     1      30.215  -0.133  53.802  1.00  0.00     0.048 C 
HETATM   21  C18 UNL     1      27.781  -0.067  53.363  1.00  0.00     0.036 A 
ENDBRANCH  13  15
ENDBRANCH   1  13
TORSDOF 2
ENDMDL
MODEL 2
REMARK VINA RESULT:      -8.9      1.070      1.479
REMARK  2 active torsions:
REMARK  status: ('A' for Active; 'I' for Inactive)
REMARK    1  A    between atoms: C6_6  and  N1_7 
REMARK    2  A    between atoms: N1_7  and  C8_9 
ROOT
HETATM    1  C8  UNL     1      24.068   0.102  53.557  1.00  0.00     0.143 A 
HETATM    2  N2  UNL     1      23.717  -0.690  54.575  1.00  0.00    -0.223 NA
HETATM    3  C9  UNL     1      22.483  -1.215  54.697  1.00  0.00     0.236 A 
HETATM    4  N3  UNL     1      21.561  -0.924  53.747  1.00  0.00    -0.241 NA
HETATM    5  C10 UNL     1      21.842  -0.141  52.708  1.00  0.00     0.072 A 
HETATM    6  C11 UNL     1      20.944   0.186  51.714  1.00  0.00     0.039 A 
HETATM    7  C12 UNL     1      21.221   0.994  50.634  1.00  0.00    -0.054 A 
HETATM    8  C13 UNL     1      20.215   1.301  49.611  1.00  0.00     0.049 C 
HETATM    9  C14 UNL     1      22.512   1.482  50.596  1.00  0.00    -0.055 A 
HETATM   10  C15 UNL     1      22.920   2.364  49.476  1.00  0.00     0.049 C 
HETATM   11  C16 UNL     1      23.481   1.205  51.552  1.00  0.00     0.025 A 
HETATM   12  C17 UNL     1      23.121   0.394  52.593  1.00  0.00     0.039 A 
ENDROOT
BRANCH   1  13
HETATM   13  N1  UNL     1      25.405   0.590  53.549  1.00  0.00    -0.335 N 
HETATM   14  C7  UNL     1      25.750   1.986  53.775  1.00  0.00     0.158 C 
BRANCH  13  15
HETATM   15  C6  UNL     1      26.487  -0.322  53.308  1.00  0.00     0.036 A 
HETATM   16  C5  UNL     1      26.180  -1.548  52.720  1.00  0.00     0.029 A 
HETATM   17  C4  UNL     1      27.276  -2.380  52.516  1.00  0.00     0.003 A 
HETATM   18  C3  UNL     1      28.579  -2.137  52.818  1.00  0.00     0.007 A 
HETATM   19  C2  UNL     1      28.818  -0.888  53.405  1.00  0.00    -0.060 A 
HETATM   20  C1  UNL     1      30.203  -0.506  53.780  1.00  0.00     0.048 C 
HETATM   21  C18 UNL     1      27.785  -0.001  53.643  1.00  0.00     0.036 A 
ENDBRANCH  13  15
ENDBRANCH   1  13
TORSDOF 2
ENDMDL
MODEL 3
REMARK VINA RESULT:      -8.7      0.808      1.563
REMARK  2 active torsions:
REMARK  status: ('A' for Active; 'I' for Inactive)
REMARK    1  A    between atoms: C6_6  and  N1_7 
REMARK    2  A    between atoms: N1_7  and  C8_9 
ROOT
HETATM    1  C8  UNL     1      24.336  -0.221  53.824  1.00  0.00     0.143 A 
HETATM    2  N2  UNL     1      24.838  -0.798  54.920  1.00  0.00    -0.223 NA
HETATM    3  C9  UNL     1      24.076  -1.475  55.800  1.00  0.00     0.236 A 
HETATM    4  N3  UNL     1      22.745  -1.572  55.562  1.00  0.00    -0.241 NA
HETATM    5  C10 UNL     1      22.179  -1.019  54.491  1.00  0.00     0.072 A 
HETATM    6  C11 UNL     1      20.833  -1.088  54.200  1.00  0.00     0.039 A 
HETATM    7  C12 UNL     1      20.234  -0.522  53.096  1.00  0.00    -0.054 A 
HETATM    8  C13 UNL     1      18.792  -0.634  52.849  1.00  0.00     0.049 C 
HETATM    9  C14 UNL     1      21.097   0.149  52.253  1.00  0.00    -0.055 A 
HETATM   10  C15 UNL     1      20.558   0.797  51.033  1.00  0.00     0.049 C 
HETATM   11  C16 UNL     1      22.464   0.268  52.467  1.00  0.00     0.025 A 
HETATM   12  C17 UNL     1      22.977  -0.323  53.589  1.00  0.00     0.039 A 
ENDROOT
BRANCH   1  13
HETATM   13  N1  UNL     1      25.251   0.464  52.977  1.00  0.00    -0.335 N 
HETATM   14  C7  UNL     1      24.839   1.280  51.844  1.00  0.00     0.158 C 
BRANCH  13  15
HETATM   15  C6  UNL     1      26.661   0.362  53.232  1.00  0.00     0.036 A 
HETATM   16  C5  UNL     1      27.333   1.521  53.615  1.00  0.00     0.029 A 
HETATM   17  C4  UNL     1      28.694   1.348  53.845  1.00  0.00     0.003 A 
HETATM   18  C3  UNL     1      29.422   0.204  53.740  1.00  0.00     0.007 A 
HETATM   19  C2  UNL     1      28.686  -0.921  53.351  1.00  0.00    -0.060 A 
HETATM   20  C1  UNL     1      29.370  -2.231  53.201  1.00  0.00     0.048 C 
HETATM   21  C18 UNL     1      27.329  -0.837  53.103  1.00  0.00     0.036 A 
ENDBRANCH  13  15
ENDBRANCH   1  13
TORSDOF 2
ENDMDL
MODEL 4
REMARK VINA RESULT:      -8.7      2.267      3.978
REMARK  2 active torsions:
REMARK  status: ('A' for Active; 'I' for Inactive)
REMARK    1  A    between atoms: C6_6  and  N1_7 
REMARK    2  A    between atoms: N1_7  and  C8_9 
ROOT
HETATM    1  C8  UNL     1      25.818   2.239  51.611  1.00  0.00     0.143 A 
HETATM    2  N2  UNL     1      26.807   2.945  51.053  1.00  0.00    -0.223 NA
HETATM    3  C9  UNL     1      26.668   3.590  49.879  1.00  0.00     0.236 A 
HETATM    4  N3  UNL     1      25.475   3.518  49.240  1.00  0.00    -0.241 NA
HETATM    5  C10 UNL     1      24.448   2.832  49.739  1.00  0.00     0.072 A 
HETATM    6  C11 UNL     1      23.215   2.727  49.132  1.00  0.00     0.039 A 
HETATM    7  C12 UNL     1      22.144   2.022  49.636  1.00  0.00    -0.054 A 
HETATM    8  C13 UNL     1      20.857   1.952  48.936  1.00  0.00     0.049 C 
HETATM    9  C14 UNL     1      22.384   1.396  50.844  1.00  0.00    -0.055 A 
HETATM   10  C15 UNL     1      21.300   0.609  51.478  1.00  0.00     0.049 C 
HETATM   11  C16 UNL     1      23.593   1.449  51.524  1.00  0.00     0.025 A 
HETATM   12  C17 UNL     1      24.605   2.171  50.952  1.00  0.00     0.039 A 
ENDROOT
BRANCH   1  13
HETATM   13  N1  UNL     1      26.098   1.606  52.854  1.00  0.00    -0.335 N 
HETATM   14  C7  UNL     1      25.703   2.158  54.142  1.00  0.00     0.158 C 
BRANCH  13  15
HETATM   15  C6  UNL     1      26.807   0.357  52.867  1.00  0.00     0.036 A 
HETATM   16  C5  UNL     1      26.122  -0.777  52.435  1.00  0.00     0.029 A 
HETATM   17  C4  UNL     1      26.869  -1.951  52.474  1.00  0.00     0.003 A 
HETATM   18  C3  UNL     1      28.158  -2.109  52.876  1.00  0.00     0.007 A 
HETATM   19  C2  UNL     1      28.786  -0.930  53.296  1.00  0.00    -0.060 A 
HETATM   20  C1  UNL     1      30.198  -0.974  53.759  1.00  0.00     0.048 C 
HETATM   21  C18 UNL     1      28.116   0.279  53.289  1.00  0.00     0.036 A 
ENDBRANCH  13  15
ENDBRANCH   1  13
TORSDOF 2
ENDMDL
MODEL 5
REMARK VINA RESULT:      -8.6      1.596      2.936
REMARK  2 active torsions:
REMARK  status: ('A' for Active; 'I' for Inactive)
REMARK    1  A    between atoms: C6_6  and  N1_7 
REMARK    2  A    between atoms: N1_7  and  C8_9 
ROOT
HETATM    1  C8  UNL     1      24.704   1.526  52.119  1.00  0.00     0.143 A 
HETATM    2  N2  UNL     1      25.014   2.200  51.007  1.00  0.00    -0.223 NA
HETATM    3  C9  UNL     1      24.118   2.452  50.035  1.00  0.00     0.236 A 
HETATM    4  N3  UNL     1      22.849   2.003  50.193  1.00  0.00    -0.241 NA
HETATM    5  C10 UNL     1      22.472   1.324  51.275  1.00  0.00     0.072 A 
HETATM    6  C11 UNL     1      21.197   0.845  51.487  1.00  0.00     0.039 A 
HETATM    7  C12 UNL     1      20.792   0.142  52.600  1.00  0.00    -0.054 A 
HETATM    8  C13 UNL     1      19.416  -0.339  52.761  1.00  0.00     0.049 C 
HETATM    9  C14 UNL     1      21.781  -0.066  53.541  1.00  0.00    -0.055 A 
HETATM   10  C15 UNL     1      21.456  -0.812  54.780  1.00  0.00     0.049 C 
HETATM   11  C16 UNL     1      23.090   0.380  53.410  1.00  0.00     0.025 A 
HETATM   12  C17 UNL     1      23.408   1.070  52.272  1.00  0.00     0.039 A 
ENDROOT
BRANCH   1  13
HETATM   13  N1  UNL     1      25.746   1.327  53.067  1.00  0.00    -0.335 N 
HETATM   14  C7  UNL     1      26.040   2.263  54.143  1.00  0.00     0.158 C 
BRANCH  13  15
HETATM   15  C6  UNL     1      26.564   0.151  52.981  1.00  0.00     0.036 A 
HETATM   16  C5  UNL     1      25.976  -1.010  52.483  1.00  0.00     0.029 A 
HETATM   17  C4  UNL     1      26.826  -2.110  52.428  1.00  0.00     0.003 A 
HETATM   18  C3  UNL     1      28.133  -2.176  52.797  1.00  0.00     0.007 A 
HETATM   19  C2  UNL     1      28.661  -0.976  53.288  1.00  0.00    -0.060 A 
HETATM   20  C1  UNL     1      30.081  -0.921  53.723  1.00  0.00     0.048 C 
HETATM   21  C18 UNL     1      27.885   0.164  53.376  1.00  0.00     0.036 A 
ENDBRANCH  13  15
ENDBRANCH   1  13
TORSDOF 2
ENDMDL
MODEL 6
REMARK VINA RESULT:      -8.5      1.807      3.916
REMARK  2 active torsions:
REMARK  status: ('A' for Active; 'I' for Inactive)
REMARK    1  A    between atoms: C6_6  and  N1_7 
REMARK    2  A    between atoms: N1_7  and  C8_9 
ROOT
HETATM    1  C8  UNL     1      24.296  -0.192  53.674  1.00  0.00     0.143 A 
HETATM    2  N2  UNL     1      24.938  -0.680  54.740  1.00  0.00    -0.223 NA
HETATM    3  C9  UNL     1      24.311  -1.363  55.717  1.00  0.00     0.236 A 
HETATM    4  N3  UNL     1      22.974  -1.561  55.611  1.00  0.00    -0.241 NA
HETATM    5  C10 UNL     1      22.273  -1.102  54.577  1.00  0.00     0.072 A 
HETATM    6  C11 UNL     1      20.915  -1.275  54.419  1.00  0.00     0.039 A 
HETATM    7  C12 UNL     1      20.177  -0.806  53.355  1.00  0.00    -0.054 A 
HETATM    8  C13 UNL     1      18.731  -1.027  53.251  1.00  0.00     0.049 C 
HETATM    9  C14 UNL     1      20.908  -0.120  52.405  1.00  0.00    -0.055 A 
HETATM   10  C15 UNL     1      20.213   0.430  51.216  1.00  0.00     0.049 C 
HETATM   11  C16 UNL     1      22.276   0.101  52.483  1.00  0.00     0.025 A 
HETATM   12  C17 UNL     1      22.933  -0.398  53.574  1.00  0.00     0.039 A 
ENDROOT
BRANCH   1  13
HETATM   13  N1  UNL     1      25.078   0.511  52.715  1.00  0.00    -0.335 N 
HETATM   14  C7  UNL     1      26.266  -0.046  52.086  1.00  0.00     0.158 C 
BRANCH  13  15
HETATM   15  C6  UNL     1      24.696   1.841  52.330  1.00  0.00     0.036 A 
HETATM   16  C5  UNL     1      24.402   2.747  53.347  1.00  0.00     0.029 A 
HETATM   17  C4  UNL     1      24.040   4.015  52.902  1.00  0.00     0.003 A 
HETATM   18  C3  UNL     1      23.943   4.455  51.620  1.00  0.00     0.007 A 
HETATM   19  C2  UNL     1      24.252   3.495  50.649  1.00  0.00    -0.060 A 
HETATM   20  C1  UNL     1      24.183   3.856  49.209  1.00  0.00     0.048 C 
HETATM   21  C18 UNL     1      24.621   2.211  51.005  1.00  0.00     0.036 A 
ENDBRANCH  13  15
ENDBRANCH   1  13
TORSDOF 2
ENDMDL
MODEL 7
REMARK VINA RESULT:      -8.4      2.176      5.978
REMARK  2 active torsions:
REMARK  status: ('A' for Active; 'I' for Inactive)
REMARK    1  A    between atoms: C6_6  and  N1_7 
REMARK    2  A    between atoms: N1_7  and  C8_9 
ROOT
HETATM    1  C8  UNL     1      22.065   1.082  52.833  1.00  0.00     0.143 A 
HETATM    2  N2  UNL     1      21.197   0.385  53.573  1.00  0.00    -0.223 NA
HETATM    3  C9  UNL     1      21.569  -0.651  54.349  1.00  0.00     0.236 A 
HETATM    4  N3  UNL     1      22.880  -0.998  54.378  1.00  0.00    -0.241 NA
HETATM    5  C10 UNL     1      23.797  -0.347  53.666  1.00  0.00     0.072 A 
HETATM    6  C11 UNL     1      25.140  -0.657  53.658  1.00  0.00     0.039 A 
HETATM    7  C12 UNL     1      26.100   0.006  52.927  1.00  0.00    -0.054 A 
HETATM    8  C13 UNL     1      27.515  -0.378  52.967  1.00  0.00     0.049 C 
HETATM    9  C14 UNL     1      25.621   1.053  52.164  1.00  0.00    -0.055 A 
HETATM   10  C15 UNL     1      26.569   1.837  51.336  1.00  0.00     0.049 C 
HETATM   11  C16 UNL     1      24.287   1.435  52.111  1.00  0.00     0.025 A 
HETATM   12  C17 UNL     1      23.399   0.721  52.868  1.00  0.00     0.039 A 
ENDROOT
BRANCH   1  13
HETATM   13  N1  UNL     1      21.539   2.153  52.058  1.00  0.00    -0.335 N 
HETATM   14  C7  UNL     1      20.814   3.277  52.631  1.00  0.00     0.158 C 
BRANCH  13  15
HETATM   15  C6  UNL     1      21.720   2.148  50.633  1.00  0.00     0.036 A 
HETATM   16  C5  UNL     1      21.410   0.975  49.947  1.00  0.00     0.029 A 
HETATM   17  C4  UNL     1      21.609   1.042  48.572  1.00  0.00     0.003 A 
HETATM   18  C3  UNL     1      22.060   2.097  47.842  1.00  0.00     0.007 A 
HETATM   19  C2  UNL     1      22.352   3.242  48.592  1.00  0.00    -0.060 A 
HETATM   20  C1  UNL     1      22.853   4.462  47.907  1.00  0.00     0.048 C 
HETATM   21  C18 UNL     1      22.183   3.260  49.964  1.00  0.00     0.036 A 
ENDBRANCH  13  15
ENDBRANCH   1  13
TORSDOF 2
ENDMDL
MODEL 8
REMARK VINA RESULT:      -8.3      2.899      6.162
REMARK  2 active torsions:
REMARK  status: ('A' for Active; 'I' for Inactive)
REMARK    1  A    between atoms: C6_6  and  N1_7 
REMARK    2  A    between atoms: N1_7  and  C8_9 
ROOT
HETATM    1  C8  UNL     1      24.337   2.435  51.536  1.00  0.00     0.143 A 
HETATM    2  N2  UNL     1      25.628   2.404  51.188  1.00  0.00    -0.223 NA
HETATM    3  C9  UNL     1      26.476   1.452  51.621  1.00  0.00     0.236 A 
HETATM    4  N3  UNL     1      25.997   0.487  52.445  1.00  0.00    -0.241 NA
HETATM    5  C10 UNL     1      24.723   0.458  52.831  1.00  0.00     0.072 A 
HETATM    6  C11 UNL     1      24.185  -0.499  53.665  1.00  0.00     0.039 A 
HETATM    7  C12 UNL     1      22.870  -0.541  54.073  1.00  0.00    -0.054 A 
HETATM    8  C13 UNL     1      22.363  -1.591  54.963  1.00  0.00     0.049 C 
HETATM    9  C14 UNL     1      22.079   0.477  53.575  1.00  0.00    -0.055 A 
HETATM   10  C15 UNL     1      20.646   0.528  53.950  1.00  0.00     0.049 C 
HETATM   11  C16 UNL     1      22.537   1.480  52.731  1.00  0.00     0.025 A 
HETATM   12  C17 UNL     1      23.858   1.448  52.376  1.00  0.00     0.039 A 
ENDROOT
BRANCH   1  13
HETATM   13  N1  UNL     1      23.551   3.497  51.007  1.00  0.00    -0.335 N 
HETATM   14  C7  UNL     1      23.227   4.703  51.755  1.00  0.00     0.158 C 
BRANCH  13  15
HETATM   15  C6  UNL     1      23.039   3.398  49.670  1.00  0.00     0.036 A 
HETATM   16  C5  UNL     1      22.665   2.135  49.213  1.00  0.00     0.029 A 
HETATM   17  C4  UNL     1      22.178   2.114  47.910  1.00  0.00     0.003 A 
HETATM   18  C3  UNL     1      22.030   3.161  47.055  1.00  0.00     0.007 A 
HETATM   19  C2  UNL     1      22.424   4.399  47.576  1.00  0.00    -0.060 A 
HETATM   20  C1  UNL     1      22.310   5.620  46.737  1.00  0.00     0.048 C 
HETATM   21  C18 UNL     1      22.919   4.508  48.863  1.00  0.00     0.036 A 
ENDBRANCH  13  15
ENDBRANCH   1  13
TORSDOF 2
ENDMDL
MODEL 9
REMARK VINA RESULT:      -8.1      3.303      5.684
REMARK  2 active torsions:
REMARK  status: ('A' for Active; 'I' for Inactive)
REMARK    1  A    between atoms: C6_6  and  N1_7 
REMARK    2  A    between atoms: N1_7  and  C8_9 
ROOT
HETATM    1  C8  UNL     1      24.737   2.009  51.262  1.00  0.00     0.143 A 
HETATM    2  N2  UNL     1      26.070   1.927  51.223  1.00  0.00    -0.223 NA
HETATM    3  C9  UNL     1      26.772   1.099  52.019  1.00  0.00     0.236 A 
HETATM    4  N3  UNL     1      26.095   0.318  52.896  1.00  0.00    -0.241 NA
HETATM    5  C10 UNL     1      24.767   0.349  52.988  1.00  0.00     0.072 A 
HETATM    6  C11 UNL     1      24.029  -0.422  53.859  1.00  0.00     0.039 A 
HETATM    7  C12 UNL     1      22.655  -0.400  53.965  1.00  0.00    -0.054 A 
HETATM    8  C13 UNL     1      21.933  -1.251  54.917  1.00  0.00     0.049 C 
HETATM    9  C14 UNL     1      22.026   0.480  53.107  1.00  0.00    -0.055 A 
HETATM   10  C15 UNL     1      20.547   0.585  53.136  1.00  0.00     0.049 C 
HETATM   11  C16 UNL     1      22.689   1.294  52.198  1.00  0.00     0.025 A 
HETATM   12  C17 UNL     1      24.054   1.210  52.159  1.00  0.00     0.039 A 
ENDROOT
BRANCH   1  13
HETATM   13  N1  UNL     1      24.119   2.926  50.366  1.00  0.00    -0.335 N 
HETATM   14  C7  UNL     1      23.062   2.551  49.437  1.00  0.00     0.158 C 
BRANCH  13  15
HETATM   15  C6  UNL     1      24.542   4.298  50.357  1.00  0.00     0.036 A 
HETATM   16  C5  UNL     1      23.931   5.168  51.259  1.00  0.00     0.029 A 
HETATM   17  C4  UNL     1      24.389   6.480  51.195  1.00  0.00     0.003 A 
HETATM   18  C3  UNL     1      25.341   6.995  50.372  1.00  0.00     0.007 A 
HETATM   19  C2  UNL     1      25.914   6.068  49.492  1.00  0.00    -0.060 A 
HETATM   20  C1  UNL     1      26.967   6.510  48.543  1.00  0.00     0.048 C 
HETATM   21  C18 UNL     1      25.516   4.744  49.490  1.00  0.00     0.036 A 
ENDBRANCH  13  15
ENDBRANCH   1  13
TORSDOF 2
ENDMDL
