MODEL 1
REMARK VINA RESULT:      -7.9      0.000      0.000
REMARK  5 active torsions:
REMARK  status: ('A' for Active; 'I' for Inactive)
REMARK    1  A    between atoms: C6_7  and  C7_8 
REMARK    2  A    between atoms: C7_8  and  C9_14 
REMARK    3  A    between atoms: N1_9  and  N2_10 
REMARK    4  A    between atoms: N2_10  and  C8_11 
REMARK    5  A    between atoms: C8_11  and  N3_12 
ROOT
HETATM    1  C7  UNL     1      24.363   0.567  53.063  1.00  0.00     0.089 C 
HETATM    2  N1  UNL     1      24.466   1.213  51.912  1.00  0.00    -0.172 NA
ENDROOT
BRANCH   1   3
HETATM    3  C6  UNL     1      25.575   0.486  53.842  1.00  0.00     0.067 C 
HETATM    4  C5  UNL     1      26.730  -0.156  53.984  1.00  0.00     0.055 C 
HETATM    5  O1  UNL     1      27.349  -1.196  53.320  1.00  0.00    -0.327 OA
HETATM    6  C15 UNL     1      27.694   0.218  55.066  1.00  0.00     0.073 C 
HETATM    7  C4  UNL     1      28.704  -1.347  53.221  1.00  0.00     0.138 C 
HETATM    8  C3  UNL     1      29.611  -0.563  53.722  1.00  0.00     0.002 C 
HETATM    9  C2  UNL     1      29.038   0.585  54.462  1.00  0.00     0.012 C 
HETATM   10  C1  UNL     1      28.889   1.831  53.623  1.00  0.00     0.014 C 
ENDBRANCH   1   3
BRANCH   1  11
HETATM   11  C9  UNL     1      23.006   0.082  53.266  1.00  0.00    -0.006 A 
HETATM   12  C10 UNL     1      22.739  -0.808  54.261  1.00  0.00     0.014 A 
HETATM   13  C11 UNL     1      21.484  -1.324  54.531  1.00  0.00     0.001 A 
HETATM   14  C12 UNL     1      20.409  -0.941  53.768  1.00  0.00     0.000 A 
HETATM   15  C13 UNL     1      20.608  -0.043  52.742  1.00  0.00     0.001 A 
HETATM   16  C14 UNL     1      21.886   0.423  52.539  1.00  0.00     0.014 A 
ENDBRANCH   1  11
BRANCH   2  17
HETATM   17  N2  UNL     1      25.727   1.742  51.577  1.00  0.00    -0.253 N 
HETATM   18  H8  UNL     1      26.733   1.994  51.443  1.00  0.00     0.191 HD
BRANCH  17  19
HETATM   19  C8  UNL     1      25.311   2.815  50.709  1.00  0.00     0.185 C 
HETATM   20  S1  UNL     1      24.304   3.502  49.651  1.00  0.00    -0.040 SA
BRANCH  19  21
HETATM   21  N3  UNL     1      26.211   3.911  50.724  1.00  0.00    -0.375 N 
HETATM   22  H9  UNL     1      26.516   4.881  51.028  1.00  0.00     0.158 HD
HETATM   23  H10 UNL     1      27.129   4.294  50.372  1.00  0.00     0.158 HD
ENDBRANCH  19  21
ENDBRANCH  17  19
ENDBRANCH   2  17
TORSDOF 5
ENDMDL
MODEL 2
REMARK VINA RESULT:      -7.7      1.797      2.171
REMARK  5 active torsions:
REMARK  status: ('A' for Active; 'I' for Inactive)
REMARK    1  A    between atoms: C6_7  and  C7_8 
REMARK    2  A    between atoms: C7_8  and  C9_14 
REMARK    3  A    between atoms: N1_9  and  N2_10 
REMARK    4  A    between atoms: N2_10  and  C8_11 
REMARK    5  A    between atoms: C8_11  and  N3_12 
ROOT
HETATM    1  C7  UNL     1      23.682   1.394  53.046  1.00  0.00     0.089 C 
HETATM    2  N1  UNL     1      23.300   2.661  52.996  1.00  0.00    -0.172 NA
ENDROOT
BRANCH   1   3
HETATM    3  C6  UNL     1      25.078   1.153  52.773  1.00  0.00     0.067 C 
HETATM    4  C5  UNL     1      26.282   1.021  53.322  1.00  0.00     0.055 C 
HETATM    5  O1  UNL     1      26.771   1.074  54.612  1.00  0.00    -0.327 OA
HETATM    6  C15 UNL     1      27.489   0.750  52.480  1.00  0.00     0.073 C 
HETATM    7  C4  UNL     1      27.866   0.382  55.048  1.00  0.00     0.138 C 
HETATM    8  C3  UNL     1      28.612  -0.415  54.343  1.00  0.00     0.002 C 
HETATM    9  C2  UNL     1      28.166  -0.530  52.935  1.00  0.00     0.012 C 
HETATM   10  C1  UNL     1      27.245  -1.701  52.688  1.00  0.00     0.014 C 
ENDBRANCH   1   3
BRANCH   1  11
HETATM   11  C9  UNL     1      22.561   0.527  53.376  1.00  0.00    -0.006 A 
HETATM   12  C10 UNL     1      22.766  -0.614  54.090  1.00  0.00     0.014 A 
HETATM   13  C11 UNL     1      21.765  -1.499  54.452  1.00  0.00     0.001 A 
HETATM   14  C12 UNL     1      20.466  -1.248  54.084  1.00  0.00     0.000 A 
HETATM   15  C13 UNL     1      20.187  -0.111  53.359  1.00  0.00     0.001 A 
HETATM   16  C14 UNL     1      21.238   0.717  53.040  1.00  0.00     0.014 A 
ENDBRANCH   1  11
BRANCH   2  17
HETATM   17  N2  UNL     1      24.282   3.621  52.686  1.00  0.00    -0.253 N 
HETATM   18  H8  UNL     1      25.137   4.199  52.516  1.00  0.00     0.191 HD
BRANCH  17  19
HETATM   19  C8  UNL     1      23.432   4.685  52.213  1.00  0.00     0.185 C 
HETATM   20  S1  UNL     1      22.070   5.257  51.563  1.00  0.00    -0.040 SA
BRANCH  19  21
HETATM   21  N3  UNL     1      24.027   5.965  52.353  1.00  0.00    -0.375 N 
HETATM   22  H9  UNL     1      24.208   6.962  52.042  1.00  0.00     0.158 HD
HETATM   23  H10 UNL     1      24.657   6.577  52.936  1.00  0.00     0.158 HD
ENDBRANCH  19  21
ENDBRANCH  17  19
ENDBRANCH   2  17
TORSDOF 5
ENDMDL
MODEL 3
REMARK VINA RESULT:      -7.7      1.458      5.630
REMARK  5 active torsions:
REMARK  status: ('A' for Active; 'I' for Inactive)
REMARK    1  A    between atoms: C6_7  and  C7_8 
REMARK    2  A    between atoms: C7_8  and  C9_14 
REMARK    3  A    between atoms: N1_9  and  N2_10 
REMARK    4  A    between atoms: N2_10  and  C8_11 
REMARK    5  A    between atoms: C8_11  and  N3_12 
ROOT
HETATM    1  C7  UNL     1      26.124   0.810  52.725  1.00  0.00     0.089 C 
HETATM    2  N1  UNL     1      26.261   2.114  52.540  1.00  0.00    -0.172 NA
ENDROOT
BRANCH   1   3
HETATM    3  C6  UNL     1      24.781   0.299  52.590  1.00  0.00     0.067 C 
HETATM    4  C5  UNL     1      23.802  -0.350  53.210  1.00  0.00     0.055 C 
HETATM    5  O1  UNL     1      23.648  -0.901  54.467  1.00  0.00    -0.327 OA
HETATM    6  C15 UNL     1      22.501  -0.626  52.523  1.00  0.00     0.073 C 
HETATM    7  C4  UNL     1      22.450  -1.013  55.116  1.00  0.00     0.138 C 
HETATM    8  C3  UNL     1      21.289  -0.634  54.673  1.00  0.00     0.002 C 
HETATM    9  C2  UNL     1      21.354  -0.032  53.321  1.00  0.00     0.012 C 
HETATM   10  C1  UNL     1      21.477   1.473  53.335  1.00  0.00     0.014 C 
ENDBRANCH   1   3
BRANCH   1  11
HETATM   11  C9  UNL     1      27.405   0.192  53.031  1.00  0.00    -0.006 A 
HETATM   12  C10 UNL     1      28.462   0.960  53.411  1.00  0.00     0.014 A 
HETATM   13  C11 UNL     1      29.716   0.464  53.721  1.00  0.00     0.001 A 
HETATM   14  C12 UNL     1      29.953  -0.886  53.652  1.00  0.00     0.000 A 
HETATM   15  C13 UNL     1      28.927  -1.724  53.273  1.00  0.00     0.001 A 
HETATM   16  C14 UNL     1      27.710  -1.152  52.981  1.00  0.00     0.014 A 
ENDBRANCH   1  11
BRANCH   2  17
HETATM   17  N2  UNL     1      25.100   2.850  52.235  1.00  0.00    -0.253 N 
HETATM   18  H8  UNL     1      24.167   3.317  52.172  1.00  0.00     0.191 HD
BRANCH  17  19
HETATM   19  C8  UNL     1      25.540   3.497  51.024  1.00  0.00     0.185 C 
HETATM   20  S1  UNL     1      26.356   3.542  49.632  1.00  0.00    -0.040 SA
BRANCH  19  21
HETATM   21  N3  UNL     1      25.034   4.815  50.892  1.00  0.00    -0.375 N 
HETATM   22  H9  UNL     1      24.672   5.732  51.284  1.00  0.00     0.158 HD
HETATM   23  H10 UNL     1      24.754   5.581  50.225  1.00  0.00     0.158 HD
ENDBRANCH  19  21
ENDBRANCH  17  19
ENDBRANCH   2  17
TORSDOF 5
ENDMDL
MODEL 4
REMARK VINA RESULT:      -7.6      2.702      4.857
REMARK  5 active torsions:
REMARK  status: ('A' for Active; 'I' for Inactive)
REMARK    1  A    between atoms: C6_7  and  C7_8 
REMARK    2  A    between atoms: C7_8  and  C9_14 
REMARK    3  A    between atoms: N1_9  and  N2_10 
REMARK    4  A    between atoms: N2_10  and  C8_11 
REMARK    5  A    between atoms: C8_11  and  N3_12 
ROOT
HETATM    1  C7  UNL     1      24.472   0.854  52.389  1.00  0.00     0.089 C 
HETATM    2  N1  UNL     1      25.701   0.585  52.803  1.00  0.00    -0.172 NA
ENDROOT
BRANCH   1   3
HETATM    3  C6  UNL     1      24.376   1.751  51.263  1.00  0.00     0.067 C 
HETATM    4  C5  UNL     1      24.140   3.006  50.896  1.00  0.00     0.055 C 
HETATM    5  O1  UNL     1      23.833   4.172  51.569  1.00  0.00    -0.327 OA
HETATM    6  C15 UNL     1      24.180   3.411  49.456  1.00  0.00     0.073 C 
HETATM    7  C4  UNL     1      24.174   5.423  51.137  1.00  0.00     0.138 C 
HETATM    8  C3  UNL     1      24.823   5.717  50.050  1.00  0.00     0.002 C 
HETATM    9  C2  UNL     1      25.192   4.524  49.255  1.00  0.00     0.012 C 
HETATM   10  C1  UNL     1      26.578   4.004  49.554  1.00  0.00     0.014 C 
ENDBRANCH   1   3
BRANCH   1  11
HETATM   11  C9  UNL     1      23.487   0.153  53.199  1.00  0.00    -0.006 A 
HETATM   12  C10 UNL     1      22.163   0.248  52.900  1.00  0.00     0.014 A 
HETATM   13  C11 UNL     1      21.155  -0.381  53.610  1.00  0.00     0.001 A 
HETATM   14  C12 UNL     1      21.468  -1.159  54.696  1.00  0.00     0.000 A 
HETATM   15  C13 UNL     1      22.790  -1.299  55.056  1.00  0.00     0.001 A 
HETATM   16  C14 UNL     1      23.732  -0.642  54.299  1.00  0.00     0.014 A 
ENDBRANCH   1  11
BRANCH   2  17
HETATM   17  N2  UNL     1      26.765   1.195  52.111  1.00  0.00    -0.253 N 
HETATM   18  H8  UNL     1      27.441   1.628  51.441  1.00  0.00     0.191 HD
BRANCH  17  19
HETATM   19  C8  UNL     1      27.681   1.387  53.208  1.00  0.00     0.185 C 
HETATM   20  S1  UNL     1      28.931   0.951  54.132  1.00  0.00    -0.040 SA
BRANCH  19  21
HETATM   21  N3  UNL     1      27.430   2.582  53.928  1.00  0.00    -0.375 N 
HETATM   22  H9  UNL     1      27.247   3.625  53.995  1.00  0.00     0.158 HD
HETATM   23  H10 UNL     1      27.292   3.018  54.878  1.00  0.00     0.158 HD
ENDBRANCH  19  21
ENDBRANCH  17  19
ENDBRANCH   2  17
TORSDOF 5
ENDMDL
MODEL 5
REMARK VINA RESULT:      -7.4      2.608      5.369
REMARK  5 active torsions:
REMARK  status: ('A' for Active; 'I' for Inactive)
REMARK    1  A    between atoms: C6_7  and  C7_8 
REMARK    2  A    between atoms: C7_8  and  C9_14 
REMARK    3  A    between atoms: N1_9  and  N2_10 
REMARK    4  A    between atoms: N2_10  and  C8_11 
REMARK    5  A    between atoms: C8_11  and  N3_12 
ROOT
HETATM    1  C7  UNL     1      25.411   2.866  50.957  1.00  0.00     0.089 C 
HETATM    2  N1  UNL     1      24.108   2.965  51.174  1.00  0.00    -0.172 NA
ENDROOT
BRANCH   1   3
HETATM    3  C6  UNL     1      26.057   1.726  51.561  1.00  0.00     0.067 C 
HETATM    4  C5  UNL     1      27.126   1.321  52.239  1.00  0.00     0.055 C 
HETATM    5  O1  UNL     1      28.257   1.942  52.728  1.00  0.00    -0.327 OA
HETATM    6  C15 UNL     1      27.288  -0.112  52.641  1.00  0.00     0.073 C 
HETATM    7  C4  UNL     1      28.939   1.534  53.840  1.00  0.00     0.138 C 
HETATM    8  C3  UNL     1      28.648   0.521  54.600  1.00  0.00     0.002 C 
HETATM    9  C2  UNL     1      27.446  -0.216  54.147  1.00  0.00     0.012 C 
HETATM   10  C1  UNL     1      26.172   0.238  54.820  1.00  0.00     0.014 C 
ENDBRANCH   1   3
BRANCH   1  11
HETATM   11  C9  UNL     1      25.886   3.969  50.136  1.00  0.00    -0.006 A 
HETATM   12  C10 UNL     1      25.189   5.138  50.092  1.00  0.00     0.014 A 
HETATM   13  C11 UNL     1      25.562   6.241  49.343  1.00  0.00     0.001 A 
HETATM   14  C12 UNL     1      26.701   6.194  48.578  1.00  0.00     0.000 A 
HETATM   15  C13 UNL     1      27.454   5.041  48.575  1.00  0.00     0.001 A 
HETATM   16  C14 UNL     1      27.016   3.990  49.347  1.00  0.00     0.014 A 
ENDBRANCH   1  11
BRANCH   2  17
HETATM   17  N2  UNL     1      23.504   1.963  51.957  1.00  0.00    -0.253 N 
HETATM   18  H8  UNL     1      23.227   1.129  52.524  1.00  0.00     0.191 HD
BRANCH  17  19
HETATM   19  C8  UNL     1      22.198   2.551  52.127  1.00  0.00     0.185 C 
HETATM   20  S1  UNL     1      20.607   2.471  52.390  1.00  0.00    -0.040 SA
BRANCH  19  21
HETATM   21  N3  UNL     1      22.217   3.965  52.025  1.00  0.00    -0.375 N 
HETATM   22  H9  UNL     1      21.948   4.884  51.567  1.00  0.00     0.158 HD
HETATM   23  H10 UNL     1      22.571   4.867  52.441  1.00  0.00     0.158 HD
ENDBRANCH  19  21
ENDBRANCH  17  19
ENDBRANCH   2  17
TORSDOF 5
ENDMDL
MODEL 6
REMARK VINA RESULT:      -7.3      2.957      5.094
REMARK  5 active torsions:
REMARK  status: ('A' for Active; 'I' for Inactive)
REMARK    1  A    between atoms: C6_7  and  C7_8 
REMARK    2  A    between atoms: C7_8  and  C9_14 
REMARK    3  A    between atoms: N1_9  and  N2_10 
REMARK    4  A    between atoms: N2_10  and  C8_11 
REMARK    5  A    between atoms: C8_11  and  N3_12 
ROOT
HETATM    1  C7  UNL     1      25.269   1.813  52.777  1.00  0.00     0.089 C 
HETATM    2  N1  UNL     1      26.154   1.804  53.762  1.00  0.00    -0.172 NA
ENDROOT
BRANCH   1   3
HETATM    3  C6  UNL     1      25.588   2.668  51.660  1.00  0.00     0.067 C 
HETATM    4  C5  UNL     1      25.156   3.127  50.490  1.00  0.00     0.055 C 
HETATM    5  O1  UNL     1      24.020   2.932  49.731  1.00  0.00    -0.327 OA
HETATM    6  C15 UNL     1      25.978   4.086  49.686  1.00  0.00     0.073 C 
HETATM    7  C4  UNL     1      23.491   3.864  48.883  1.00  0.00     0.138 C 
HETATM    8  C3  UNL     1      23.957   5.055  48.652  1.00  0.00     0.002 C 
HETATM    9  C2  UNL     1      25.187   5.355  49.421  1.00  0.00     0.012 C 
HETATM   10  C1  UNL     1      24.924   6.065  50.728  1.00  0.00     0.014 C 
ENDBRANCH   1   3
BRANCH   1  11
HETATM   11  C9  UNL     1      24.154   0.926  53.074  1.00  0.00    -0.006 A 
HETATM   12  C10 UNL     1      24.313  -0.101  53.953  1.00  0.00     0.014 A 
HETATM   13  C11 UNL     1      23.313  -0.994  54.299  1.00  0.00     0.001 A 
HETATM   14  C12 UNL     1      22.066  -0.873  53.740  1.00  0.00     0.000 A 
HETATM   15  C13 UNL     1      21.835   0.144  52.840  1.00  0.00     0.001 A 
HETATM   16  C14 UNL     1      22.881   0.990  52.550  1.00  0.00     0.014 A 
ENDBRANCH   1  11
BRANCH   2  17
HETATM   17  N2  UNL     1      27.293   2.619  53.616  1.00  0.00    -0.253 N 
HETATM   18  H8  UNL     1      28.011   3.366  53.472  1.00  0.00     0.191 HD
BRANCH  17  19
HETATM   19  C8  UNL     1      28.320   1.638  53.865  1.00  0.00     0.185 C 
HETATM   20  S1  UNL     1      28.908   0.135  53.850  1.00  0.00    -0.040 SA
BRANCH  19  21
HETATM   21  N3  UNL     1      29.491   2.204  54.433  1.00  0.00    -0.375 N 
HETATM   22  H9  UNL     1      30.349   2.826  54.404  1.00  0.00     0.158 HD
HETATM   23  H10 UNL     1      30.115   2.253  55.280  1.00  0.00     0.158 HD
ENDBRANCH  19  21
ENDBRANCH  17  19
ENDBRANCH   2  17
TORSDOF 5
ENDMDL
MODEL 7
REMARK VINA RESULT:      -7.3      2.212      4.284
REMARK  5 active torsions:
REMARK  status: ('A' for Active; 'I' for Inactive)
REMARK    1  A    between atoms: C6_7  and  C7_8 
REMARK    2  A    between atoms: C7_8  and  C9_14 
REMARK    3  A    between atoms: N1_9  and  N2_10 
REMARK    4  A    between atoms: N2_10  and  C8_11 
REMARK    5  A    between atoms: C8_11  and  N3_12 
ROOT
HETATM    1  C7  UNL     1      24.404   1.209  52.346  1.00  0.00     0.089 C 
HETATM    2  N1  UNL     1      23.261   0.551  52.463  1.00  0.00    -0.172 NA
ENDROOT
BRANCH   1   3
HETATM    3  C6  UNL     1      25.408   0.892  53.332  1.00  0.00     0.067 C 
HETATM    4  C5  UNL     1      26.441   0.103  53.611  1.00  0.00     0.055 C 
HETATM    5  O1  UNL     1      27.087  -0.921  52.946  1.00  0.00    -0.327 OA
HETATM    6  C15 UNL     1      27.183   0.229  54.905  1.00  0.00     0.073 C 
HETATM    7  C4  UNL     1      28.411  -1.223  53.100  1.00  0.00     0.138 C 
HETATM    8  C3  UNL     1      29.260  -0.617  53.876  1.00  0.00     0.002 C 
HETATM    9  C2  UNL     1      28.653   0.498  54.639  1.00  0.00     0.012 C 
HETATM   10  C1  UNL     1      28.806   1.842  53.967  1.00  0.00     0.014 C 
ENDBRANCH   1   3
BRANCH   1  11
HETATM   11  C9  UNL     1      24.365   2.121  51.213  1.00  0.00    -0.006 A 
HETATM   12  C10 UNL     1      25.484   2.803  50.844  1.00  0.00     0.014 A 
HETATM   13  C11 UNL     1      25.544   3.688  49.783  1.00  0.00     0.001 A 
HETATM   14  C12 UNL     1      24.423   3.927  49.027  1.00  0.00     0.000 A 
HETATM   15  C13 UNL     1      23.255   3.271  49.346  1.00  0.00     0.001 A 
HETATM   16  C14 UNL     1      23.278   2.406  50.415  1.00  0.00     0.014 A 
ENDBRANCH   1  11
BRANCH   2  17
HETATM   17  N2  UNL     1      23.150  -0.372  53.520  1.00  0.00    -0.253 N 
HETATM   18  H8  UNL     1      23.261  -1.071  54.290  1.00  0.00     0.191 HD
BRANCH  17  19
HETATM   19  C8  UNL     1      21.721  -0.342  53.711  1.00  0.00     0.185 C 
HETATM   20  S1  UNL     1      20.210  -0.050  53.225  1.00  0.00    -0.040 SA
BRANCH  19  21
HETATM   21  N3  UNL     1      21.331  -0.799  54.997  1.00  0.00    -0.375 N 
HETATM   22  H9  UNL     1      21.534  -1.169  55.970  1.00  0.00     0.158 HD
HETATM   23  H10 UNL     1      20.526  -0.998  55.646  1.00  0.00     0.158 HD
ENDBRANCH  19  21
ENDBRANCH  17  19
ENDBRANCH   2  17
TORSDOF 5
ENDMDL
MODEL 8
REMARK VINA RESULT:      -7.2      3.063      6.847
REMARK  5 active torsions:
REMARK  status: ('A' for Active; 'I' for Inactive)
REMARK    1  A    between atoms: C6_7  and  C7_8 
REMARK    2  A    between atoms: C7_8  and  C9_14 
REMARK    3  A    between atoms: N1_9  and  N2_10 
REMARK    4  A    between atoms: N2_10  and  C8_11 
REMARK    5  A    between atoms: C8_11  and  N3_12 
ROOT
HETATM    1  C7  UNL     1      25.662   2.594  51.099  1.00  0.00     0.089 C 
HETATM    2  N1  UNL     1      26.808   2.166  51.607  1.00  0.00    -0.172 NA
ENDROOT
BRANCH   1   3
HETATM    3  C6  UNL     1      24.498   1.814  51.445  1.00  0.00     0.067 C 
HETATM    4  C5  UNL     1      23.257   1.873  51.914  1.00  0.00     0.055 C 
HETATM    5  O1  UNL     1      22.428   2.891  52.341  1.00  0.00    -0.327 OA
HETATM    6  C15 UNL     1      22.433   0.633  52.077  1.00  0.00     0.073 C 
HETATM    7  C4  UNL     1      21.064   2.863  52.249  1.00  0.00     0.138 C 
HETATM    8  C3  UNL     1      20.339   1.900  51.762  1.00  0.00     0.002 C 
HETATM    9  C2  UNL     1      21.145   0.755  51.282  1.00  0.00     0.012 C 
HETATM   10  C1  UNL     1      21.468   0.820  49.808  1.00  0.00     0.014 C 
ENDBRANCH   1   3
BRANCH   1  11
HETATM   11  C9  UNL     1      25.866   3.787  50.291  1.00  0.00    -0.006 A 
HETATM   12  C10 UNL     1      26.956   3.887  49.482  1.00  0.00     0.014 A 
HETATM   13  C11 UNL     1      27.234   4.979  48.679  1.00  0.00     0.001 A 
HETATM   14  C12 UNL     1      26.380   6.054  48.667  1.00  0.00     0.000 A 
HETATM   15  C13 UNL     1      25.257   6.020  49.462  1.00  0.00     0.001 A 
HETATM   16  C14 UNL     1      25.052   4.898  50.232  1.00  0.00     0.014 A 
ENDBRANCH   1  11
BRANCH   2  17
HETATM   17  N2  UNL     1      26.768   1.015  52.415  1.00  0.00    -0.253 N 
HETATM   18  H8  UNL     1      26.594   0.104  52.898  1.00  0.00     0.191 HD
BRANCH  17  19
HETATM   19  C8  UNL     1      27.829   1.335  53.337  1.00  0.00     0.185 C 
HETATM   20  S1  UNL     1      29.215   1.019  54.103  1.00  0.00    -0.040 SA
BRANCH  19  21
HETATM   21  N3  UNL     1      27.649   2.596  53.963  1.00  0.00    -0.375 N 
HETATM   22  H9  UNL     1      27.174   3.538  54.070  1.00  0.00     0.158 HD
HETATM   23  H10 UNL     1      27.970   3.246  54.727  1.00  0.00     0.158 HD
ENDBRANCH  19  21
ENDBRANCH  17  19
ENDBRANCH   2  17
TORSDOF 5
ENDMDL
MODEL 9
REMARK VINA RESULT:      -7.1      1.845      2.303
REMARK  5 active torsions:
REMARK  status: ('A' for Active; 'I' for Inactive)
REMARK    1  A    between atoms: C6_7  and  C7_8 
REMARK    2  A    between atoms: C7_8  and  C9_14 
REMARK    3  A    between atoms: N1_9  and  N2_10 
REMARK    4  A    between atoms: N2_10  and  C8_11 
REMARK    5  A    between atoms: C8_11  and  N3_12 
ROOT
HETATM    1  C7  UNL     1      23.159   1.624  52.842  1.00  0.00     0.089 C 
HETATM    2  N1  UNL     1      23.187   2.796  52.227  1.00  0.00    -0.172 NA
ENDROOT
BRANCH   1   3
HETATM    3  C6  UNL     1      24.376   1.246  53.518  1.00  0.00     0.067 C 
HETATM    4  C5  UNL     1      25.335   0.329  53.590  1.00  0.00     0.055 C 
HETATM    5  O1  UNL     1      25.599  -0.852  52.925  1.00  0.00    -0.327 OA
HETATM    6  C15 UNL     1      26.460   0.462  54.568  1.00  0.00     0.073 C 
HETATM    7  C4  UNL     1      26.854  -1.354  52.719  1.00  0.00     0.138 C 
HETATM    8  C3  UNL     1      27.975  -0.823  53.105  1.00  0.00     0.002 C 
HETATM    9  C2  UNL     1      27.790   0.451  53.837  1.00  0.00     0.012 C 
HETATM   10  C1  UNL     1      27.890   1.673  52.956  1.00  0.00     0.014 C 
ENDBRANCH   1   3
BRANCH   1  11
HETATM   11  C9  UNL     1      21.863   0.983  52.678  1.00  0.00    -0.006 A 
HETATM   12  C10 UNL     1      21.229   1.017  51.474  1.00  0.00     0.014 A 
HETATM   13  C11 UNL     1      19.998   0.438  51.223  1.00  0.00     0.001 A 
HETATM   14  C12 UNL     1      19.337  -0.224  52.227  1.00  0.00     0.000 A 
HETATM   15  C13 UNL     1      19.920  -0.297  53.473  1.00  0.00     0.001 A 
HETATM   16  C14 UNL     1      21.145   0.305  53.641  1.00  0.00     0.014 A 
ENDBRANCH   1  11
BRANCH   2  17
HETATM   17  N2  UNL     1      24.382   3.536  52.298  1.00  0.00    -0.253 N 
HETATM   18  H8  UNL     1      25.352   3.916  52.398  1.00  0.00     0.191 HD
BRANCH  17  19
HETATM   19  C8  UNL     1      23.875   4.840  51.947  1.00  0.00     0.185 C 
HETATM   20  S1  UNL     1      23.883   6.201  51.080  1.00  0.00    -0.040 SA
BRANCH  19  21
HETATM   21  N3  UNL     1      22.764   5.226  52.740  1.00  0.00    -0.375 N 
HETATM   22  H9  UNL     1      22.243   5.309  53.660  1.00  0.00     0.158 HD
HETATM   23  H10 UNL     1      21.812   5.679  52.750  1.00  0.00     0.158 HD
ENDBRANCH  19  21
ENDBRANCH  17  19
ENDBRANCH   2  17
TORSDOF 5
ENDMDL
