MODEL 1
REMARK VINA RESULT:      -8.9      0.000      0.000
REMARK  3 active torsions:
REMARK  status: ('A' for Active; 'I' for Inactive)
REMARK    1  A    between atoms: O1_1  and  C1_2 
REMARK    2  A    between atoms: C5_8  and  N3_9 
REMARK    3  A    between atoms: N3_9  and  C6_10 
ROOT
HETATM    1  C1  UNL     1      25.140  -0.721  54.931  1.00  0.00     0.104 A 
HETATM    2  C2  UNL     1      26.393  -0.194  55.160  1.00  0.00     0.072 A 
HETATM    3  C3  UNL     1      26.927   0.671  54.228  1.00  0.00     0.077 A 
HETATM    4  N1  UNL     1      28.146   1.206  54.416  1.00  0.00    -0.241 NA
HETATM    5  C4  UNL     1      28.699   2.053  53.531  1.00  0.00     0.236 A 
HETATM    6  N2  UNL     1      28.019   2.395  52.396  1.00  0.00    -0.224 NA
HETATM    7  C5  UNL     1      26.798   1.897  52.148  1.00  0.00     0.141 A 
HETATM    8  C13 UNL     1      26.266   1.040  53.067  1.00  0.00     0.075 A 
HETATM    9  C14 UNL     1      25.025   0.491  52.882  1.00  0.00     0.121 A 
HETATM   10  C15 UNL     1      24.437  -0.378  53.776  1.00  0.00     0.136 A 
HETATM   11  O2  UNL     1      23.169  -0.892  53.513  1.00  0.00    -0.344 OA
HETATM   12  C16 UNL     1      22.241   0.013  52.903  1.00  0.00     0.202 C 
HETATM   13  C17 UNL     1      22.865   0.833  51.830  1.00  0.00     0.202 C 
HETATM   14  O3  UNL     1      24.256   0.765  51.780  1.00  0.00    -0.345 OA
ENDROOT
BRANCH   7  15
HETATM   15  N3  UNL     1      26.143   2.293  50.951  1.00  0.00    -0.363 N 
HETATM   16  H4  UNL     1      25.641   1.885  50.151  1.00  0.00     0.162 HD
BRANCH  15  17
HETATM   17  C6  UNL     1      26.152   3.724  50.727  1.00  0.00     0.131 C 
HETATM   18  C7  UNL     1      26.706   4.150  49.443  1.00  0.00     0.002 C 
HETATM   19  C8  UNL     1      26.701   5.266  48.769  1.00  0.00     0.001 C 
HETATM   20  C9  UNL     1      26.026   6.479  49.271  1.00  0.00     0.044 C 
HETATM   21  C10 UNL     1      24.966   6.571  50.095  1.00  0.00     0.137 C 
HETATM   22  F1  UNL     1      24.529   7.813  50.411  1.00  0.00    -0.204 F 
HETATM   23  C11 UNL     1      24.245   5.417  50.676  1.00  0.00     0.071 C 
HETATM   24 CL1  UNL     1      22.550   5.780  51.022  1.00  0.00    -0.081 Cl
HETATM   25  C12 UNL     1      24.760   4.203  50.943  1.00  0.00     0.029 C 
ENDBRANCH  15  17
ENDBRANCH   7  15
BRANCH   1  26
HETATM   26  O1  UNL     1      24.583  -1.596  55.859  1.00  0.00    -0.358 OA
HETATM   27  H1  UNL     1      25.109  -2.064  56.586  1.00  0.00     0.217 HD
ENDBRANCH   1  26
TORSDOF 3
ENDMDL
MODEL 2
REMARK VINA RESULT:      -8.7      2.119      3.620
REMARK  3 active torsions:
REMARK  status: ('A' for Active; 'I' for Inactive)
REMARK    1  A    between atoms: O1_1  and  C1_2 
REMARK    2  A    between atoms: C5_8  and  N3_9 
REMARK    3  A    between atoms: N3_9  and  C6_10 
ROOT
HETATM    1  C1  UNL     1      24.830  -0.857  54.930  1.00  0.00     0.104 A 
HETATM    2  C2  UNL     1      23.644  -0.749  54.234  1.00  0.00     0.072 A 
HETATM    3  C3  UNL     1      23.595   0.084  53.137  1.00  0.00     0.077 A 
HETATM    4  N1  UNL     1      22.457   0.216  52.433  1.00  0.00    -0.241 NA
HETATM    5  C4  UNL     1      22.371   1.018  51.357  1.00  0.00     0.236 A 
HETATM    6  N2  UNL     1      23.462   1.732  50.948  1.00  0.00    -0.224 NA
HETATM    7  C5  UNL     1      24.628   1.646  51.606  1.00  0.00     0.141 A 
HETATM    8  C13 UNL     1      24.681   0.823  52.694  1.00  0.00     0.075 A 
HETATM    9  C14 UNL     1      25.837   0.684  53.415  1.00  0.00     0.121 A 
HETATM   10  C15 UNL     1      25.950  -0.133  54.521  1.00  0.00     0.136 A 
HETATM   11  O2  UNL     1      27.163  -0.218  55.199  1.00  0.00    -0.344 OA
HETATM   12  C16 UNL     1      28.340  -0.197  54.383  1.00  0.00     0.202 C 
HETATM   13  C17 UNL     1      28.257   0.807  53.288  1.00  0.00     0.202 C 
HETATM   14  O3  UNL     1      26.990   1.353  53.095  1.00  0.00    -0.345 OA
ENDROOT
BRANCH   7  15
HETATM   15  N3  UNL     1      25.725   2.413  51.130  1.00  0.00    -0.363 N 
HETATM   16  H4  UNL     1      26.753   2.433  51.166  1.00  0.00     0.162 HD
BRANCH  15  17
HETATM   17  C6  UNL     1      25.334   3.553  50.325  1.00  0.00     0.131 C 
HETATM   18  C7  UNL     1      24.624   4.609  51.045  1.00  0.00     0.002 C 
HETATM   19  C8  UNL     1      24.305   5.844  50.777  1.00  0.00     0.001 C 
HETATM   20  C9  UNL     1      24.667   6.484  49.498  1.00  0.00     0.044 C 
HETATM   21  C10 UNL     1      25.707   6.215  48.688  1.00  0.00     0.137 C 
HETATM   22  F1  UNL     1      25.823   6.951  47.557  1.00  0.00    -0.204 F 
HETATM   23  C11 UNL     1      26.731   5.178  48.944  1.00  0.00     0.071 C 
HETATM   24 CL1  UNL     1      28.289   5.566  48.204  1.00  0.00    -0.081 Cl
HETATM   25  C12 UNL     1      26.563   4.043  49.645  1.00  0.00     0.029 C 
ENDBRANCH  15  17
ENDBRANCH   7  15
BRANCH   1  26
HETATM   26  O1  UNL     1      24.901  -1.692  56.040  1.00  0.00    -0.358 OA
HETATM   27  H1  UNL     1      24.150  -2.300  56.343  1.00  0.00     0.217 HD
ENDBRANCH   1  26
TORSDOF 3
ENDMDL
MODEL 3
REMARK VINA RESULT:      -8.6      2.409      4.074
REMARK  3 active torsions:
REMARK  status: ('A' for Active; 'I' for Inactive)
REMARK    1  A    between atoms: O1_1  and  C1_2 
REMARK    2  A    between atoms: C5_8  and  N3_9 
REMARK    3  A    between atoms: N3_9  and  C6_10 
ROOT
HETATM    1  C1  UNL     1      23.153  -1.173  54.956  1.00  0.00     0.104 A 
HETATM    2  C2  UNL     1      21.854  -0.917  54.570  1.00  0.00     0.072 A 
HETATM    3  C3  UNL     1      21.638  -0.153  53.443  1.00  0.00     0.077 A 
HETATM    4  N1  UNL     1      20.385   0.119  53.035  1.00  0.00    -0.241 NA
HETATM    5  C4  UNL     1      20.135   0.859  51.942  1.00  0.00     0.236 A 
HETATM    6  N2  UNL     1      21.170   1.363  51.206  1.00  0.00    -0.224 NA
HETATM    7  C5  UNL     1      22.443   1.129  51.557  1.00  0.00     0.141 A 
HETATM    8  C13 UNL     1      22.663   0.374  52.673  1.00  0.00     0.075 A 
HETATM    9  C14 UNL     1      23.935   0.093  53.094  1.00  0.00     0.121 A 
HETATM   10  C15 UNL     1      24.217  -0.664  54.211  1.00  0.00     0.136 A 
HETATM   11  O2  UNL     1      25.542  -0.903  54.571  1.00  0.00    -0.344 OA
HETATM   12  C16 UNL     1      26.455  -1.120  53.490  1.00  0.00     0.202 C 
HETATM   13  C17 UNL     1      26.231  -0.183  52.356  1.00  0.00     0.202 C 
HETATM   14  O3  UNL     1      25.047   0.548  52.432  1.00  0.00    -0.345 OA
ENDROOT
BRANCH   7  15
HETATM   15  N3  UNL     1      23.474   1.680  50.750  1.00  0.00    -0.363 N 
HETATM   16  H4  UNL     1      24.264   1.383  50.162  1.00  0.00     0.162 HD
BRANCH  15  17
HETATM   17  C6  UNL     1      23.461   3.128  50.696  1.00  0.00     0.131 C 
HETATM   18  C7  UNL     1      23.331   3.798  51.989  1.00  0.00     0.002 C 
HETATM   19  C8  UNL     1      23.494   5.022  52.406  1.00  0.00     0.001 C 
HETATM   20  C9  UNL     1      23.904   6.109  51.495  1.00  0.00     0.044 C 
HETATM   21  C10 UNL     1      24.634   6.031  50.368  1.00  0.00     0.137 C 
HETATM   22  F1  UNL     1      24.878   7.185  49.702  1.00  0.00    -0.204 F 
HETATM   23  C11 UNL     1      25.189   4.779  49.805  1.00  0.00     0.071 C 
HETATM   24 CL1  UNL     1      26.658   5.052  48.862  1.00  0.00    -0.081 Cl
HETATM   25  C12 UNL     1      24.681   3.543  49.951  1.00  0.00     0.029 C 
ENDBRANCH  15  17
ENDBRANCH   7  15
BRANCH   1  26
HETATM   26  O1  UNL     1      23.393  -1.942  56.091  1.00  0.00    -0.358 OA
HETATM   27  H1  UNL     1      23.885  -2.826  56.084  1.00  0.00     0.217 HD
ENDBRANCH   1  26
TORSDOF 3
ENDMDL
MODEL 4
REMARK VINA RESULT:      -8.3      3.789      6.511
REMARK  3 active torsions:
REMARK  status: ('A' for Active; 'I' for Inactive)
REMARK    1  A    between atoms: O1_1  and  C1_2 
REMARK    2  A    between atoms: C5_8  and  N3_9 
REMARK    3  A    between atoms: N3_9  and  C6_10 
ROOT
HETATM    1  C1  UNL     1      21.099   1.686  49.195  1.00  0.00     0.104 A 
HETATM    2  C2  UNL     1      20.585   0.867  50.179  1.00  0.00     0.072 A 
HETATM    3  C3  UNL     1      21.303   0.706  51.345  1.00  0.00     0.077 A 
HETATM    4  N1  UNL     1      20.835  -0.085  52.328  1.00  0.00    -0.241 NA
HETATM    5  C4  UNL     1      21.506  -0.265  53.479  1.00  0.00     0.236 A 
HETATM    6  N2  UNL     1      22.703   0.362  53.679  1.00  0.00    -0.224 NA
HETATM    7  C5  UNL     1      23.225   1.163  52.739  1.00  0.00     0.141 A 
HETATM    8  C13 UNL     1      22.519   1.326  51.582  1.00  0.00     0.075 A 
HETATM    9  C14 UNL     1      22.990   2.129  50.577  1.00  0.00     0.121 A 
HETATM   10  C15 UNL     1      22.320   2.331  49.389  1.00  0.00     0.136 A 
HETATM   11  O2  UNL     1      22.868   3.165  48.417  1.00  0.00    -0.344 OA
HETATM   12  C16 UNL     1      23.538   4.335  48.901  1.00  0.00     0.202 C 
HETATM   13  C17 UNL     1      24.381   4.058  50.095  1.00  0.00     0.202 C 
HETATM   14  O3  UNL     1      24.179   2.805  50.671  1.00  0.00    -0.345 OA
ENDROOT
BRANCH   7  15
HETATM   15  N3  UNL     1      24.473   1.788  53.008  1.00  0.00    -0.363 N 
HETATM   16  H4  UNL     1      24.903   2.722  53.031  1.00  0.00     0.162 HD
BRANCH  15  17
HETATM   17  C6  UNL     1      25.523   0.858  53.375  1.00  0.00     0.131 C 
HETATM   18  C7  UNL     1      25.782  -0.203  52.404  1.00  0.00     0.002 C 
HETATM   19  C8  UNL     1      26.738  -1.073  52.233  1.00  0.00     0.001 C 
HETATM   20  C9  UNL     1      27.904  -1.141  53.135  1.00  0.00     0.044 C 
HETATM   21  C10 UNL     1      28.463  -0.155  53.861  1.00  0.00     0.137 C 
HETATM   22  F1  UNL     1      29.539  -0.474  54.620  1.00  0.00    -0.204 F 
HETATM   23  C11 UNL     1      27.990   1.247  53.889  1.00  0.00     0.071 C 
HETATM   24 CL1  UNL     1      29.287   2.393  54.248  1.00  0.00    -0.081 Cl
HETATM   25  C12 UNL     1      26.731   1.671  53.680  1.00  0.00     0.029 C 
ENDBRANCH  15  17
ENDBRANCH   7  15
BRANCH   1  26
HETATM   26  O1  UNL     1      20.391   1.862  48.011  1.00  0.00    -0.358 OA
HETATM   27  H1  UNL     1      19.901   1.121  47.526  1.00  0.00     0.217 HD
ENDBRANCH   1  26
TORSDOF 3
ENDMDL
MODEL 5
REMARK VINA RESULT:      -8.2      1.786      2.457
REMARK  3 active torsions:
REMARK  status: ('A' for Active; 'I' for Inactive)
REMARK    1  A    between atoms: O1_1  and  C1_2 
REMARK    2  A    between atoms: C5_8  and  N3_9 
REMARK    3  A    between atoms: N3_9  and  C6_10 
ROOT
HETATM    1  C1  UNL     1      21.819  -0.960  54.149  1.00  0.00     0.104 A 
HETATM    2  C2  UNL     1      23.151  -0.952  54.508  1.00  0.00     0.072 A 
HETATM    3  C3  UNL     1      24.031  -0.196  53.763  1.00  0.00     0.077 A 
HETATM    4  N1  UNL     1      25.337  -0.163  54.081  1.00  0.00    -0.241 NA
HETATM    5  C4  UNL     1      26.225   0.562  53.380  1.00  0.00     0.236 A 
HETATM    6  N2  UNL     1      25.811   1.296  52.304  1.00  0.00    -0.224 NA
HETATM    7  C5  UNL     1      24.522   1.308  51.934  1.00  0.00     0.141 A 
HETATM    8  C13 UNL     1      23.646   0.560  52.667  1.00  0.00     0.075 A 
HETATM    9  C14 UNL     1      22.315   0.522  52.349  1.00  0.00     0.121 A 
HETATM   10  C15 UNL     1      21.385  -0.213  53.053  1.00  0.00     0.136 A 
HETATM   11  O2  UNL     1      20.048  -0.197  52.663  1.00  0.00    -0.344 OA
HETATM   12  C16 UNL     1      19.546   1.061  52.198  1.00  0.00     0.202 C 
HETATM   13  C17 UNL     1      20.509   1.765  51.309  1.00  0.00     0.202 C 
HETATM   14  O3  UNL     1      21.791   1.219  51.290  1.00  0.00    -0.345 OA
ENDROOT
BRANCH   7  15
HETATM   15  N3  UNL     1      24.155   2.092  50.808  1.00  0.00    -0.363 N 
HETATM   16  H4  UNL     1      23.662   2.006  49.909  1.00  0.00     0.162 HD
BRANCH  15  17
HETATM   17  C6  UNL     1      24.585   3.473  50.894  1.00  0.00     0.131 C 
HETATM   18  C7  UNL     1      25.465   3.920  49.815  1.00  0.00     0.002 C 
HETATM   19  C8  UNL     1      25.884   5.081  49.397  1.00  0.00     0.001 C 
HETATM   20  C9  UNL     1      25.472   6.340  50.048  1.00  0.00     0.044 C 
HETATM   21  C10 UNL     1      24.338   6.607  50.722  1.00  0.00     0.137 C 
HETATM   22  F1  UNL     1      24.194   7.853  51.230  1.00  0.00    -0.204 F 
HETATM   23  C11 UNL     1      23.240   5.640  50.944  1.00  0.00     0.071 C 
HETATM   24 CL1  UNL     1      21.668   6.427  51.127  1.00  0.00    -0.081 Cl
HETATM   25  C12 UNL     1      23.355   4.302  51.016  1.00  0.00     0.029 C 
ENDBRANCH  15  17
ENDBRANCH   7  15
BRANCH   1  26
HETATM   26  O1  UNL     1      20.914  -1.716  54.887  1.00  0.00    -0.358 OA
HETATM   27  H1  UNL     1      20.409  -1.371  55.694  1.00  0.00     0.217 HD
ENDBRANCH   1  26
TORSDOF 3
ENDMDL
MODEL 6
REMARK VINA RESULT:      -7.8      3.789      6.068
REMARK  3 active torsions:
REMARK  status: ('A' for Active; 'I' for Inactive)
REMARK    1  A    between atoms: O1_1  and  C1_2 
REMARK    2  A    between atoms: C5_8  and  N3_9 
REMARK    3  A    between atoms: N3_9  and  C6_10 
ROOT
HETATM    1  C1  UNL     1      21.265   3.672  51.625  1.00  0.00     0.104 A 
HETATM    2  C2  UNL     1      22.253   4.378  50.972  1.00  0.00     0.072 A 
HETATM    3  C3  UNL     1      23.521   3.839  50.911  1.00  0.00     0.077 A 
HETATM    4  N1  UNL     1      24.511   4.498  50.283  1.00  0.00    -0.241 NA
HETATM    5  C4  UNL     1      25.759   4.004  50.203  1.00  0.00     0.236 A 
HETATM    6  N2  UNL     1      26.054   2.798  50.772  1.00  0.00    -0.224 NA
HETATM    7  C5  UNL     1      25.113   2.089  51.413  1.00  0.00     0.141 A 
HETATM    8  C13 UNL     1      23.856   2.619  51.476  1.00  0.00     0.075 A 
HETATM    9  C14 UNL     1      22.844   1.954  52.114  1.00  0.00     0.121 A 
HETATM   10  C15 UNL     1      21.556   2.438  52.208  1.00  0.00     0.136 A 
HETATM   11  O2  UNL     1      20.583   1.698  52.875  1.00  0.00    -0.344 OA
HETATM   12  C16 UNL     1      20.646   0.278  52.700  1.00  0.00     0.202 C 
HETATM   13  C17 UNL     1      22.039  -0.243  52.759  1.00  0.00     0.202 C 
HETATM   14  O3  UNL     1      23.028   0.737  52.719  1.00  0.00    -0.345 OA
ENDROOT
BRANCH   7  15
HETATM   15  N3  UNL     1      25.484   0.841  51.981  1.00  0.00    -0.363 N 
HETATM   16  H4  UNL     1      25.083  -0.082  52.195  1.00  0.00     0.162 HD
BRANCH  15  17
HETATM   17  C6  UNL     1      26.863   0.788  52.423  1.00  0.00     0.131 C 
HETATM   18  C7  UNL     1      27.157   1.548  53.638  1.00  0.00     0.002 C 
HETATM   19  C8  UNL     1      28.159   1.592  54.469  1.00  0.00     0.001 C 
HETATM   20  C9  UNL     1      29.356   0.746  54.296  1.00  0.00     0.044 C 
HETATM   21  C10 UNL     1      29.455  -0.458  53.702  1.00  0.00     0.137 C 
HETATM   22  F1  UNL     1      30.679  -1.037  53.670  1.00  0.00    -0.204 F 
HETATM   23  C11 UNL     1      28.328  -1.191  53.084  1.00  0.00     0.071 C 
HETATM   24 CL1  UNL     1      28.562  -2.943  53.112  1.00  0.00    -0.081 Cl
HETATM   25  C12 UNL     1      27.223  -0.650  52.541  1.00  0.00     0.029 C 
ENDBRANCH  15  17
ENDBRANCH   7  15
BRANCH   1  26
HETATM   26  O1  UNL     1      19.979   4.198  51.698  1.00  0.00    -0.358 OA
HETATM   27  H1  UNL     1      19.494   4.624  50.918  1.00  0.00     0.217 HD
ENDBRANCH   1  26
TORSDOF 3
ENDMDL
MODEL 7
REMARK VINA RESULT:      -7.7      2.635      4.348
REMARK  3 active torsions:
REMARK  status: ('A' for Active; 'I' for Inactive)
REMARK    1  A    between atoms: O1_1  and  C1_2 
REMARK    2  A    between atoms: C5_8  and  N3_9 
REMARK    3  A    between atoms: N3_9  and  C6_10 
ROOT
HETATM    1  C1  UNL     1      22.469  -0.061  52.993  1.00  0.00     0.104 A 
HETATM    2  C2  UNL     1      21.322   0.623  52.648  1.00  0.00     0.072 A 
HETATM    3  C3  UNL     1      21.421   1.964  52.342  1.00  0.00     0.077 A 
HETATM    4  N1  UNL     1      20.326   2.667  52.002  1.00  0.00    -0.241 NA
HETATM    5  C4  UNL     1      20.382   3.974  51.696  1.00  0.00     0.236 A 
HETATM    6  N2  UNL     1      21.579   4.633  51.727  1.00  0.00    -0.224 NA
HETATM    7  C5  UNL     1      22.709   3.991  52.058  1.00  0.00     0.141 A 
HETATM    8  C13 UNL     1      22.617   2.663  52.363  1.00  0.00     0.075 A 
HETATM    9  C14 UNL     1      23.728   1.943  52.711  1.00  0.00     0.121 A 
HETATM   10  C15 UNL     1      23.696   0.601  53.027  1.00  0.00     0.136 A 
HETATM   11  O2  UNL     1      24.873  -0.060  53.371  1.00  0.00    -0.344 OA
HETATM   12  C16 UNL     1      26.044   0.326  52.641  1.00  0.00     0.202 C 
HETATM   13  C17 UNL     1      26.136   1.798  52.448  1.00  0.00     0.202 C 
HETATM   14  O3  UNL     1      24.979   2.502  52.775  1.00  0.00    -0.345 OA
ENDROOT
BRANCH   7  15
HETATM   15  N3  UNL     1      23.922   4.731  52.071  1.00  0.00    -0.363 N 
HETATM   16  H4  UNL     1      24.757   4.873  52.654  1.00  0.00     0.162 HD
BRANCH  15  17
HETATM   17  C6  UNL     1      24.097   5.583  50.911  1.00  0.00     0.131 C 
HETATM   18  C7  UNL     1      24.084   7.019  51.186  1.00  0.00     0.002 C 
HETATM   19  C8  UNL     1      24.414   8.083  50.510  1.00  0.00     0.001 C 
HETATM   20  C9  UNL     1      24.942   8.001  49.134  1.00  0.00     0.044 C 
HETATM   21  C10 UNL     1      25.630   7.000  48.556  1.00  0.00     0.137 C 
HETATM   22  F1  UNL     1      26.008   7.167  47.266  1.00  0.00    -0.204 F 
HETATM   23  C11 UNL     1      26.004   5.734  49.226  1.00  0.00     0.071 C 
HETATM   24 CL1  UNL     1      27.476   5.021  48.555  1.00  0.00    -0.081 Cl
HETATM   25  C12 UNL     1      25.343   5.136  50.232  1.00  0.00     0.029 C 
ENDBRANCH  15  17
ENDBRANCH   7  15
BRANCH   1  26
HETATM   26  O1  UNL     1      22.391  -1.415  53.306  1.00  0.00    -0.358 OA
HETATM   27  H1  UNL     1      21.613  -1.843  53.791  1.00  0.00     0.217 HD
ENDBRANCH   1  26
TORSDOF 3
ENDMDL
MODEL 8
REMARK VINA RESULT:      -7.7      2.745      4.271
REMARK  3 active torsions:
REMARK  status: ('A' for Active; 'I' for Inactive)
REMARK    1  A    between atoms: O1_1  and  C1_2 
REMARK    2  A    between atoms: C5_8  and  N3_9 
REMARK    3  A    between atoms: N3_9  and  C6_10 
ROOT
HETATM    1  C1  UNL     1      23.060  -1.233  54.958  1.00  0.00     0.104 A 
HETATM    2  C2  UNL     1      21.738  -1.115  54.585  1.00  0.00     0.072 A 
HETATM    3  C3  UNL     1      21.434  -0.391  53.452  1.00  0.00     0.077 A 
HETATM    4  N1  UNL     1      20.156  -0.252  53.055  1.00  0.00    -0.241 NA
HETATM    5  C4  UNL     1      19.821   0.445  51.956  1.00  0.00     0.236 A 
HETATM    6  N2  UNL     1      20.792   1.043  51.203  1.00  0.00    -0.224 NA
HETATM    7  C5  UNL     1      22.085   0.944  51.543  1.00  0.00     0.141 A 
HETATM    8  C13 UNL     1      22.392   0.228  52.664  1.00  0.00     0.075 A 
HETATM    9  C14 UNL     1      23.691   0.084  53.074  1.00  0.00     0.121 A 
HETATM   10  C15 UNL     1      24.059  -0.628  54.196  1.00  0.00     0.136 A 
HETATM   11  O2  UNL     1      25.405  -0.727  54.544  1.00  0.00    -0.344 OA
HETATM   12  C16 UNL     1      26.325  -0.863  53.455  1.00  0.00     0.202 C 
HETATM   13  C17 UNL     1      25.994   0.033  52.314  1.00  0.00     0.202 C 
HETATM   14  O3  UNL     1      24.743   0.641  52.395  1.00  0.00    -0.345 OA
ENDROOT
BRANCH   7  15
HETATM   15  N3  UNL     1      23.047   1.587  50.718  1.00  0.00    -0.363 N 
HETATM   16  H4  UNL     1      23.897   1.375  50.180  1.00  0.00     0.162 HD
BRANCH  15  17
HETATM   17  C6  UNL     1      22.806   3.004  50.538  1.00  0.00     0.131 C 
HETATM   18  C7  UNL     1      23.827   3.886  51.101  1.00  0.00     0.002 C 
HETATM   19  C8  UNL     1      24.112   5.152  50.978  1.00  0.00     0.001 C 
HETATM   20  C9  UNL     1      23.324   6.049  50.111  1.00  0.00     0.044 C 
HETATM   21  C10 UNL     1      22.625   5.746  49.002  1.00  0.00     0.137 C 
HETATM   22  F1  UNL     1      21.980   6.759  48.376  1.00  0.00    -0.204 F 
HETATM   23  C11 UNL     1      22.513   4.391  48.418  1.00  0.00     0.071 C 
HETATM   24 CL1  UNL     1      22.243   4.425  46.671  1.00  0.00    -0.081 Cl
HETATM   25  C12 UNL     1      22.592   3.224  49.082  1.00  0.00     0.029 C 
ENDBRANCH  15  17
ENDBRANCH   7  15
BRANCH   1  26
HETATM   26  O1  UNL     1      23.389  -1.960  56.098  1.00  0.00    -0.358 OA
HETATM   27  H1  UNL     1      24.293  -2.383  56.262  1.00  0.00     0.217 HD
ENDBRANCH   1  26
TORSDOF 3
ENDMDL
MODEL 9
REMARK VINA RESULT:      -7.3      4.256      7.467
REMARK  3 active torsions:
REMARK  status: ('A' for Active; 'I' for Inactive)
REMARK    1  A    between atoms: O1_1  and  C1_2 
REMARK    2  A    between atoms: C5_8  and  N3_9 
REMARK    3  A    between atoms: N3_9  and  C6_10 
ROOT
HETATM    1  C1  UNL     1      22.877   5.942  47.418  1.00  0.00     0.104 A 
HETATM    2  C2  UNL     1      22.261   4.778  47.008  1.00  0.00     0.072 A 
HETATM    3  C3  UNL     1      22.244   3.702  47.870  1.00  0.00     0.077 A 
HETATM    4  N1  UNL     1      21.653   2.549  47.507  1.00  0.00    -0.241 NA
HETATM    5  C4  UNL     1      21.615   1.479  48.320  1.00  0.00     0.236 A 
HETATM    6  N2  UNL     1      22.190   1.540  49.558  1.00  0.00    -0.224 NA
HETATM    7  C5  UNL     1      22.795   2.660  49.982  1.00  0.00     0.141 A 
HETATM    8  C13 UNL     1      22.815   3.728  49.132  1.00  0.00     0.075 A 
HETATM    9  C14 UNL     1      23.415   4.905  49.495  1.00  0.00     0.121 A 
HETATM   10  C15 UNL     1      23.466   6.016  48.680  1.00  0.00     0.136 A 
HETATM   11  O2  UNL     1      24.096   7.175  49.126  1.00  0.00    -0.344 OA
HETATM   12  C16 UNL     1      23.917   7.492  50.511  1.00  0.00     0.202 C 
HETATM   13  C17 UNL     1      24.023   6.295  51.389  1.00  0.00     0.202 C 
HETATM   14  O3  UNL     1      24.022   5.077  50.713  1.00  0.00    -0.345 OA
ENDROOT
BRANCH   7  15
HETATM   15  N3  UNL     1      23.371   2.660  51.280  1.00  0.00    -0.363 N 
HETATM   16  H4  UNL     1      23.302   3.159  52.177  1.00  0.00     0.162 HD
BRANCH  15  17
HETATM   17  C6  UNL     1      24.398   1.653  51.463  1.00  0.00     0.131 C 
HETATM   18  C7  UNL     1      25.763   2.166  51.557  1.00  0.00     0.002 C 
HETATM   19  C8  UNL     1      26.907   1.663  51.928  1.00  0.00     0.001 C 
HETATM   20  C9  UNL     1      27.032   0.267  52.392  1.00  0.00     0.044 C 
HETATM   21  C10 UNL     1      26.106  -0.507  52.987  1.00  0.00     0.137 C 
HETATM   22  F1  UNL     1      26.469  -1.768  53.321  1.00  0.00    -0.204 F 
HETATM   23  C11 UNL     1      24.724  -0.081  53.304  1.00  0.00     0.071 C 
HETATM   24 CL1  UNL     1      24.052  -0.938  54.695  1.00  0.00    -0.081 Cl
HETATM   25  C12 UNL     1      24.002   0.844  52.647  1.00  0.00     0.029 C 
ENDBRANCH  15  17
ENDBRANCH   7  15
BRANCH   1  26
HETATM   26  O1  UNL     1      22.906   7.040  46.563  1.00  0.00    -0.358 OA
HETATM   27  H1  UNL     1      23.729   7.602  46.389  1.00  0.00     0.217 HD
ENDBRANCH   1  26
TORSDOF 3
ENDMDL
