MODEL 1
REMARK VINA RESULT:      -7.2      0.000      0.000
REMARK  2 active torsions:
REMARK  status: ('A' for Active; 'I' for Inactive)
REMARK    1  A    between atoms: C2_3  and  C5_7 
REMARK    2  A    between atoms: C5_7  and  C6_8 
ROOT
HETATM    1  C1  UNL     1      26.605   1.846  52.462  1.00  0.00     0.044 A 
HETATM    2  O1  UNL     1      25.616   2.204  53.388  1.00  0.00     0.000 OA
HETATM    3  C2  UNL     1      24.266   1.668  53.043  1.00  0.00     0.230 A 
HETATM    4  N1  UNL     1      23.100   1.206  52.726  1.00  0.00     0.002 N 
HETATM    5  C3  UNL     1      22.458   0.094  52.740  1.00  0.00     0.288 A 
HETATM    6  C4  UNL     1      23.713  -0.169  53.245  1.00  0.00     0.291 A 
HETATM    7  C5  UNL     1      24.596   0.873  53.334  1.00  0.00     0.270 A 
HETATM    8  C6  UNL     1      25.397   2.126  53.346  1.00  0.00     0.114 A 
HETATM    9  N2  UNL     1      24.605   3.415  52.885  1.00  0.00    -0.209 N 
HETATM   10  C7  UNL     1      23.826   4.321  52.077  1.00  0.00     0.715 C 
HETATM   11  N3  UNL     1      24.818   4.159  51.267  1.00  0.00    -0.116 NA
HETATM   12  N4  UNL     1      22.521   4.842  52.505  1.00  0.00    -0.078 NA
HETATM   13  C8  UNL     1      21.543   3.972  52.263  1.00  0.00     0.131 C 
HETATM   14  C9  UNL     1      20.323   3.134  52.073  1.00  0.00     0.120 C 
HETATM   15  C10 UNL     1      20.415   1.786  52.754  1.00  0.00     0.145 C 
HETATM   16  N5  UNL     1      21.354   0.864  52.175  1.00  0.00    -0.369 N 
HETATM   17  C11 UNL     1      21.314   0.529  50.745  1.00  0.00     0.166 C 
HETATM   18  P1  UNL     1      19.949   1.494  49.978  1.00  0.00    -0.036 P 
HETATM   19  N6  UNL     1      19.893   3.123  50.727  1.00  0.00    -0.284 NA
HETATM   20  C12 UNL     1      18.599   3.754  50.524  1.00  0.00     0.116 C 
HETATM   21  H6  UNL     1      24.738   4.041  53.757  1.00  0.00     0.178 HD
HETATM   22  H7  UNL     1      24.811   4.655  50.357  1.00  0.00     0.206 HD
HETATM   23  H14 UNL     1      18.681   0.852  49.968  1.00  0.00     0.075 HD
ENDROOT
TORSDOF 2
ENDMDL
MODEL 2
REMARK VINA RESULT:      -7.0      2.069      3.667
REMARK  2 active torsions:
REMARK  status: ('A' for Active; 'I' for Inactive)
REMARK    1  A    between atoms: C2_3  and  C5_7 
REMARK    2  A    between atoms: C5_7  and  C6_8 
ROOT
HETATM    1  C1  UNL     1      27.403  -0.127  53.967  1.00  0.00     0.044 A 
HETATM    2  O1  UNL     1      26.675  -0.533  52.841  1.00  0.00     0.000 OA
HETATM    3  C2  UNL     1      25.885   0.574  52.223  1.00  0.00     0.230 A 
HETATM    4  N1  UNL     1      25.197   1.539  51.704  1.00  0.00     0.002 N 
HETATM    5  C3  UNL     1      25.381   2.588  50.986  1.00  0.00     0.288 A 
HETATM    6  C4  UNL     1      26.620   2.009  51.163  1.00  0.00     0.291 A 
HETATM    7  C5  UNL     1      26.686   0.860  51.905  1.00  0.00     0.270 A 
HETATM    8  C6  UNL     1      26.544  -0.367  52.732  1.00  0.00     0.114 A 
HETATM    9  N2  UNL     1      25.053  -0.739  53.105  1.00  0.00    -0.209 N 
HETATM   10  C7  UNL     1      23.712  -0.639  53.629  1.00  0.00     0.715 C 
HETATM   11  N3  UNL     1      24.355  -0.443  54.731  1.00  0.00    -0.116 NA
HETATM   12  N4  UNL     1      22.519  -0.758  52.781  1.00  0.00    -0.078 NA
HETATM   13  C8  UNL     1      22.238   0.389  52.167  1.00  0.00     0.131 C 
HETATM   14  C9  UNL     1      21.768   1.578  51.395  1.00  0.00     0.120 C 
HETATM   15  C10 UNL     1      22.820   2.136  50.462  1.00  0.00     0.145 C 
HETATM   16  N5  UNL     1      23.938   2.773  51.104  1.00  0.00    -0.369 N 
HETATM   17  C11 UNL     1      23.745   3.844  52.091  1.00  0.00     0.166 C 
HETATM   18  P1  UNL     1      21.936   4.104  52.294  1.00  0.00    -0.036 P 
HETATM   19  N6  UNL     1      21.106   2.516  52.219  1.00  0.00    -0.284 NA
HETATM   20  C12 UNL     1      19.695   2.670  51.907  1.00  0.00     0.116 C 
HETATM   21  H6  UNL     1      25.000  -1.740  52.701  1.00  0.00     0.178 HD
HETATM   22  H7  UNL     1      23.821  -0.285  55.605  1.00  0.00     0.206 HD
HETATM   23  H14 UNL     1      21.357   5.065  51.422  1.00  0.00     0.075 HD
ENDROOT
TORSDOF 2
ENDMDL
MODEL 3
REMARK VINA RESULT:      -6.9      2.135      3.766
REMARK  2 active torsions:
REMARK  status: ('A' for Active; 'I' for Inactive)
REMARK    1  A    between atoms: C2_3  and  C5_7 
REMARK    2  A    between atoms: C5_7  and  C6_8 
ROOT
HETATM    1  C1  UNL     1      23.223  -1.241  55.563  1.00  0.00     0.044 A 
HETATM    2  O1  UNL     1      22.883  -1.401  54.213  1.00  0.00     0.000 OA
HETATM    3  C2  UNL     1      23.217  -0.208  53.378  1.00  0.00     0.230 A 
HETATM    4  N1  UNL     1      23.502   0.835  52.669  1.00  0.00     0.002 N 
HETATM    5  C3  UNL     1      24.529   1.412  52.157  1.00  0.00     0.288 A 
HETATM    6  C4  UNL     1      24.993   0.294  52.815  1.00  0.00     0.291 A 
HETATM    7  C5  UNL     1      24.075  -0.499  53.449  1.00  0.00     0.270 A 
HETATM    8  C6  UNL     1      22.930  -1.219  54.068  1.00  0.00     0.114 A 
HETATM    9  N2  UNL     1      21.512  -0.597  53.747  1.00  0.00    -0.209 N 
HETATM   10  C7  UNL     1      20.428   0.350  53.651  1.00  0.00     0.715 C 
HETATM   11  N3  UNL     1      20.590   0.385  54.931  1.00  0.00    -0.116 NA
HETATM   12  N4  UNL     1      19.827   0.740  52.369  1.00  0.00    -0.078 NA
HETATM   13  C8  UNL     1      20.544   1.680  51.758  1.00  0.00     0.131 C 
HETATM   14  C9  UNL     1      21.212   2.724  50.925  1.00  0.00     0.120 C 
HETATM   15  C10 UNL     1      22.638   2.375  50.564  1.00  0.00     0.145 C 
HETATM   16  N5  UNL     1      23.574   2.397  51.656  1.00  0.00    -0.369 N 
HETATM   17  C11 UNL     1      23.712   3.575  52.522  1.00  0.00     0.166 C 
HETATM   18  P1  UNL     1      22.511   4.842  51.945  1.00  0.00    -0.036 P 
HETATM   19  N6  UNL     1      20.998   4.024  51.437  1.00  0.00    -0.284 NA
HETATM   20  C12 UNL     1      20.208   4.872  50.560  1.00  0.00     0.116 C 
HETATM   21  H6  UNL     1      21.025  -1.454  53.304  1.00  0.00     0.178 HD
HETATM   22  H7  UNL     1      19.982   1.002  55.499  1.00  0.00     0.206 HD
HETATM   23  H14 UNL     1      23.002   5.745  50.964  1.00  0.00     0.075 HD
ENDROOT
TORSDOF 2
ENDMDL
MODEL 4
REMARK VINA RESULT:      -6.7      2.197      3.935
REMARK  2 active torsions:
REMARK  status: ('A' for Active; 'I' for Inactive)
REMARK    1  A    between atoms: C2_3  and  C5_7 
REMARK    2  A    between atoms: C5_7  and  C6_8 
ROOT
HETATM    1  C1  UNL     1      22.242  -1.150  54.938  1.00  0.00     0.044 A 
HETATM    2  O1  UNL     1      22.560  -1.243  53.576  1.00  0.00     0.000 OA
HETATM    3  C2  UNL     1      23.159   0.009  53.025  1.00  0.00     0.230 A 
HETATM    4  N1  UNL     1      23.667   1.103  52.558  1.00  0.00     0.002 N 
HETATM    5  C3  UNL     1      24.776   1.751  52.589  1.00  0.00     0.288 A 
HETATM    6  C4  UNL     1      24.962   0.615  53.348  1.00  0.00     0.291 A 
HETATM    7  C5  UNL     1      23.908  -0.251  53.468  1.00  0.00     0.270 A 
HETATM    8  C6  UNL     1      22.656  -1.052  53.475  1.00  0.00     0.114 A 
HETATM    9  N2  UNL     1      21.499  -0.470  52.566  1.00  0.00    -0.209 N 
HETATM   10  C7  UNL     1      20.518   0.436  52.020  1.00  0.00     0.715 C 
HETATM   11  N3  UNL     1      20.082   0.402  53.235  1.00  0.00    -0.116 NA
HETATM   12  N4  UNL     1      20.538   0.876  50.619  1.00  0.00    -0.078 NA
HETATM   13  C8  UNL     1      21.393   1.879  50.433  1.00  0.00     0.131 C 
HETATM   14  C9  UNL     1      22.297   2.996  50.031  1.00  0.00     0.120 C 
HETATM   15  C10 UNL     1      23.752   2.728  50.345  1.00  0.00     0.145 C 
HETATM   16  N5  UNL     1      24.090   2.723  51.743  1.00  0.00    -0.369 N 
HETATM   17  C11 UNL     1      23.748   3.853  52.617  1.00  0.00     0.166 C 
HETATM   18  P1  UNL     1      22.859   5.102  51.601  1.00  0.00    -0.036 P 
HETATM   19  N6  UNL     1      21.794   4.254  50.434  1.00  0.00    -0.284 NA
HETATM   20  C12 UNL     1      21.433   5.119  49.322  1.00  0.00     0.116 C 
HETATM   21  H6  UNL     1      21.320  -1.319  51.921  1.00  0.00     0.178 HD
HETATM   22  H7  UNL     1      19.245   0.959  53.485  1.00  0.00     0.206 HD
HETATM   23  H14 UNL     1      23.682   6.080  50.981  1.00  0.00     0.075 HD
ENDROOT
TORSDOF 2
ENDMDL
MODEL 5
REMARK VINA RESULT:      -6.6      8.805     11.264
REMARK  2 active torsions:
REMARK  status: ('A' for Active; 'I' for Inactive)
REMARK    1  A    between atoms: C2_3  and  C5_7 
REMARK    2  A    between atoms: C5_7  and  C6_8 
ROOT
HETATM    1  C1  UNL     1      27.214   9.939  48.901  1.00  0.00     0.044 A 
HETATM    2  O1  UNL     1      28.018   9.110  49.696  1.00  0.00     0.000 OA
HETATM    3  C2  UNL     1      29.384   8.901  49.132  1.00  0.00     0.230 A 
HETATM    4  N1  UNL     1      30.561   8.720  48.627  1.00  0.00     0.002 N 
HETATM    5  C3  UNL     1      31.668   9.356  48.486  1.00  0.00     0.288 A 
HETATM    6  C4  UNL     1      30.807  10.205  49.149  1.00  0.00     0.291 A 
HETATM    7  C5  UNL     1      29.546   9.747  49.421  1.00  0.00     0.270 A 
HETATM    8  C6  UNL     1      28.238   9.068  49.619  1.00  0.00     0.114 A 
HETATM    9  N2  UNL     1      28.196   7.567  49.123  1.00  0.00    -0.209 N 
HETATM   10  C7  UNL     1      28.284   6.411  48.265  1.00  0.00     0.715 C 
HETATM   11  N3  UNL     1      27.397   7.068  47.597  1.00  0.00    -0.116 NA
HETATM   12  N4  UNL     1      29.199   5.293  48.532  1.00  0.00    -0.078 NA
HETATM   13  C8  UNL     1      30.432   5.557  48.104  1.00  0.00     0.131 C 
HETATM   14  C9  UNL     1      31.863   5.672  47.695  1.00  0.00     0.120 C 
HETATM   15  C10 UNL     1      32.563   6.866  48.305  1.00  0.00     0.145 C 
HETATM   16  N5  UNL     1      32.137   8.148  47.814  1.00  0.00    -0.369 N 
HETATM   17  C11 UNL     1      32.122   8.451  46.376  1.00  0.00     0.166 C 
HETATM   18  P1  UNL     1      32.686   6.947  45.479  1.00  0.00    -0.036 P 
HETATM   19  N6  UNL     1      32.031   5.496  46.303  1.00  0.00    -0.284 NA
HETATM   20  C12 UNL     1      32.786   4.304  45.955  1.00  0.00     0.116 C 
HETATM   21  H6  UNL     1      27.901   7.073  50.039  1.00  0.00     0.178 HD
HETATM   22  H7  UNL     1      27.017   6.658  46.725  1.00  0.00     0.206 HD
HETATM   23  H14 UNL     1      34.086   6.863  45.252  1.00  0.00     0.075 HD
ENDROOT
TORSDOF 2
ENDMDL
MODEL 6
REMARK VINA RESULT:      -6.5      2.251      3.825
REMARK  2 active torsions:
REMARK  status: ('A' for Active; 'I' for Inactive)
REMARK    1  A    between atoms: C2_3  and  C5_7 
REMARK    2  A    between atoms: C5_7  and  C6_8 
ROOT
HETATM    1  C1  UNL     1      21.584  -1.891  54.213  1.00  0.00     0.044 A 
HETATM    2  O1  UNL     1      21.308  -0.531  54.401  1.00  0.00     0.000 OA
HETATM    3  C2  UNL     1      20.914   0.168  53.142  1.00  0.00     0.230 A 
HETATM    4  N1  UNL     1      20.584   0.764  52.041  1.00  0.00     0.002 N 
HETATM    5  C3  UNL     1      19.578   0.853  51.248  1.00  0.00     0.288 A 
HETATM    6  C4  UNL     1      19.204  -0.000  52.264  1.00  0.00     0.291 A 
HETATM    7  C5  UNL     1      20.119  -0.258  53.249  1.00  0.00     0.270 A 
HETATM    8  C6  UNL     1      21.244  -0.406  54.209  1.00  0.00     0.114 A 
HETATM    9  N2  UNL     1      22.505   0.493  53.887  1.00  0.00    -0.209 N 
HETATM   10  C7  UNL     1      23.624   1.071  53.185  1.00  0.00     0.715 C 
HETATM   11  N3  UNL     1      24.005  -0.162  53.154  1.00  0.00    -0.116 NA
HETATM   12  N4  UNL     1      23.721   2.507  52.892  1.00  0.00    -0.078 NA
HETATM   13  C8  UNL     1      23.024   2.833  51.806  1.00  0.00     0.131 C 
HETATM   14  C9  UNL     1      22.303   3.387  50.622  1.00  0.00     0.120 C 
HETATM   15  C10 UNL     1      20.814   3.124  50.655  1.00  0.00     0.145 C 
HETATM   16  N5  UNL     1      20.425   1.752  50.470  1.00  0.00    -0.369 N 
HETATM   17  C11 UNL     1      20.891   0.973  49.315  1.00  0.00     0.166 C 
HETATM   18  P1  UNL     1      21.986   2.057  48.310  1.00  0.00    -0.036 P 
HETATM   19  N6  UNL     1      22.963   3.081  49.410  1.00  0.00    -0.284 NA
HETATM   20  C12 UNL     1      23.485   4.250  48.721  1.00  0.00     0.116 C 
HETATM   21  H6  UNL     1      22.587   1.043  54.815  1.00  0.00     0.178 HD
HETATM   22  H7  UNL     1      24.902  -0.401  52.695  1.00  0.00     0.206 HD
HETATM   23  H14 UNL     1      21.333   2.810  47.297  1.00  0.00     0.075 HD
ENDROOT
TORSDOF 2
ENDMDL
MODEL 7
REMARK VINA RESULT:      -6.4      9.862     12.603
REMARK  2 active torsions:
REMARK  status: ('A' for Active; 'I' for Inactive)
REMARK    1  A    between atoms: C2_3  and  C5_7 
REMARK    2  A    between atoms: C5_7  and  C6_8 
ROOT
HETATM    1  C1  UNL     1      28.883   9.478  48.917  1.00  0.00     0.044 A 
HETATM    2  O1  UNL     1      30.124   9.211  49.510  1.00  0.00     0.000 OA
HETATM    3  C2  UNL     1      31.211   8.972  48.514  1.00  0.00     0.230 A 
HETATM    4  N1  UNL     1      32.141   8.757  47.641  1.00  0.00     0.002 N 
HETATM    5  C3  UNL     1      32.876   9.418  46.820  1.00  0.00     0.288 A 
HETATM    6  C4  UNL     1      32.071  10.338  47.457  1.00  0.00     0.291 A 
HETATM    7  C5  UNL     1      31.188   9.873  48.393  1.00  0.00     0.270 A 
HETATM    8  C6  UNL     1      30.306   9.171  49.364  1.00  0.00     0.114 A 
HETATM    9  N2  UNL     1      30.571   7.617  49.487  1.00  0.00    -0.209 N 
HETATM   10  C7  UNL     1      30.720   6.226  49.132  1.00  0.00     0.715 C 
HETATM   11  N3  UNL     1      29.501   6.386  48.740  1.00  0.00    -0.116 NA
HETATM   12  N4  UNL     1      31.972   5.486  49.336  1.00  0.00    -0.078 NA
HETATM   13  C8  UNL     1      32.838   5.708  48.350  1.00  0.00     0.131 C 
HETATM   14  C9  UNL     1      33.934   5.833  47.344  1.00  0.00     0.120 C 
HETATM   15  C10 UNL     1      34.388   7.261  47.133  1.00  0.00     0.145 C 
HETATM   16  N5  UNL     1      33.442   8.118  46.472  1.00  0.00    -0.369 N 
HETATM   17  C11 UNL     1      32.847   7.749  45.180  1.00  0.00     0.166 C 
HETATM   18  P1  UNL     1      33.513   6.102  44.704  1.00  0.00    -0.036 P 
HETATM   19  N6  UNL     1      33.666   5.086  46.174  1.00  0.00    -0.284 NA
HETATM   20  C12 UNL     1      34.591   3.985  45.963  1.00  0.00     0.116 C 
HETATM   21  H6  UNL     1      30.774   7.542  50.546  1.00  0.00     0.178 HD
HETATM   22  H7  UNL     1      28.996   5.583  48.323  1.00  0.00     0.206 HD
HETATM   23  H14 UNL     1      34.705   6.128  43.930  1.00  0.00     0.075 HD
ENDROOT
TORSDOF 2
ENDMDL
MODEL 8
REMARK VINA RESULT:      -6.4      2.152      3.637
REMARK  2 active torsions:
REMARK  status: ('A' for Active; 'I' for Inactive)
REMARK    1  A    between atoms: C2_3  and  C5_7 
REMARK    2  A    between atoms: C5_7  and  C6_8 
ROOT
HETATM    1  C1  UNL     1      24.885   5.907  50.457  1.00  0.00     0.044 A 
HETATM    2  O1  UNL     1      25.148   4.540  50.301  1.00  0.00     0.000 OA
HETATM    3  C2  UNL     1      23.915   3.724  50.096  1.00  0.00     0.230 A 
HETATM    4  N1  UNL     1      22.837   3.028  49.930  1.00  0.00     0.002 N 
HETATM    5  C3  UNL     1      21.969   2.782  49.016  1.00  0.00     0.288 A 
HETATM    6  C4  UNL     1      22.884   3.655  48.467  1.00  0.00     0.291 A 
HETATM    7  C5  UNL     1      23.922   4.070  49.256  1.00  0.00     0.270 A 
HETATM    8  C6  UNL     1      24.962   4.398  50.268  1.00  0.00     0.114 A 
HETATM    9  N2  UNL     1      24.816   3.617  51.636  1.00  0.00    -0.209 N 
HETATM   10  C7  UNL     1      24.257   3.116  52.867  1.00  0.00     0.715 C 
HETATM   11  N3  UNL     1      24.168   4.378  53.125  1.00  0.00    -0.116 NA
HETATM   12  N4  UNL     1      24.079   1.683  53.132  1.00  0.00    -0.078 NA
HETATM   13  C8  UNL     1      22.964   1.216  52.574  1.00  0.00     0.131 C 
HETATM   14  C9  UNL     1      21.766   0.514  52.025  1.00  0.00     0.120 C 
HETATM   15  C10 UNL     1      21.652   0.621  50.520  1.00  0.00     0.145 C 
HETATM   16  N5  UNL     1      21.335   1.930  50.017  1.00  0.00    -0.369 N 
HETATM   17  C11 UNL     1      20.169   2.677  50.508  1.00  0.00     0.166 C 
HETATM   18  P1  UNL     1      19.344   1.652  51.793  1.00  0.00    -0.036 P 
HETATM   19  N6  UNL     1      20.597   0.810  52.761  1.00  0.00    -0.284 NA
HETATM   20  C12 UNL     1      20.042  -0.340  53.457  1.00  0.00     0.116 C 
HETATM   21  H6  UNL     1      25.784   3.140  51.685  1.00  0.00     0.178 HD
HETATM   22  H7  UNL     1      23.770   4.680  54.033  1.00  0.00     0.206 HD
HETATM   23  H14 UNL     1      18.337   0.771  51.315  1.00  0.00     0.075 HD
ENDROOT
TORSDOF 2
ENDMDL
MODEL 9
REMARK VINA RESULT:      -6.3     10.696     12.306
REMARK  2 active torsions:
REMARK  status: ('A' for Active; 'I' for Inactive)
REMARK    1  A    between atoms: C2_3  and  C5_7 
REMARK    2  A    between atoms: C5_7  and  C6_8 
ROOT
HETATM    1  C1  UNL     1      34.986   3.629  45.835  1.00  0.00     0.044 A 
HETATM    2  O1  UNL     1      33.587   3.613  45.915  1.00  0.00     0.000 OA
HETATM    3  C2  UNL     1      32.973   4.962  45.733  1.00  0.00     0.230 A 
HETATM    4  N1  UNL     1      32.454   6.138  45.583  1.00  0.00     0.002 N 
HETATM    5  C3  UNL     1      32.213   6.982  44.646  1.00  0.00     0.288 A 
HETATM    6  C4  UNL     1      32.811   5.892  44.050  1.00  0.00     0.291 A 
HETATM    7  C5  UNL     1      33.168   4.843  44.853  1.00  0.00     0.270 A 
HETATM    8  C6  UNL     1      33.476   3.820  45.888  1.00  0.00     0.114 A 
HETATM    9  N2  UNL     1      32.971   4.185  47.342  1.00  0.00    -0.209 N 
HETATM   10  C7  UNL     1      32.786   4.897  48.583  1.00  0.00     0.715 C 
HETATM   11  N3  UNL     1      34.069   4.767  48.635  1.00  0.00    -0.116 NA
HETATM   12  N4  UNL     1      31.469   5.349  49.049  1.00  0.00    -0.078 NA
HETATM   13  C8  UNL     1      31.115   6.497  48.475  1.00  0.00     0.131 C 
HETATM   14  C9  UNL     1      30.547   7.770  47.939  1.00  0.00     0.120 C 
HETATM   15  C10 UNL     1      30.420   7.776  46.432  1.00  0.00     0.145 C 
HETATM   16  N5  UNL     1      31.661   7.818  45.708  1.00  0.00    -0.369 N 
HETATM   17  C11 UNL     1      32.669   8.853  45.976  1.00  0.00     0.166 C 
HETATM   18  P1  UNL     1      32.030   9.924  47.327  1.00  0.00    -0.036 P 
HETATM   19  N6  UNL     1      31.158   8.906  48.517  1.00  0.00    -0.284 NA
HETATM   20  C12 UNL     1      30.253   9.700  49.332  1.00  0.00     0.116 C 
HETATM   21  H6  UNL     1      32.349   3.325  47.548  1.00  0.00     0.178 HD
HETATM   22  H7  UNL     1      34.582   5.154  49.448  1.00  0.00     0.206 HD
HETATM   23  H14 UNL     1      31.268  11.047  46.905  1.00  0.00     0.075 HD
ENDROOT
TORSDOF 2
ENDMDL
