MODEL 1
REMARK VINA RESULT:      -7.9      0.000      0.000
REMARK  5 active torsions:
REMARK  status: ('A' for Active; 'I' for Inactive)
REMARK    1  A    between atoms: C2_2  and  C3_3 
REMARK    2  A    between atoms: C7_9  and  N3_10 
REMARK    3  A    between atoms: N3_10  and  C8_11 
REMARK    4  A    between atoms: C10_13  and  C11_14 
REMARK    5  A    between atoms: C18_21  and  O1_22 
ROOT
HETATM    1  C3  UNL     1      21.772   0.321  52.394  1.00  0.00    -0.004 A 
HETATM    2  C4  UNL     1      22.028   1.076  51.266  1.00  0.00     0.046 A 
HETATM    3  C5  UNL     1      23.227   1.757  51.232  1.00  0.00     0.073 A 
HETATM    4  N1  UNL     1      23.552   2.524  50.153  1.00  0.00    -0.241 NA
HETATM    5  C6  UNL     1      24.735   3.185  50.139  1.00  0.00     0.235 A 
HETATM    6  N2  UNL     1      25.626   3.115  51.171  1.00  0.00    -0.224 NA
HETATM    7  C7  UNL     1      25.342   2.368  52.254  1.00  0.00     0.138 A 
HETATM    8  C16 UNL     1      24.141   1.701  52.262  1.00  0.00     0.041 A 
HETATM    9  C17 UNL     1      23.822   0.928  53.358  1.00  0.00     0.055 A 
HETATM   10  C18 UNL     1      22.642   0.220  53.459  1.00  0.00     0.079 A 
ENDROOT
BRANCH   7  11
HETATM   11  N3  UNL     1      26.303   2.330  53.300  1.00  0.00    -0.369 N 
HETATM   12  H6  UNL     1      26.145   2.358  54.327  1.00  0.00     0.161 HD
BRANCH  11  13
HETATM   13  C8  UNL     1      27.684   2.240  52.926  1.00  0.00     0.088 A 
HETATM   14  C9  UNL     1      28.770   2.155  53.951  1.00  0.00     0.033 A 
HETATM   15  C10 UNL     1      28.473   1.023  52.951  1.00  0.00     0.021 A 
BRANCH  15  16
HETATM   16  C11 UNL     1      28.027  -0.248  53.619  1.00  0.00     0.036 A 
HETATM   17  C12 UNL     1      26.932  -0.951  52.924  1.00  0.00    -0.018 A 
HETATM   18  C13 UNL     1      27.310  -2.186  52.556  1.00  0.00    -0.004 A 
HETATM   19  C14 UNL     1      28.693  -2.396  52.981  1.00  0.00    -0.004 A 
HETATM   20  C15 UNL     1      29.094  -1.282  53.588  1.00  0.00    -0.018 A 
ENDBRANCH  15  16
ENDBRANCH  11  13
ENDBRANCH   7  11
BRANCH  10  21
HETATM   21  O1  UNL     1      22.264  -0.572  54.532  1.00  0.00    -0.355 OA
HETATM   22  C19 UNL     1      23.193  -1.278  55.331  1.00  0.00     0.210 C 
ENDBRANCH  10  21
BRANCH   1  23
HETATM   23  C2  UNL     1      20.506  -0.401  52.436  1.00  0.00    -0.012 C 
HETATM   24  C1  UNL     1      19.386   0.154  52.004  1.00  0.00     0.032 C 
ENDBRANCH   1  23
TORSDOF 5
ENDMDL
MODEL 2
REMARK VINA RESULT:      -7.7      2.528      6.802
REMARK  5 active torsions:
REMARK  status: ('A' for Active; 'I' for Inactive)
REMARK    1  A    between atoms: C2_2  and  C3_3 
REMARK    2  A    between atoms: C7_9  and  N3_10 
REMARK    3  A    between atoms: N3_10  and  C8_11 
REMARK    4  A    between atoms: C10_13  and  C11_14 
REMARK    5  A    between atoms: C18_21  and  O1_22 
ROOT
HETATM    1  C3  UNL     1      27.349   0.705  53.474  1.00  0.00    -0.004 A 
HETATM    2  C4  UNL     1      26.836  -0.181  54.399  1.00  0.00     0.046 A 
HETATM    3  C5  UNL     1      25.467  -0.348  54.409  1.00  0.00     0.073 A 
HETATM    4  N1  UNL     1      24.883  -1.205  55.293  1.00  0.00    -0.241 NA
HETATM    5  C6  UNL     1      23.537  -1.354  55.287  1.00  0.00     0.235 A 
HETATM    6  N2  UNL     1      22.728  -0.673  54.421  1.00  0.00    -0.224 NA
HETATM    7  C7  UNL     1      23.266   0.183  53.533  1.00  0.00     0.138 A 
HETATM    8  C16 UNL     1      24.632   0.329  53.546  1.00  0.00     0.041 A 
HETATM    9  C17 UNL     1      25.211   1.199  52.646  1.00  0.00     0.055 A 
HETATM   10  C18 UNL     1      26.573   1.414  52.581  1.00  0.00     0.079 A 
ENDROOT
BRANCH   7  11
HETATM   11  N3  UNL     1      22.380   0.865  52.656  1.00  0.00    -0.369 N 
HETATM   12  H6  UNL     1      22.183   1.885  52.598  1.00  0.00     0.161 HD
BRANCH  11  13
HETATM   13  C8  UNL     1      21.645   0.077  51.712  1.00  0.00     0.088 A 
HETATM   14  C9  UNL     1      20.208   0.356  51.406  1.00  0.00     0.033 A 
HETATM   15  C10 UNL     1      21.327   0.487  50.357  1.00  0.00     0.021 A 
BRANCH  15  16
HETATM   16  C11 UNL     1      21.494   1.892  49.849  1.00  0.00     0.036 A 
HETATM   17  C12 UNL     1      22.881   2.392  49.884  1.00  0.00    -0.018 A 
HETATM   18  C13 UNL     1      23.306   2.719  48.652  1.00  0.00    -0.004 A 
HETATM   19  C14 UNL     1      22.227   2.456  47.702  1.00  0.00    -0.004 A 
HETATM   20  C15 UNL     1      21.195   1.984  48.396  1.00  0.00    -0.018 A 
ENDBRANCH  15  16
ENDBRANCH  11  13
ENDBRANCH   7  11
BRANCH  10  21
HETATM   21  O1  UNL     1      27.214   2.273  51.703  1.00  0.00    -0.355 OA
HETATM   22  C19 UNL     1      26.552   2.908  50.627  1.00  0.00     0.210 C 
ENDBRANCH  10  21
BRANCH   1  23
HETATM   23  C2  UNL     1      28.796   0.885  53.460  1.00  0.00    -0.012 C 
HETATM   24  C1  UNL     1      29.616  -0.133  53.662  1.00  0.00     0.032 C 
ENDBRANCH   1  23
TORSDOF 5
ENDMDL
MODEL 3
REMARK VINA RESULT:      -7.6      2.460      6.038
REMARK  5 active torsions:
REMARK  status: ('A' for Active; 'I' for Inactive)
REMARK    1  A    between atoms: C2_2  and  C3_3 
REMARK    2  A    between atoms: C7_9  and  N3_10 
REMARK    3  A    between atoms: N3_10  and  C8_11 
REMARK    4  A    between atoms: C10_13  and  C11_14 
REMARK    5  A    between atoms: C18_21  and  O1_22 
ROOT
HETATM    1  C3  UNL     1      27.159  -0.250  53.168  1.00  0.00    -0.004 A 
HETATM    2  C4  UNL     1      25.964  -0.926  53.314  1.00  0.00     0.046 A 
HETATM    3  C5  UNL     1      24.809  -0.191  53.152  1.00  0.00     0.073 A 
HETATM    4  N1  UNL     1      23.590  -0.786  53.282  1.00  0.00    -0.241 NA
HETATM    5  C6  UNL     1      22.467  -0.046  53.119  1.00  0.00     0.235 A 
HETATM    6  N2  UNL     1      22.504   1.288  52.827  1.00  0.00    -0.224 NA
HETATM    7  C7  UNL     1      23.687   1.913  52.692  1.00  0.00     0.138 A 
HETATM    8  C16 UNL     1      24.822   1.156  52.858  1.00  0.00     0.041 A 
HETATM    9  C17 UNL     1      26.051   1.769  52.725  1.00  0.00     0.055 A 
HETATM   10  C18 UNL     1      27.245   1.095  52.874  1.00  0.00     0.079 A 
ENDROOT
BRANCH   7  11
HETATM   11  N3  UNL     1      23.670   3.301  52.388  1.00  0.00    -0.369 N 
HETATM   12  H6  UNL     1      23.967   4.099  52.985  1.00  0.00     0.161 HD
BRANCH  11  13
HETATM   13  C8  UNL     1      23.185   3.690  51.097  1.00  0.00     0.088 A 
HETATM   14  C9  UNL     1      22.917   5.122  50.758  1.00  0.00     0.033 A 
HETATM   15  C10 UNL     1      23.997   4.283  50.050  1.00  0.00     0.021 A 
BRANCH  15  16
HETATM   16  C11 UNL     1      25.388   4.811  50.269  1.00  0.00     0.036 A 
HETATM   17  C12 UNL     1      26.462   3.873  49.893  1.00  0.00    -0.018 A 
HETATM   18  C13 UNL     1      27.245   4.398  48.935  1.00  0.00    -0.004 A 
HETATM   19  C14 UNL     1      26.744   5.730  48.603  1.00  0.00    -0.004 A 
HETATM   20  C15 UNL     1      25.682   5.957  49.370  1.00  0.00    -0.018 A 
ENDBRANCH  15  16
ENDBRANCH  11  13
ENDBRANCH   7  11
BRANCH  10  21
HETATM   21  O1  UNL     1      28.508   1.653  52.753  1.00  0.00    -0.355 OA
HETATM   22  C19 UNL     1      29.077   2.489  53.742  1.00  0.00     0.210 C 
ENDBRANCH  10  21
BRANCH   1  23
HETATM   23  C2  UNL     1      28.384  -1.022  53.338  1.00  0.00    -0.012 C 
HETATM   24  C1  UNL     1      28.456  -2.287  52.960  1.00  0.00     0.032 C 
ENDBRANCH   1  23
TORSDOF 5
ENDMDL
MODEL 4
REMARK VINA RESULT:      -7.6      2.481      7.277
REMARK  5 active torsions:
REMARK  status: ('A' for Active; 'I' for Inactive)
REMARK    1  A    between atoms: C2_2  and  C3_3 
REMARK    2  A    between atoms: C7_9  and  N3_10 
REMARK    3  A    between atoms: N3_10  and  C8_11 
REMARK    4  A    between atoms: C10_13  and  C11_14 
REMARK    5  A    between atoms: C18_21  and  O1_22 
ROOT
HETATM    1  C3  UNL     1      27.356   0.754  53.653  1.00  0.00    -0.004 A 
HETATM    2  C4  UNL     1      26.849  -0.068  54.639  1.00  0.00     0.046 A 
HETATM    3  C5  UNL     1      25.507  -0.375  54.564  1.00  0.00     0.073 A 
HETATM    4  N1  UNL     1      24.931  -1.182  55.501  1.00  0.00    -0.241 NA
HETATM    5  C6  UNL     1      23.611  -1.471  55.410  1.00  0.00     0.235 A 
HETATM    6  N2  UNL     1      22.821  -0.984  54.406  1.00  0.00    -0.224 NA
HETATM    7  C7  UNL     1      23.351  -0.185  53.463  1.00  0.00     0.138 A 
HETATM    8  C16 UNL     1      24.691   0.105  53.563  1.00  0.00     0.041 A 
HETATM    9  C17 UNL     1      25.263   0.922  52.609  1.00  0.00     0.055 A 
HETATM   10  C18 UNL     1      26.598   1.269  52.623  1.00  0.00     0.079 A 
ENDROOT
BRANCH   7  11
HETATM   11  N3  UNL     1      22.487   0.295  52.443  1.00  0.00    -0.369 N 
HETATM   12  H6  UNL     1      22.459   0.028  51.437  1.00  0.00     0.161 HD
BRANCH  11  13
HETATM   13  C8  UNL     1      21.510   1.277  52.810  1.00  0.00     0.088 A 
HETATM   14  C9  UNL     1      20.654   1.954  51.787  1.00  0.00     0.033 A 
HETATM   15  C10 UNL     1      20.080   1.039  52.884  1.00  0.00     0.021 A 
BRANCH  15  16
HETATM   16  C11 UNL     1      19.409  -0.188  52.334  1.00  0.00     0.036 A 
HETATM   17  C12 UNL     1      19.164  -1.249  53.330  1.00  0.00    -0.018 A 
HETATM   18  C13 UNL     1      17.851  -1.518  53.432  1.00  0.00    -0.004 A 
HETATM   19  C14 UNL     1      17.124  -0.651  52.508  1.00  0.00    -0.004 A 
HETATM   20  C15 UNL     1      18.023   0.106  51.885  1.00  0.00    -0.018 A 
ENDBRANCH  15  16
ENDBRANCH  11  13
ENDBRANCH   7  11
BRANCH  10  21
HETATM   21  O1  UNL     1      27.229   2.084  51.697  1.00  0.00    -0.355 OA
HETATM   22  C19 UNL     1      26.534   2.771  50.675  1.00  0.00     0.210 C 
ENDBRANCH  10  21
BRANCH   1  23
HETATM   23  C2  UNL     1      28.775   1.083  53.728  1.00  0.00    -0.012 C 
HETATM   24  C1  UNL     1      29.702   0.147  53.617  1.00  0.00     0.032 C 
ENDBRANCH   1  23
TORSDOF 5
ENDMDL
MODEL 5
REMARK VINA RESULT:      -7.5      2.439      6.560
REMARK  5 active torsions:
REMARK  status: ('A' for Active; 'I' for Inactive)
REMARK    1  A    between atoms: C2_2  and  C3_3 
REMARK    2  A    between atoms: C7_9  and  N3_10 
REMARK    3  A    between atoms: N3_10  and  C8_11 
REMARK    4  A    between atoms: C10_13  and  C11_14 
REMARK    5  A    between atoms: C18_21  and  O1_22 
ROOT
HETATM    1  C3  UNL     1      25.565   3.496  50.385  1.00  0.00    -0.004 A 
HETATM    2  C4  UNL     1      26.515   2.557  50.731  1.00  0.00     0.046 A 
HETATM    3  C5  UNL     1      26.119   1.560  51.598  1.00  0.00     0.073 A 
HETATM    4  N1  UNL     1      27.000   0.596  51.988  1.00  0.00    -0.241 NA
HETATM    5  C6  UNL     1      26.590  -0.375  52.840  1.00  0.00     0.235 A 
HETATM    6  N2  UNL     1      25.316  -0.429  53.331  1.00  0.00    -0.224 NA
HETATM    7  C7  UNL     1      24.417   0.504  52.970  1.00  0.00     0.138 A 
HETATM    8  C16 UNL     1      24.840   1.486  52.106  1.00  0.00     0.041 A 
HETATM    9  C17 UNL     1      23.940   2.456  51.719  1.00  0.00     0.055 A 
HETATM   10  C18 UNL     1      24.269   3.482  50.855  1.00  0.00     0.079 A 
ENDROOT
BRANCH   7  11
HETATM   11  N3  UNL     1      23.107   0.402  53.510  1.00  0.00    -0.369 N 
HETATM   12  H6  UNL     1      22.468   1.165  53.811  1.00  0.00     0.161 HD
BRANCH  11  13
HETATM   13  C8  UNL     1      22.561  -0.913  53.677  1.00  0.00     0.088 A 
HETATM   14  C9  UNL     1      21.764  -1.283  54.887  1.00  0.00     0.033 A 
HETATM   15  C10 UNL     1      21.169  -1.266  53.467  1.00  0.00     0.021 A 
BRANCH  15  16
HETATM   16  C11 UNL     1      20.067  -0.257  53.304  1.00  0.00     0.036 A 
HETATM   17  C12 UNL     1      20.082   0.461  52.015  1.00  0.00    -0.018 A 
HETATM   18  C13 UNL     1      18.943   0.251  51.334  1.00  0.00    -0.004 A 
HETATM   19  C14 UNL     1      18.083  -0.627  52.125  1.00  0.00    -0.004 A 
HETATM   20  C15 UNL     1      18.734  -0.913  53.249  1.00  0.00    -0.018 A 
ENDBRANCH  15  16
ENDBRANCH  11  13
ENDBRANCH   7  11
BRANCH  10  21
HETATM   21  O1  UNL     1      23.412   4.485  50.430  1.00  0.00    -0.355 OA
HETATM   22  C19 UNL     1      22.355   4.983  51.226  1.00  0.00     0.210 C 
ENDBRANCH  10  21
BRANCH   1  23
HETATM   23  C2  UNL     1      25.979   4.553  49.469  1.00  0.00    -0.012 C 
HETATM   24  C1  UNL     1      27.205   4.592  48.976  1.00  0.00     0.032 C 
ENDBRANCH   1  23
TORSDOF 5
ENDMDL
MODEL 6
REMARK VINA RESULT:      -7.5      1.685      5.675
REMARK  5 active torsions:
REMARK  status: ('A' for Active; 'I' for Inactive)
REMARK    1  A    between atoms: C2_2  and  C3_3 
REMARK    2  A    between atoms: C7_9  and  N3_10 
REMARK    3  A    between atoms: N3_10  and  C8_11 
REMARK    4  A    between atoms: C10_13  and  C11_14 
REMARK    5  A    between atoms: C18_21  and  O1_22 
ROOT
HETATM    1  C3  UNL     1      27.370   0.427  53.299  1.00  0.00    -0.004 A 
HETATM    2  C4  UNL     1      27.731   1.485  52.489  1.00  0.00     0.046 A 
HETATM    3  C5  UNL     1      26.734   2.051  51.723  1.00  0.00     0.073 A 
HETATM    4  N1  UNL     1      27.012   3.099  50.897  1.00  0.00    -0.241 NA
HETATM    5  C6  UNL     1      26.018   3.641  50.152  1.00  0.00     0.235 A 
HETATM    6  N2  UNL     1      24.733   3.176  50.194  1.00  0.00    -0.224 NA
HETATM    7  C7  UNL     1      24.420   2.143  50.996  1.00  0.00     0.138 A 
HETATM    8  C16 UNL     1      25.433   1.598  51.748  1.00  0.00     0.041 A 
HETATM    9  C17 UNL     1      25.140   0.538  52.580  1.00  0.00     0.055 A 
HETATM   10  C18 UNL     1      26.088  -0.076  53.374  1.00  0.00     0.079 A 
ENDROOT
BRANCH   7  11
HETATM   11  N3  UNL     1      23.070   1.698  51.002  1.00  0.00    -0.369 N 
HETATM   12  H6  UNL     1      22.606   1.025  50.359  1.00  0.00     0.161 HD
BRANCH  11  13
HETATM   13  C8  UNL     1      22.203   2.227  52.013  1.00  0.00     0.088 A 
HETATM   14  C9  UNL     1      20.728   2.347  51.798  1.00  0.00     0.033 A 
HETATM   15  C10 UNL     1      21.345   1.430  52.870  1.00  0.00     0.021 A 
BRANCH  15  16
HETATM   16  C11 UNL     1      21.052  -0.026  52.637  1.00  0.00     0.036 A 
HETATM   17  C12 UNL     1      22.102  -0.944  53.117  1.00  0.00    -0.018 A 
HETATM   18  C13 UNL     1      21.617  -1.788  54.042  1.00  0.00    -0.004 A 
HETATM   19  C14 UNL     1      20.201  -1.490  54.247  1.00  0.00    -0.004 A 
HETATM   20  C15 UNL     1      19.887  -0.481  53.440  1.00  0.00    -0.018 A 
ENDBRANCH  15  16
ENDBRANCH  11  13
ENDBRANCH   7  11
BRANCH  10  21
HETATM   21  O1  UNL     1      25.858  -1.143  54.228  1.00  0.00    -0.355 OA
HETATM   22  C19 UNL     1      25.036  -1.047  55.375  1.00  0.00     0.210 C 
ENDBRANCH  10  21
BRANCH   1  23
HETATM   23  C2  UNL     1      28.421  -0.176  54.111  1.00  0.00    -0.012 C 
HETATM   24  C1  UNL     1      29.684  -0.160  53.721  1.00  0.00     0.032 C 
ENDBRANCH   1  23
TORSDOF 5
ENDMDL
MODEL 7
REMARK VINA RESULT:      -7.1      2.924      5.594
REMARK  5 active torsions:
REMARK  status: ('A' for Active; 'I' for Inactive)
REMARK    1  A    between atoms: C2_2  and  C3_3 
REMARK    2  A    between atoms: C7_9  and  N3_10 
REMARK    3  A    between atoms: N3_10  and  C8_11 
REMARK    4  A    between atoms: C10_13  and  C11_14 
REMARK    5  A    between atoms: C18_21  and  O1_22 
ROOT
HETATM    1  C3  UNL     1      24.797   3.784  49.830  1.00  0.00    -0.004 A 
HETATM    2  C4  UNL     1      23.789   3.957  48.903  1.00  0.00     0.046 A 
HETATM    3  C5  UNL     1      22.707   3.108  48.994  1.00  0.00     0.073 A 
HETATM    4  N1  UNL     1      21.671   3.215  48.115  1.00  0.00    -0.241 NA
HETATM    5  C6  UNL     1      20.617   2.370  48.221  1.00  0.00     0.235 A 
HETATM    6  N2  UNL     1      20.547   1.403  49.184  1.00  0.00    -0.224 NA
HETATM    7  C7  UNL     1      21.549   1.265  50.070  1.00  0.00     0.138 A 
HETATM    8  C16 UNL     1      22.615   2.125  49.956  1.00  0.00     0.041 A 
HETATM    9  C17 UNL     1      23.658   2.007  50.851  1.00  0.00     0.055 A 
HETATM   10  C18 UNL     1      24.770   2.823  50.818  1.00  0.00     0.079 A 
ENDROOT
BRANCH   7  11
HETATM   11  N3  UNL     1      21.427   0.243  51.050  1.00  0.00    -0.369 N 
HETATM   12  H6  UNL     1      21.650  -0.769  50.964  1.00  0.00     0.161 HD
BRANCH  11  13
HETATM   13  C8  UNL     1      20.934   0.621  52.342  1.00  0.00     0.088 A 
HETATM   14  C9  UNL     1      20.114  -0.313  53.173  1.00  0.00     0.033 A 
HETATM   15  C10 UNL     1      21.502   0.191  53.606  1.00  0.00     0.021 A 
BRANCH  15  16
HETATM   16  C11 UNL     1      22.515  -0.914  53.733  1.00  0.00     0.036 A 
HETATM   17  C12 UNL     1      23.899  -0.512  53.420  1.00  0.00    -0.018 A 
HETATM   18  C13 UNL     1      24.705  -0.697  54.479  1.00  0.00    -0.004 A 
HETATM   19  C14 UNL     1      23.910  -1.238  55.580  1.00  0.00    -0.004 A 
HETATM   20  C15 UNL     1      22.659  -1.358  55.144  1.00  0.00    -0.018 A 
ENDBRANCH  15  16
ENDBRANCH  11  13
ENDBRANCH   7  11
BRANCH  10  21
HETATM   21  O1  UNL     1      25.848   2.754  51.687  1.00  0.00    -0.355 OA
HETATM   22  C19 UNL     1      26.597   1.573  51.891  1.00  0.00     0.210 C 
ENDBRANCH  10  21
BRANCH   1  23
HETATM   23  C2  UNL     1      25.944   4.680  49.738  1.00  0.00    -0.012 C 
HETATM   24  C1  UNL     1      27.024   4.344  49.053  1.00  0.00     0.032 C 
ENDBRANCH   1  23
TORSDOF 5
ENDMDL
MODEL 8
REMARK VINA RESULT:      -7.1      1.905      5.108
REMARK  5 active torsions:
REMARK  status: ('A' for Active; 'I' for Inactive)
REMARK    1  A    between atoms: C2_2  and  C3_3 
REMARK    2  A    between atoms: C7_9  and  N3_10 
REMARK    3  A    between atoms: N3_10  and  C8_11 
REMARK    4  A    between atoms: C10_13  and  C11_14 
REMARK    5  A    between atoms: C18_21  and  O1_22 
ROOT
HETATM    1  C3  UNL     1      23.021  -0.344  54.022  1.00  0.00    -0.004 A 
HETATM    2  C4  UNL     1      24.253  -0.676  54.549  1.00  0.00     0.046 A 
HETATM    3  C5  UNL     1      25.363  -0.255  53.849  1.00  0.00     0.073 A 
HETATM    4  N1  UNL     1      26.615  -0.544  54.304  1.00  0.00    -0.241 NA
HETATM    5  C6  UNL     1      27.693  -0.121  53.600  1.00  0.00     0.235 A 
HETATM    6  N2  UNL     1      27.578   0.590  52.439  1.00  0.00    -0.224 NA
HETATM    7  C7  UNL     1      26.360   0.894  51.957  1.00  0.00     0.138 A 
HETATM    8  C16 UNL     1      25.271   0.463  52.676  1.00  0.00     0.041 A 
HETATM    9  C17 UNL     1      24.009   0.760  52.205  1.00  0.00     0.055 A 
HETATM   10  C18 UNL     1      22.856   0.371  52.855  1.00  0.00     0.079 A 
ENDROOT
BRANCH   7  11
HETATM   11  N3  UNL     1      26.296   1.636  50.746  1.00  0.00    -0.369 N 
HETATM   12  H6  UNL     1      26.142   1.286  49.779  1.00  0.00     0.161 HD
BRANCH  11  13
HETATM   13  C8  UNL     1      26.464   3.056  50.830  1.00  0.00     0.088 A 
HETATM   14  C9  UNL     1      26.900   3.866  49.651  1.00  0.00     0.033 A 
HETATM   15  C10 UNL     1      25.522   4.035  50.317  1.00  0.00     0.021 A 
BRANCH  15  16
HETATM   16  C11 UNL     1      24.381   3.694  49.400  1.00  0.00     0.036 A 
HETATM   17  C12 UNL     1      23.172   3.200  50.087  1.00  0.00    -0.018 A 
HETATM   18  C13 UNL     1      22.120   3.998  49.840  1.00  0.00    -0.004 A 
HETATM   19  C14 UNL     1      22.555   5.087  48.968  1.00  0.00    -0.004 A 
HETATM   20  C15 UNL     1      23.849   4.905  48.722  1.00  0.00    -0.018 A 
ENDBRANCH  15  16
ENDBRANCH  11  13
ENDBRANCH   7  11
BRANCH  10  21
HETATM   21  O1  UNL     1      21.563   0.638  52.434  1.00  0.00    -0.355 OA
HETATM   22  C19 UNL     1      21.099   0.336  51.132  1.00  0.00     0.210 C 
ENDBRANCH  10  21
BRANCH   1  23
HETATM   23  C2  UNL     1      21.843  -0.787  54.759  1.00  0.00    -0.012 C 
HETATM   24  C1  UNL     1      21.274  -1.954  54.507  1.00  0.00     0.032 C 
ENDBRANCH   1  23
TORSDOF 5
ENDMDL
MODEL 9
REMARK VINA RESULT:      -7.1      2.527      5.340
REMARK  5 active torsions:
REMARK  status: ('A' for Active; 'I' for Inactive)
REMARK    1  A    between atoms: C2_2  and  C3_3 
REMARK    2  A    between atoms: C7_9  and  N3_10 
REMARK    3  A    between atoms: N3_10  and  C8_11 
REMARK    4  A    between atoms: C10_13  and  C11_14 
REMARK    5  A    between atoms: C18_21  and  O1_22 
ROOT
HETATM    1  C3  UNL     1      23.176   0.079  53.804  1.00  0.00    -0.004 A 
HETATM    2  C4  UNL     1      24.365  -0.527  54.157  1.00  0.00     0.046 A 
HETATM    3  C5  UNL     1      25.522   0.047  53.675  1.00  0.00     0.073 A 
HETATM    4  N1  UNL     1      26.737  -0.492  53.979  1.00  0.00    -0.241 NA
HETATM    5  C6  UNL     1      27.862   0.087  53.495  1.00  0.00     0.235 A 
HETATM    6  N2  UNL     1      27.832   1.202  52.707  1.00  0.00    -0.224 NA
HETATM    7  C7  UNL     1      26.654   1.764  52.384  1.00  0.00     0.138 A 
HETATM    8  C16 UNL     1      25.516   1.172  52.878  1.00  0.00     0.041 A 
HETATM    9  C17 UNL     1      24.293   1.727  52.564  1.00  0.00     0.055 A 
HETATM   10  C18 UNL     1      23.096   1.205  53.011  1.00  0.00     0.079 A 
ENDROOT
BRANCH   7  11
HETATM   11  N3  UNL     1      26.679   2.923  51.562  1.00  0.00    -0.369 N 
HETATM   12  H6  UNL     1      26.919   3.900  51.825  1.00  0.00     0.161 HD
BRANCH  11  13
HETATM   13  C8  UNL     1      26.331   2.762  50.181  1.00  0.00     0.088 A 
HETATM   14  C9  UNL     1      25.215   3.538  49.557  1.00  0.00     0.033 A 
HETATM   15  C10 UNL     1      26.684   3.689  49.122  1.00  0.00     0.021 A 
BRANCH  15  16
HETATM   16  C11 UNL     1      27.230   5.068  49.368  1.00  0.00     0.036 A 
HETATM   17  C12 UNL     1      28.393   5.422  48.533  1.00  0.00    -0.018 A 
HETATM   18  C13 UNL     1      28.130   6.500  47.774  1.00  0.00    -0.004 A 
HETATM   19  C14 UNL     1      26.765   6.942  48.051  1.00  0.00    -0.004 A 
HETATM   20  C15 UNL     1      26.258   6.118  48.963  1.00  0.00    -0.018 A 
ENDBRANCH  15  16
ENDBRANCH  11  13
ENDBRANCH   7  11
BRANCH  10  21
HETATM   21  O1  UNL     1      21.839   1.715  52.731  1.00  0.00    -0.355 OA
HETATM   22  C19 UNL     1      21.638   2.956  52.084  1.00  0.00     0.210 C 
ENDBRANCH  10  21
BRANCH   1  23
HETATM   23  C2  UNL     1      21.948  -0.524  54.310  1.00  0.00    -0.012 C 
HETATM   24  C1  UNL     1      21.699  -1.812  54.147  1.00  0.00     0.032 C 
ENDBRANCH   1  23
TORSDOF 5
ENDMDL
