MODEL 1
REMARK VINA RESULT:      -8.4      0.000      0.000
REMARK  8 active torsions:
REMARK  status: ('A' for Active; 'I' for Inactive)
REMARK    1  A    between atoms: O1_2  and  C2_3 
REMARK    2  A    between atoms: C5_6  and  O2_7 
REMARK    3  A    between atoms: O2_7  and  C6_8 
REMARK    4  A    between atoms: C6_8  and  C7_9 
REMARK    5  A    between atoms: C7_9  and  C8_10 
REMARK    6  A    between atoms: C8_10  and  C12_19 
REMARK    7  A    between atoms: N1_11  and  N2_12 
REMARK    8  A    between atoms: C11_16  and  O3_17 
ROOT
HETATM    1  C8  UNL     1      24.655   0.530  52.970  1.00  0.00     0.090 C 
HETATM    2  N1  UNL     1      25.562   0.037  53.780  1.00  0.00    -0.155 NA
ENDROOT
BRANCH   1   3
HETATM    3  C7  UNL     1      25.151   1.204  51.787  1.00  0.00     0.059 C 
BRANCH   3   4
HETATM    4  C6  UNL     1      25.119   2.444  51.409  1.00  0.00     0.145 C 
BRANCH   4   5
HETATM    5  O2  UNL     1      24.852   3.674  50.859  1.00  0.00    -0.323 OA
BRANCH   5   6
HETATM    6  C5  UNL     1      25.750   4.377  50.051  1.00  0.00     0.075 A 
HETATM    7  C4  UNL     1      25.394   5.708  49.998  1.00  0.00     0.040 A 
HETATM    8  C3  UNL     1      26.087   6.664  49.279  1.00  0.00     0.039 A 
HETATM    9  C2  UNL     1      27.207   6.189  48.587  1.00  0.00     0.068 A 
HETATM   10  C19 UNL     1      27.579   4.864  48.628  1.00  0.00     0.039 A 
HETATM   11  C18 UNL     1      26.875   3.927  49.350  1.00  0.00     0.040 A 
BRANCH   9  12
HETATM   12  O1  UNL     1      27.957   7.085  47.841  1.00  0.00    -0.356 OA
HETATM   13  C1  UNL     1      28.676   8.170  48.353  1.00  0.00     0.210 C 
ENDBRANCH   9  12
ENDBRANCH   5   6
ENDBRANCH   4   5
ENDBRANCH   3   4
ENDBRANCH   1   3
BRANCH   1  14
HETATM   14  C12 UNL     1      23.298   0.298  53.433  1.00  0.00    -0.006 A 
HETATM   15  C13 UNL     1      23.060  -0.754  54.287  1.00  0.00     0.014 A 
HETATM   16  C14 UNL     1      21.770  -1.019  54.766  1.00  0.00     0.001 A 
HETATM   17  C15 UNL     1      20.694  -0.238  54.403  1.00  0.00     0.000 A 
HETATM   18  C16 UNL     1      20.902   0.825  53.549  1.00  0.00     0.001 A 
HETATM   19  C17 UNL     1      22.184   1.035  53.112  1.00  0.00     0.014 A 
ENDBRANCH   1  14
BRANCH   2  20
HETATM   20  N2  UNL     1      26.934   0.157  53.515  1.00  0.00    -0.199 N 
HETATM   21  C9  UNL     1      27.518  -0.922  52.743  1.00  0.00     0.250 C 
HETATM   22  S1  UNL     1      29.170  -1.245  53.422  1.00  0.00    -0.114 SA
HETATM   23  C10 UNL     1      29.766   0.311  54.066  1.00  0.00     0.103 C 
HETATM   24  C11 UNL     1      28.941   1.323  54.272  1.00  0.00     0.162 C 
HETATM   25  N3  UNL     1      27.556   1.275  54.011  1.00  0.00    -0.261 N 
HETATM   26  H12 UNL     1      27.042   2.168  54.231  1.00  0.00     0.191 HD
BRANCH  24  27
HETATM   27  O3  UNL     1      29.649   2.396  54.769  1.00  0.00    -0.345 OA
HETATM   28  H11 UNL     1      30.137   3.047  54.165  1.00  0.00     0.219 HD
ENDBRANCH  24  27
ENDBRANCH   2  20
TORSDOF 8
ENDMDL
MODEL 2
REMARK VINA RESULT:      -8.4      3.741      6.256
REMARK  8 active torsions:
REMARK  status: ('A' for Active; 'I' for Inactive)
REMARK    1  A    between atoms: O1_2  and  C2_3 
REMARK    2  A    between atoms: C5_6  and  O2_7 
REMARK    3  A    between atoms: O2_7  and  C6_8 
REMARK    4  A    between atoms: C6_8  and  C7_9 
REMARK    5  A    between atoms: C7_9  and  C8_10 
REMARK    6  A    between atoms: C8_10  and  C12_19 
REMARK    7  A    between atoms: N1_11  and  N2_12 
REMARK    8  A    between atoms: C11_16  and  O3_17 
ROOT
HETATM    1  C8  UNL     1      22.602   2.256  52.120  1.00  0.00     0.090 C 
HETATM    2  N1  UNL     1      21.878   3.315  52.399  1.00  0.00    -0.155 NA
ENDROOT
BRANCH   1   3
HETATM    3  C7  UNL     1      23.578   2.409  51.060  1.00  0.00     0.059 C 
BRANCH   3   4
HETATM    4  C6  UNL     1      24.856   2.627  51.074  1.00  0.00     0.145 C 
BRANCH   4   5
HETATM    5  O2  UNL     1      26.182   2.822  51.373  1.00  0.00    -0.323 OA
BRANCH   5   6
HETATM    6  C5  UNL     1      26.952   1.922  52.114  1.00  0.00     0.075 A 
HETATM    7  C4  UNL     1      26.523   0.632  51.882  1.00  0.00     0.040 A 
HETATM    8  C3  UNL     1      27.086  -0.487  52.470  1.00  0.00     0.039 A 
HETATM    9  C2  UNL     1      28.150  -0.226  53.340  1.00  0.00     0.068 A 
HETATM   10  C19 UNL     1      28.594   1.054  53.584  1.00  0.00     0.039 A 
HETATM   11  C18 UNL     1      28.020   2.154  52.989  1.00  0.00     0.040 A 
BRANCH   9  12
HETATM   12  O1  UNL     1      28.770  -1.295  53.971  1.00  0.00    -0.356 OA
HETATM   13  C1  UNL     1      29.258  -2.443  53.338  1.00  0.00     0.210 C 
ENDBRANCH   9  12
ENDBRANCH   5   6
ENDBRANCH   4   5
ENDBRANCH   3   4
ENDBRANCH   1   3
BRANCH   1  14
HETATM   14  C12 UNL     1      22.269   1.111  52.948  1.00  0.00    -0.006 A 
HETATM   15  C13 UNL     1      23.240   0.169  53.199  1.00  0.00     0.014 A 
HETATM   16  C14 UNL     1      22.972  -0.953  53.995  1.00  0.00     0.001 A 
HETATM   17  C15 UNL     1      21.730  -1.154  54.557  1.00  0.00     0.000 A 
HETATM   18  C16 UNL     1      20.736  -0.228  54.323  1.00  0.00     0.001 A 
HETATM   19  C17 UNL     1      21.056   0.848  53.537  1.00  0.00     0.014 A 
ENDBRANCH   1  14
BRANCH   2  20
HETATM   20  N2  UNL     1      22.043   4.526  51.710  1.00  0.00    -0.199 N 
HETATM   21  C9  UNL     1      21.189   4.708  50.552  1.00  0.00     0.250 C 
HETATM   22  S1  UNL     1      22.175   5.538  49.274  1.00  0.00    -0.114 SA
HETATM   23  C10 UNL     1      23.369   6.552  50.134  1.00  0.00     0.103 C 
HETATM   24  C11 UNL     1      23.616   6.369  51.419  1.00  0.00     0.162 C 
HETATM   25  N3  UNL     1      22.984   5.389  52.212  1.00  0.00    -0.261 N 
HETATM   26  H12 UNL     1      23.297   5.376  53.218  1.00  0.00     0.191 HD
BRANCH  24  27
HETATM   27  O3  UNL     1      24.570   7.275  51.834  1.00  0.00    -0.345 OA
HETATM   28  H11 UNL     1      25.203   7.727  51.185  1.00  0.00     0.219 HD
ENDBRANCH  24  27
ENDBRANCH   2  20
TORSDOF 8
ENDMDL
MODEL 3
REMARK VINA RESULT:      -8.3      2.193      2.935
REMARK  8 active torsions:
REMARK  status: ('A' for Active; 'I' for Inactive)
REMARK    1  A    between atoms: O1_2  and  C2_3 
REMARK    2  A    between atoms: C5_6  and  O2_7 
REMARK    3  A    between atoms: O2_7  and  C6_8 
REMARK    4  A    between atoms: C6_8  and  C7_9 
REMARK    5  A    between atoms: C7_9  and  C8_10 
REMARK    6  A    between atoms: C8_10  and  C12_19 
REMARK    7  A    between atoms: N1_11  and  N2_12 
REMARK    8  A    between atoms: C11_16  and  O3_17 
ROOT
HETATM    1  C8  UNL     1      24.994   0.701  52.657  1.00  0.00     0.090 C 
HETATM    2  N1  UNL     1      25.272  -0.039  53.705  1.00  0.00    -0.155 NA
ENDROOT
BRANCH   1   3
HETATM    3  C7  UNL     1      26.103   1.008  51.777  1.00  0.00     0.059 C 
BRANCH   3   4
HETATM    4  C6  UNL     1      26.510   2.113  51.235  1.00  0.00     0.145 C 
BRANCH   4   5
HETATM    5  O2  UNL     1      26.969   3.121  50.423  1.00  0.00    -0.323 OA
BRANCH   5   6
HETATM    6  C5  UNL     1      26.137   4.038  49.776  1.00  0.00     0.075 A 
HETATM    7  C4  UNL     1      24.862   3.524  49.667  1.00  0.00     0.040 A 
HETATM    8  C3  UNL     1      23.808   4.192  49.073  1.00  0.00     0.039 A 
HETATM    9  C2  UNL     1      24.118   5.463  48.574  1.00  0.00     0.068 A 
HETATM   10  C19 UNL     1      25.384   5.994  48.674  1.00  0.00     0.039 A 
HETATM   11  C18 UNL     1      26.420   5.312  49.269  1.00  0.00     0.040 A 
BRANCH   9  12
HETATM   12  O1  UNL     1      23.114   6.200  47.963  1.00  0.00    -0.356 OA
HETATM   13  C1  UNL     1      21.860   5.711  47.584  1.00  0.00     0.210 C 
ENDBRANCH   9  12
ENDBRANCH   5   6
ENDBRANCH   4   5
ENDBRANCH   3   4
ENDBRANCH   1   3
BRANCH   1  14
HETATM   14  C12 UNL     1      23.593   1.078  52.589  1.00  0.00    -0.006 A 
HETATM   15  C13 UNL     1      22.636   0.094  52.673  1.00  0.00     0.014 A 
HETATM   16  C14 UNL     1      21.271   0.404  52.616  1.00  0.00     0.001 A 
HETATM   17  C15 UNL     1      20.836   1.704  52.475  1.00  0.00     0.000 A 
HETATM   18  C16 UNL     1      21.771   2.714  52.388  1.00  0.00     0.001 A 
HETATM   19  C17 UNL     1      23.091   2.350  52.449  1.00  0.00     0.014 A 
ENDBRANCH   1  14
BRANCH   2  20
HETATM   20  N2  UNL     1      26.570  -0.507  53.956  1.00  0.00    -0.199 N 
HETATM   21  C9  UNL     1      27.421   0.386  54.718  1.00  0.00     0.250 C 
HETATM   22  S1  UNL     1      29.092   0.273  54.019  1.00  0.00    -0.114 SA
HETATM   23  C10 UNL     1      29.260  -1.385  53.373  1.00  0.00     0.103 C 
HETATM   24  C11 UNL     1      28.200  -2.150  53.181  1.00  0.00     0.162 C 
HETATM   25  N3  UNL     1      26.877  -1.748  53.456  1.00  0.00    -0.261 N 
HETATM   26  H12 UNL     1      26.149  -2.479  53.246  1.00  0.00     0.191 HD
BRANCH  24  27
HETATM   27  O3  UNL     1      28.603  -3.371  52.679  1.00  0.00    -0.345 OA
HETATM   28  H11 UNL     1      28.814  -4.158  53.281  1.00  0.00     0.219 HD
ENDBRANCH  24  27
ENDBRANCH   2  20
TORSDOF 8
ENDMDL
MODEL 4
REMARK VINA RESULT:      -8.0      3.215      6.737
REMARK  8 active torsions:
REMARK  status: ('A' for Active; 'I' for Inactive)
REMARK    1  A    between atoms: O1_2  and  C2_3 
REMARK    2  A    between atoms: C5_6  and  O2_7 
REMARK    3  A    between atoms: O2_7  and  C6_8 
REMARK    4  A    between atoms: C6_8  and  C7_9 
REMARK    5  A    between atoms: C7_9  and  C8_10 
REMARK    6  A    between atoms: C8_10  and  C12_19 
REMARK    7  A    between atoms: N1_11  and  N2_12 
REMARK    8  A    between atoms: C11_16  and  O3_17 
ROOT
HETATM    1  C8  UNL     1      25.582   1.634  52.119  1.00  0.00     0.090 C 
HETATM    2  N1  UNL     1      26.814   1.254  51.871  1.00  0.00    -0.155 NA
ENDROOT
BRANCH   1   3
HETATM    3  C7  UNL     1      24.979   1.103  53.325  1.00  0.00     0.059 C 
BRANCH   3   4
HETATM    4  C6  UNL     1      24.103   0.169  53.526  1.00  0.00     0.145 C 
BRANCH   4   5
HETATM    5  O2  UNL     1      23.166  -0.833  53.450  1.00  0.00    -0.323 OA
BRANCH   5   6
HETATM    6  C5  UNL     1      21.815  -0.614  53.164  1.00  0.00     0.075 A 
HETATM    7  C4  UNL     1      21.691   0.086  51.983  1.00  0.00     0.040 A 
HETATM    8  C3  UNL     1      20.480   0.457  51.429  1.00  0.00     0.039 A 
HETATM    9  C2  UNL     1      19.351   0.068  52.159  1.00  0.00     0.068 A 
HETATM   10  C19 UNL     1      19.454  -0.632  53.340  1.00  0.00     0.039 A 
HETATM   11  C18 UNL     1      20.670  -0.991  53.875  1.00  0.00     0.040 A 
BRANCH   9  12
HETATM   12  O1  UNL     1      18.096   0.401  51.671  1.00  0.00    -0.356 OA
HETATM   13  C1  UNL     1      17.627   0.136  50.381  1.00  0.00     0.210 C 
ENDBRANCH   9  12
ENDBRANCH   5   6
ENDBRANCH   4   5
ENDBRANCH   3   4
ENDBRANCH   1   3
BRANCH   1  14
HETATM   14  C12 UNL     1      25.053   2.532  51.108  1.00  0.00    -0.006 A 
HETATM   15  C13 UNL     1      25.933   3.188  50.278  1.00  0.00     0.014 A 
HETATM   16  C14 UNL     1      25.475   4.063  49.284  1.00  0.00     0.001 A 
HETATM   17  C15 UNL     1      24.130   4.298  49.099  1.00  0.00     0.000 A 
HETATM   18  C16 UNL     1      23.223   3.656  49.915  1.00  0.00     0.001 A 
HETATM   19  C17 UNL     1      23.730   2.812  50.870  1.00  0.00     0.014 A 
ENDBRANCH   1  14
BRANCH   2  20
HETATM   20  N2  UNL     1      27.506   0.384  52.726  1.00  0.00    -0.199 N 
HETATM   21  C9  UNL     1      28.366   1.021  53.704  1.00  0.00     0.250 C 
HETATM   22  S1  UNL     1      29.864   0.007  53.855  1.00  0.00    -0.114 SA
HETATM   23  C10 UNL     1      29.372  -1.677  53.512  1.00  0.00     0.103 C 
HETATM   24  C11 UNL     1      28.215  -1.943  52.931  1.00  0.00     0.162 C 
HETATM   25  N3  UNL     1      27.286  -0.957  52.538  1.00  0.00    -0.261 N 
HETATM   26  H12 UNL     1      26.414  -1.339  52.088  1.00  0.00     0.191 HD
BRANCH  24  27
HETATM   27  O3  UNL     1      28.082  -3.307  52.783  1.00  0.00    -0.345 OA
HETATM   28  H11 UNL     1      28.607  -3.965  53.347  1.00  0.00     0.219 HD
ENDBRANCH  24  27
ENDBRANCH   2  20
TORSDOF 8
ENDMDL
MODEL 5
REMARK VINA RESULT:      -8.0      2.756      5.059
REMARK  8 active torsions:
REMARK  status: ('A' for Active; 'I' for Inactive)
REMARK    1  A    between atoms: O1_2  and  C2_3 
REMARK    2  A    between atoms: C5_6  and  O2_7 
REMARK    3  A    between atoms: O2_7  and  C6_8 
REMARK    4  A    between atoms: C6_8  and  C7_9 
REMARK    5  A    between atoms: C7_9  and  C8_10 
REMARK    6  A    between atoms: C8_10  and  C12_19 
REMARK    7  A    between atoms: N1_11  and  N2_12 
REMARK    8  A    between atoms: C11_16  and  O3_17 
ROOT
HETATM    1  C8  UNL     1      26.176   1.545  52.338  1.00  0.00     0.090 C 
HETATM    2  N1  UNL     1      25.316   1.824  53.290  1.00  0.00    -0.155 NA
ENDROOT
BRANCH   1   3
HETATM    3  C7  UNL     1      25.864   2.061  51.021  1.00  0.00     0.059 C 
BRANCH   3   4
HETATM    4  C6  UNL     1      26.522   2.819  50.200  1.00  0.00     0.145 C 
BRANCH   4   5
HETATM    5  O2  UNL     1      27.206   3.814  49.546  1.00  0.00    -0.323 OA
BRANCH   5   6
HETATM    6  C5  UNL     1      26.606   4.974  49.049  1.00  0.00     0.075 A 
HETATM    7  C4  UNL     1      27.563   5.805  48.506  1.00  0.00     0.040 A 
HETATM    8  C3  UNL     1      27.285   7.032  47.932  1.00  0.00     0.039 A 
HETATM    9  C2  UNL     1      25.932   7.393  47.932  1.00  0.00     0.068 A 
HETATM   10  C19 UNL     1      24.962   6.576  48.468  1.00  0.00     0.039 A 
HETATM   11  C18 UNL     1      25.260   5.359  49.036  1.00  0.00     0.040 A 
BRANCH   9  12
HETATM   12  O1  UNL     1      25.569   8.609  47.374  1.00  0.00    -0.356 OA
HETATM   13  C1  UNL     1      26.382   9.410  46.566  1.00  0.00     0.210 C 
ENDBRANCH   9  12
ENDBRANCH   5   6
ENDBRANCH   4   5
ENDBRANCH   3   4
ENDBRANCH   1   3
BRANCH   1  14
HETATM   14  C12 UNL     1      27.298   0.751  52.807  1.00  0.00    -0.006 A 
HETATM   15  C13 UNL     1      28.371   1.393  53.381  1.00  0.00     0.014 A 
HETATM   16  C14 UNL     1      29.477   0.673  53.853  1.00  0.00     0.001 A 
HETATM   17  C15 UNL     1      29.532  -0.701  53.762  1.00  0.00     0.000 A 
HETATM   18  C16 UNL     1      28.472  -1.373  53.191  1.00  0.00     0.001 A 
HETATM   19  C17 UNL     1      27.418  -0.616  52.747  1.00  0.00     0.014 A 
ENDBRANCH   1  14
BRANCH   2  20
HETATM   20  N2  UNL     1      24.160   2.580  53.044  1.00  0.00    -0.199 N 
HETATM   21  C9  UNL     1      22.946   1.817  52.832  1.00  0.00     0.250 C 
HETATM   22  S1  UNL     1      21.998   2.652  51.529  1.00  0.00    -0.114 SA
HETATM   23  C10 UNL     1      22.390   4.391  51.653  1.00  0.00     0.103 C 
HETATM   24  C11 UNL     1      23.436   4.805  52.347  1.00  0.00     0.162 C 
HETATM   25  N3  UNL     1      24.316   3.944  53.035  1.00  0.00    -0.261 N 
HETATM   26  H12 UNL     1      25.099   4.437  53.539  1.00  0.00     0.191 HD
BRANCH  24  27
HETATM   27  O3  UNL     1      23.512   6.180  52.281  1.00  0.00    -0.345 OA
HETATM   28  H11 UNL     1      23.566   6.676  51.399  1.00  0.00     0.219 HD
ENDBRANCH  24  27
ENDBRANCH   2  20
TORSDOF 8
ENDMDL
MODEL 6
REMARK VINA RESULT:      -7.9      3.460      5.168
REMARK  8 active torsions:
REMARK  status: ('A' for Active; 'I' for Inactive)
REMARK    1  A    between atoms: O1_2  and  C2_3 
REMARK    2  A    between atoms: C5_6  and  O2_7 
REMARK    3  A    between atoms: O2_7  and  C6_8 
REMARK    4  A    between atoms: C6_8  and  C7_9 
REMARK    5  A    between atoms: C7_9  and  C8_10 
REMARK    6  A    between atoms: C8_10  and  C12_19 
REMARK    7  A    between atoms: N1_11  and  N2_12 
REMARK    8  A    between atoms: C11_16  and  O3_17 
ROOT
HETATM    1  C8  UNL     1      24.670   2.835  51.534  1.00  0.00     0.090 C 
HETATM    2  N1  UNL     1      23.931   3.510  52.385  1.00  0.00    -0.155 NA
ENDROOT
BRANCH   1   3
HETATM    3  C7  UNL     1      24.876   3.449  50.238  1.00  0.00     0.059 C 
BRANCH   3   4
HETATM    4  C6  UNL     1      25.946   3.796  49.595  1.00  0.00     0.145 C 
BRANCH   4   5
HETATM    5  O2  UNL     1      27.206   3.956  49.071  1.00  0.00    -0.323 OA
BRANCH   5   6
HETATM    6  C5  UNL     1      27.698   5.170  48.585  1.00  0.00     0.075 A 
HETATM    7  C4  UNL     1      26.689   6.108  48.551  1.00  0.00     0.040 A 
HETATM    8  C3  UNL     1      26.858   7.410  48.118  1.00  0.00     0.039 A 
HETATM    9  C2  UNL     1      28.156   7.732  47.703  1.00  0.00     0.068 A 
HETATM   10  C19 UNL     1      29.177   6.809  47.730  1.00  0.00     0.039 A 
HETATM   11  C18 UNL     1      28.987   5.518  48.165  1.00  0.00     0.040 A 
BRANCH   9  12
HETATM   12  O1  UNL     1      28.410   9.019  47.253  1.00  0.00    -0.356 OA
HETATM   13  C1  UNL     1      27.593   9.757  46.390  1.00  0.00     0.210 C 
ENDBRANCH   9  12
ENDBRANCH   5   6
ENDBRANCH   4   5
ENDBRANCH   3   4
ENDBRANCH   1   3
BRANCH   1  14
HETATM   14  C12 UNL     1      25.144   1.574  52.075  1.00  0.00    -0.006 A 
HETATM   15  C13 UNL     1      24.312   0.850  52.898  1.00  0.00     0.014 A 
HETATM   16  C14 UNL     1      24.719  -0.375  53.443  1.00  0.00     0.001 A 
HETATM   17  C15 UNL     1      25.964  -0.901  53.175  1.00  0.00     0.000 A 
HETATM   18  C16 UNL     1      26.821  -0.199  52.353  1.00  0.00     0.001 A 
HETATM   19  C17 UNL     1      26.368   0.992  51.850  1.00  0.00     0.014 A 
ENDBRANCH   1  14
BRANCH   2  20
HETATM   20  N2  UNL     1      23.375   4.754  52.056  1.00  0.00    -0.199 N 
HETATM   21  C9  UNL     1      21.947   4.754  51.803  1.00  0.00     0.250 C 
HETATM   22  S1  UNL     1      21.637   5.897  50.428  1.00  0.00    -0.114 SA
HETATM   23  C10 UNL     1      22.902   7.156  50.521  1.00  0.00     0.103 C 
HETATM   24  C11 UNL     1      23.986   6.978  51.256  1.00  0.00     0.162 C 
HETATM   25  N3  UNL     1      24.241   5.818  52.015  1.00  0.00    -0.261 N 
HETATM   26  H12 UNL     1      25.152   5.838  52.544  1.00  0.00     0.191 HD
BRANCH  24  27
HETATM   27  O3  UNL     1      24.794   8.091  51.154  1.00  0.00    -0.345 OA
HETATM   28  H11 UNL     1      25.370   8.412  51.924  1.00  0.00     0.219 HD
ENDBRANCH  24  27
ENDBRANCH   2  20
TORSDOF 8
ENDMDL
MODEL 7
REMARK VINA RESULT:      -7.6      3.795      8.606
REMARK  8 active torsions:
REMARK  status: ('A' for Active; 'I' for Inactive)
REMARK    1  A    between atoms: O1_2  and  C2_3 
REMARK    2  A    between atoms: C5_6  and  O2_7 
REMARK    3  A    between atoms: O2_7  and  C6_8 
REMARK    4  A    between atoms: C6_8  and  C7_9 
REMARK    5  A    between atoms: C7_9  and  C8_10 
REMARK    6  A    between atoms: C8_10  and  C12_19 
REMARK    7  A    between atoms: N1_11  and  N2_12 
REMARK    8  A    between atoms: C11_16  and  O3_17 
ROOT
HETATM    1  C8  UNL     1      26.387   5.103  48.981  1.00  0.00     0.090 C 
HETATM    2  N1  UNL     1      25.380   5.926  49.160  1.00  0.00    -0.155 NA
ENDROOT
BRANCH   1   3
HETATM    3  C7  UNL     1      26.141   3.711  49.300  1.00  0.00     0.059 C 
BRANCH   3   4
HETATM    4  C6  UNL     1      26.594   2.935  50.234  1.00  0.00     0.145 C 
BRANCH   4   5
HETATM    5  O2  UNL     1      27.067   2.353  51.385  1.00  0.00    -0.323 OA
BRANCH   5   6
HETATM    6  C5  UNL     1      26.367   1.388  52.113  1.00  0.00     0.075 A 
HETATM    7  C4  UNL     1      25.079   1.818  52.351  1.00  0.00     0.040 A 
HETATM    8  C3  UNL     1      24.136   1.086  53.048  1.00  0.00     0.039 A 
HETATM    9  C2  UNL     1      24.578  -0.158  53.513  1.00  0.00     0.068 A 
HETATM   10  C19 UNL     1      25.859  -0.607  53.285  1.00  0.00     0.039 A 
HETATM   11  C18 UNL     1      26.783   0.139  52.589  1.00  0.00     0.040 A 
BRANCH   9  12
HETATM   12  O1  UNL     1      23.692  -0.956  54.222  1.00  0.00    -0.356 OA
HETATM   13  C1  UNL     1      22.321  -0.719  54.369  1.00  0.00     0.210 C 
ENDBRANCH   9  12
ENDBRANCH   5   6
ENDBRANCH   4   5
ENDBRANCH   3   4
ENDBRANCH   1   3
BRANCH   1  14
HETATM   14  C12 UNL     1      27.580   5.768  48.488  1.00  0.00    -0.006 A 
HETATM   15  C13 UNL     1      27.500   7.095  48.133  1.00  0.00     0.014 A 
HETATM   16  C14 UNL     1      28.622   7.785  47.655  1.00  0.00     0.001 A 
HETATM   17  C15 UNL     1      29.845   7.164  47.524  1.00  0.00     0.000 A 
HETATM   18  C16 UNL     1      29.957   5.834  47.872  1.00  0.00     0.001 A 
HETATM   19  C17 UNL     1      28.826   5.211  48.332  1.00  0.00     0.014 A 
ENDBRANCH   1  14
BRANCH   2  20
HETATM   20  N2  UNL     1      24.137   5.482  49.633  1.00  0.00    -0.199 N 
HETATM   21  C9  UNL     1      23.145   5.198  48.615  1.00  0.00     0.250 C 
HETATM   22  S1  UNL     1      21.539   5.759  49.248  1.00  0.00    -0.114 SA
HETATM   23  C10 UNL     1      21.608   5.587  51.026  1.00  0.00     0.103 C 
HETATM   24  C11 UNL     1      22.761   5.421  51.649  1.00  0.00     0.162 C 
HETATM   25  N3  UNL     1      24.009   5.366  50.995  1.00  0.00    -0.261 N 
HETATM   26  H12 UNL     1      24.831   5.230  51.640  1.00  0.00     0.191 HD
BRANCH  24  27
HETATM   27  O3  UNL     1      22.537   5.316  53.005  1.00  0.00    -0.345 OA
HETATM   28  H11 UNL     1      21.683   4.920  53.382  1.00  0.00     0.219 HD
ENDBRANCH  24  27
ENDBRANCH   2  20
TORSDOF 8
ENDMDL
MODEL 8
REMARK VINA RESULT:      -7.6      3.665      8.637
REMARK  8 active torsions:
REMARK  status: ('A' for Active; 'I' for Inactive)
REMARK    1  A    between atoms: O1_2  and  C2_3 
REMARK    2  A    between atoms: C5_6  and  O2_7 
REMARK    3  A    between atoms: O2_7  and  C6_8 
REMARK    4  A    between atoms: C6_8  and  C7_9 
REMARK    5  A    between atoms: C7_9  and  C8_10 
REMARK    6  A    between atoms: C8_10  and  C12_19 
REMARK    7  A    between atoms: N1_11  and  N2_12 
REMARK    8  A    between atoms: C11_16  and  O3_17 
ROOT
HETATM    1  C8  UNL     1      26.243   5.329  49.095  1.00  0.00     0.090 C 
HETATM    2  N1  UNL     1      25.287   6.210  49.278  1.00  0.00    -0.155 NA
ENDROOT
BRANCH   1   3
HETATM    3  C7  UNL     1      25.965   3.979  49.540  1.00  0.00     0.059 C 
BRANCH   3   4
HETATM    4  C6  UNL     1      26.483   3.241  50.471  1.00  0.00     0.145 C 
BRANCH   4   5
HETATM    5  O2  UNL     1      27.070   2.269  51.244  1.00  0.00    -0.323 OA
BRANCH   5   6
HETATM    6  C5  UNL     1      26.354   1.311  51.966  1.00  0.00     0.075 A 
HETATM    7  C4  UNL     1      25.140   1.831  52.364  1.00  0.00     0.040 A 
HETATM    8  C3  UNL     1      24.202   1.129  53.097  1.00  0.00     0.039 A 
HETATM    9  C2  UNL     1      24.566  -0.183  53.422  1.00  0.00     0.068 A 
HETATM   10  C19 UNL     1      25.772  -0.721  53.034  1.00  0.00     0.039 A 
HETATM   11  C18 UNL     1      26.693  -0.004  52.304  1.00  0.00     0.040 A 
BRANCH   9  12
HETATM   12  O1  UNL     1      23.679  -0.956  54.157  1.00  0.00    -0.356 OA
HETATM   13  C1  UNL     1      22.298  -0.753  54.242  1.00  0.00     0.210 C 
ENDBRANCH   9  12
ENDBRANCH   5   6
ENDBRANCH   4   5
ENDBRANCH   3   4
ENDBRANCH   1   3
BRANCH   1  14
HETATM   14  C12 UNL     1      27.423   5.900  48.469  1.00  0.00    -0.006 A 
HETATM   15  C13 UNL     1      27.323   7.131  47.864  1.00  0.00     0.014 A 
HETATM   16  C14 UNL     1      28.432   7.728  47.248  1.00  0.00     0.001 A 
HETATM   17  C15 UNL     1      29.661   7.107  47.227  1.00  0.00     0.000 A 
HETATM   18  C16 UNL     1      29.793   5.871  47.825  1.00  0.00     0.001 A 
HETATM   19  C17 UNL     1      28.675   5.337  48.410  1.00  0.00     0.014 A 
ENDBRANCH   1  14
BRANCH   2  20
HETATM   20  N2  UNL     1      24.064   5.860  49.870  1.00  0.00    -0.199 N 
HETATM   21  C9  UNL     1      23.919   6.225  51.266  1.00  0.00     0.250 C 
HETATM   22  S1  UNL     1      23.029   4.875  52.091  1.00  0.00    -0.114 SA
HETATM   23  C10 UNL     1      21.960   4.145  50.858  1.00  0.00     0.103 C 
HETATM   24  C11 UNL     1      22.139   4.390  49.572  1.00  0.00     0.162 C 
HETATM   25  N3  UNL     1      23.156   5.222  49.063  1.00  0.00    -0.261 N 
HETATM   26  H12 UNL     1      23.159   5.310  48.013  1.00  0.00     0.191 HD
BRANCH  24  27
HETATM   27  O3  UNL     1      21.187   3.710  48.841  1.00  0.00    -0.345 OA
HETATM   28  H11 UNL     1      20.807   4.077  47.976  1.00  0.00     0.219 HD
ENDBRANCH  24  27
ENDBRANCH   2  20
TORSDOF 8
ENDMDL
MODEL 9
REMARK VINA RESULT:      -7.5      3.593      7.877
REMARK  8 active torsions:
REMARK  status: ('A' for Active; 'I' for Inactive)
REMARK    1  A    between atoms: O1_2  and  C2_3 
REMARK    2  A    between atoms: C5_6  and  O2_7 
REMARK    3  A    between atoms: O2_7  and  C6_8 
REMARK    4  A    between atoms: C6_8  and  C7_9 
REMARK    5  A    between atoms: C7_9  and  C8_10 
REMARK    6  A    between atoms: C8_10  and  C12_19 
REMARK    7  A    between atoms: N1_11  and  N2_12 
REMARK    8  A    between atoms: C11_16  and  O3_17 
ROOT
HETATM    1  C8  UNL     1      25.597   1.619  52.491  1.00  0.00     0.090 C 
HETATM    2  N1  UNL     1      25.788   2.526  51.562  1.00  0.00    -0.155 NA
ENDROOT
BRANCH   1   3
HETATM    3  C7  UNL     1      24.260   1.539  53.043  1.00  0.00     0.059 C 
BRANCH   3   4
HETATM    4  C6  UNL     1      23.377   0.590  53.062  1.00  0.00     0.145 C 
BRANCH   4   5
HETATM    5  O2  UNL     1      22.495  -0.417  53.367  1.00  0.00    -0.323 OA
BRANCH   5   6
HETATM    6  C5  UNL     1      21.141  -0.397  53.019  1.00  0.00     0.075 A 
HETATM    7  C4  UNL     1      20.972   0.260  51.819  1.00  0.00     0.040 A 
HETATM    8  C3  UNL     1      19.747   0.447  51.206  1.00  0.00     0.039 A 
HETATM    9  C2  UNL     1      18.653  -0.088  51.896  1.00  0.00     0.068 A 
HETATM   10  C19 UNL     1      18.801  -0.749  53.094  1.00  0.00     0.039 A 
HETATM   11  C18 UNL     1      20.030  -0.924  53.688  1.00  0.00     0.040 A 
BRANCH   9  12
HETATM   12  O1  UNL     1      17.387   0.056  51.348  1.00  0.00    -0.356 OA
HETATM   13  C1  UNL     1      16.179  -0.129  52.028  1.00  0.00     0.210 C 
ENDBRANCH   9  12
ENDBRANCH   5   6
ENDBRANCH   4   5
ENDBRANCH   3   4
ENDBRANCH   1   3
BRANCH   1  14
HETATM   14  C12 UNL     1      26.797   0.858  52.792  1.00  0.00    -0.006 A 
HETATM   15  C13 UNL     1      27.912   1.527  53.239  1.00  0.00     0.014 A 
HETATM   16  C14 UNL     1      29.094   0.839  53.547  1.00  0.00     0.001 A 
HETATM   17  C15 UNL     1      29.183  -0.529  53.416  1.00  0.00     0.000 A 
HETATM   18  C16 UNL     1      28.081  -1.228  52.970  1.00  0.00     0.001 A 
HETATM   19  C17 UNL     1      26.954  -0.503  52.684  1.00  0.00     0.014 A 
ENDBRANCH   1  14
BRANCH   2  20
HETATM   20  N2  UNL     1      24.755   3.369  51.127  1.00  0.00    -0.199 N 
HETATM   21  C9  UNL     1      23.932   2.847  50.054  1.00  0.00     0.250 C 
HETATM   22  S1  UNL     1      23.545   4.230  48.944  1.00  0.00    -0.114 SA
HETATM   23  C10 UNL     1      23.513   5.701  49.959  1.00  0.00     0.103 C 
HETATM   24  C11 UNL     1      24.033   5.700  51.173  1.00  0.00     0.162 C 
HETATM   25  N3  UNL     1      24.645   4.578  51.768  1.00  0.00    -0.261 N 
HETATM   26  H12 UNL     1      25.009   4.747  52.742  1.00  0.00     0.191 HD
BRANCH  24  27
HETATM   27  O3  UNL     1      23.878   6.950  51.737  1.00  0.00    -0.345 OA
HETATM   28  H11 UNL     1      23.109   7.169  52.358  1.00  0.00     0.219 HD
ENDBRANCH  24  27
ENDBRANCH   2  20
TORSDOF 8
ENDMDL
