MODEL 1
REMARK VINA RESULT:      -8.6      0.000      0.000
REMARK  6 active torsions:
REMARK  status: ('A' for Active; 'I' for Inactive)
REMARK    1  A    between atoms: C3_3  and  N1_4 
REMARK    2  A    between atoms: C3_3  and  C14_21 
REMARK    3  A    between atoms: N1_4  and  C4_5 
REMARK    4  A    between atoms: C6_8  and  N3_9 
REMARK    5  A    between atoms: C9_12  and  C10_13 
REMARK    6  A    between atoms: C12_18  and  N4_19 
ROOT
HETATM    1  C4  UNL     1      23.836   2.048  51.601  1.00  0.00     0.125 A 
HETATM    2  N2  UNL     1      23.073   2.979  52.059  1.00  0.00    -0.267 NA
HETATM    3  C5  UNL     1      23.511   4.271  51.566  1.00  0.00     0.208 A 
HETATM    4  C6  UNL     1      24.681   3.886  50.734  1.00  0.00     0.033 A 
HETATM    5  C13 UNL     1      24.889   2.579  50.742  1.00  0.00     0.076 A 
ENDROOT
BRANCH   1   6
HETATM    6  N1  UNL     1      23.624   0.660  51.937  1.00  0.00    -0.341 N 
HETATM    7  H5  UNL     1      23.024   0.065  51.289  1.00  0.00     0.167 HD
BRANCH   6   8
HETATM    8  C3  UNL     1      24.174   0.036  53.092  1.00  0.00     0.041 C 
HETATM    9  C2  UNL     1      23.170  -0.313  53.875  1.00  0.00    -0.001 C 
HETATM   10  C1  UNL     1      21.786  -0.015  53.440  1.00  0.00     0.038 C 
BRANCH   8  11
HETATM   11  C14 UNL     1      25.615  -0.091  53.190  1.00  0.00     0.012 A 
HETATM   12  C15 UNL     1      26.229  -1.256  52.781  1.00  0.00     0.017 A 
HETATM   13  C16 UNL     1      27.593  -1.397  52.865  1.00  0.00     0.025 A 
HETATM   14  C17 UNL     1      28.388  -0.403  53.351  1.00  0.00     0.035 A 
HETATM   15 CL1  UNL     1      30.120  -0.625  53.441  1.00  0.00    -0.084 Cl
HETATM   16  C18 UNL     1      27.810   0.764  53.765  1.00  0.00     0.048 A 
HETATM   17  C19 UNL     1      26.457   0.883  53.672  1.00  0.00     0.048 A 
HETATM   18 CL2  UNL     1      25.790   2.403  54.220  1.00  0.00    -0.083 Cl
ENDBRANCH   8  11
ENDBRANCH   6   8
ENDBRANCH   1   6
BRANCH   4  19
HETATM   19  N3  UNL     1      25.554   4.744  49.969  1.00  0.00    -0.349 N 
HETATM   20  C7  UNL     1      26.792   4.149  49.484  1.00  0.00     0.153 C 
HETATM   21  C8  UNL     1      27.451   5.163  48.583  1.00  0.00     0.005 C 
HETATM   22  C9  UNL     1      27.283   6.476  48.572  1.00  0.00     0.027 C 
HETATM   23  C11 UNL     1      26.338   7.052  49.556  1.00  0.00     0.100 C 
HETATM   24  C12 UNL     1      25.176   6.129  49.719  1.00  0.00     0.323 C 
BRANCH  22  25
HETATM   25  C10 UNL     1      28.019   7.329  47.608  1.00  0.00     0.413 C 
HETATM   26  F1  UNL     1      27.196   7.728  46.563  1.00  0.00    -0.166 F 
HETATM   27  F2  UNL     1      28.414   8.457  48.298  1.00  0.00    -0.166 F 
HETATM   28  F3  UNL     1      29.065   6.637  47.072  1.00  0.00    -0.166 F 
ENDBRANCH  22  25
BRANCH  24  29
HETATM   29  N4  UNL     1      24.382   6.087  48.481  1.00  0.00     0.101 N 
HETATM   30  H14 UNL     1      24.884   6.479  47.666  1.00  0.00     0.315 HD
HETATM   31  H15 UNL     1      23.977   5.149  48.325  1.00  0.00     0.315 HD
ENDBRANCH  24  29
ENDBRANCH   4  19
TORSDOF 6
ENDMDL
MODEL 2
REMARK VINA RESULT:      -8.6      5.201      7.161
REMARK  6 active torsions:
REMARK  status: ('A' for Active; 'I' for Inactive)
REMARK    1  A    between atoms: C3_3  and  N1_4 
REMARK    2  A    between atoms: C3_3  and  C14_21 
REMARK    3  A    between atoms: N1_4  and  C4_5 
REMARK    4  A    between atoms: C6_8  and  N3_9 
REMARK    5  A    between atoms: C9_12  and  C10_13 
REMARK    6  A    between atoms: C12_18  and  N4_19 
ROOT
HETATM    1  C4  UNL     1      21.128   0.098  53.162  1.00  0.00     0.125 A 
HETATM    2  N2  UNL     1      21.272  -1.072  53.682  1.00  0.00    -0.267 NA
HETATM    3  C5  UNL     1      22.668  -1.311  53.994  1.00  0.00     0.208 A 
HETATM    4  C6  UNL     1      23.292  -0.039  53.544  1.00  0.00     0.033 A 
HETATM    5  C13 UNL     1      22.400   0.805  53.050  1.00  0.00     0.076 A 
ENDROOT
BRANCH   1   6
HETATM    6  N1  UNL     1      19.835   0.594  52.755  1.00  0.00    -0.341 N 
HETATM    7  H5  UNL     1      19.175   0.969  53.501  1.00  0.00     0.167 HD
BRANCH   6   8
HETATM    8  C3  UNL     1      19.386   0.610  51.404  1.00  0.00     0.041 C 
HETATM    9  C2  UNL     1      18.335  -0.184  51.322  1.00  0.00    -0.001 C 
HETATM   10  C1  UNL     1      17.865  -0.877  52.543  1.00  0.00     0.038 C 
BRANCH   8  11
HETATM   11  C14 UNL     1      20.107   1.426  50.446  1.00  0.00     0.012 A 
HETATM   12  C15 UNL     1      20.928   0.825  49.516  1.00  0.00     0.017 A 
HETATM   13  C16 UNL     1      21.620   1.579  48.600  1.00  0.00     0.025 A 
HETATM   14  C17 UNL     1      21.524   2.938  48.571  1.00  0.00     0.035 A 
HETATM   15 CL1  UNL     1      22.422   3.859  47.387  1.00  0.00    -0.084 Cl
HETATM   16  C18 UNL     1      20.718   3.564  49.479  1.00  0.00     0.048 A 
HETATM   17  C19 UNL     1      20.041   2.798  50.379  1.00  0.00     0.048 A 
HETATM   18 CL2  UNL     1      19.031   3.668  51.509  1.00  0.00    -0.083 Cl
ENDBRANCH   8  11
ENDBRANCH   6   8
ENDBRANCH   1   6
BRANCH   4  19
HETATM   19  N3  UNL     1      24.684   0.340  53.592  1.00  0.00    -0.349 N 
HETATM   20  C7  UNL     1      24.988   1.740  53.330  1.00  0.00     0.153 C 
HETATM   21  C8  UNL     1      26.460   1.933  53.597  1.00  0.00     0.005 C 
HETATM   22  C9  UNL     1      27.418   1.020  53.586  1.00  0.00     0.027 C 
HETATM   23  C11 UNL     1      27.029  -0.374  53.275  1.00  0.00     0.100 C 
HETATM   24  C12 UNL     1      25.699  -0.662  53.890  1.00  0.00     0.323 C 
BRANCH  22  25
HETATM   25  C10 UNL     1      28.825   1.391  53.874  1.00  0.00     0.413 C 
HETATM   26  F1  UNL     1      29.016   2.761  53.757  1.00  0.00    -0.166 F 
HETATM   27  F2  UNL     1      29.067   1.035  55.185  1.00  0.00    -0.166 F 
HETATM   28  F3  UNL     1      29.663   0.777  52.990  1.00  0.00    -0.166 F 
ENDBRANCH  22  25
BRANCH  24  29
HETATM   29  N4  UNL     1      25.807  -0.666  55.357  1.00  0.00     0.101 N 
HETATM   30  H14 UNL     1      26.784  -0.597  55.690  1.00  0.00     0.315 HD
HETATM   31  H15 UNL     1      25.159   0.015  55.785  1.00  0.00     0.315 HD
ENDBRANCH  24  29
ENDBRANCH   4  19
TORSDOF 6
ENDMDL
MODEL 3
REMARK VINA RESULT:      -8.6      5.375      7.414
REMARK  6 active torsions:
REMARK  status: ('A' for Active; 'I' for Inactive)
REMARK    1  A    between atoms: C3_3  and  N1_4 
REMARK    2  A    between atoms: C3_3  and  C14_21 
REMARK    3  A    between atoms: N1_4  and  C4_5 
REMARK    4  A    between atoms: C6_8  and  N3_9 
REMARK    5  A    between atoms: C9_12  and  C10_13 
REMARK    6  A    between atoms: C12_18  and  N4_19 
ROOT
HETATM    1  C4  UNL     1      22.039   1.389  52.716  1.00  0.00     0.125 A 
HETATM    2  N2  UNL     1      22.435   2.615  52.694  1.00  0.00    -0.267 NA
HETATM    3  C5  UNL     1      23.880   2.675  52.804  1.00  0.00     0.208 A 
HETATM    4  C6  UNL     1      24.227   1.232  52.896  1.00  0.00     0.033 A 
HETATM    5  C13 UNL     1      23.155   0.458  52.845  1.00  0.00     0.076 A 
ENDROOT
BRANCH   1   6
HETATM    6  N1  UNL     1      20.641   1.041  52.622  1.00  0.00    -0.341 N 
HETATM    7  H5  UNL     1      20.073   0.965  53.520  1.00  0.00     0.167 HD
BRANCH   6   8
HETATM    8  C3  UNL     1      19.971   0.793  51.391  1.00  0.00     0.041 C 
HETATM    9  C2  UNL     1      19.005  -0.074  51.628  1.00  0.00    -0.001 C 
HETATM   10  C1  UNL     1      18.818  -0.576  53.008  1.00  0.00     0.038 C 
BRANCH   8  11
HETATM   11  C14 UNL     1      20.436   1.480  50.200  1.00  0.00     0.012 A 
HETATM   12  C15 UNL     1      21.293   0.838  49.332  1.00  0.00     0.017 A 
HETATM   13  C16 UNL     1      21.745   1.470  48.199  1.00  0.00     0.025 A 
HETATM   14  C17 UNL     1      21.370   2.743  47.890  1.00  0.00     0.035 A 
HETATM   15 CL1  UNL     1      21.970   3.509  46.437  1.00  0.00    -0.084 Cl
HETATM   16  C18 UNL     1      20.522   3.406  48.730  1.00  0.00     0.048 A 
HETATM   17  C19 UNL     1      20.085   2.762  49.848  1.00  0.00     0.048 A 
HETATM   18 CL2  UNL     1      19.004   3.672  50.875  1.00  0.00    -0.083 Cl
ENDBRANCH   8  11
ENDBRANCH   6   8
ENDBRANCH   1   6
BRANCH   4  19
HETATM   19  N3  UNL     1      25.535   0.635  53.024  1.00  0.00    -0.349 N 
HETATM   20  C7  UNL     1      26.677   1.521  52.850  1.00  0.00     0.153 C 
HETATM   21  C8  UNL     1      27.913   0.728  53.191  1.00  0.00     0.005 C 
HETATM   22  C9  UNL     1      28.070  -0.586  53.175  1.00  0.00     0.027 C 
HETATM   23  C11 UNL     1      26.905  -1.408  52.775  1.00  0.00     0.100 C 
HETATM   24  C12 UNL     1      25.658  -0.788  53.315  1.00  0.00     0.323 C 
BRANCH  22  25
HETATM   25  C10 UNL     1      29.367  -1.203  53.544  1.00  0.00     0.413 C 
HETATM   26  F1  UNL     1      30.408  -0.664  52.798  1.00  0.00    -0.166 F 
HETATM   27  F2  UNL     1      29.588  -0.896  54.871  1.00  0.00    -0.166 F 
HETATM   28  F3  UNL     1      29.335  -2.545  53.304  1.00  0.00    -0.166 F 
ENDBRANCH  22  25
BRANCH  24  29
HETATM   29  N4  UNL     1      25.639  -0.878  54.783  1.00  0.00     0.101 N 
HETATM   30  H14 UNL     1      25.246  -0.034  55.234  1.00  0.00     0.315 HD
HETATM   31  H15 UNL     1      25.222  -1.768  55.100  1.00  0.00     0.315 HD
ENDBRANCH  24  29
ENDBRANCH   4  19
TORSDOF 6
ENDMDL
MODEL 4
REMARK VINA RESULT:      -8.5      4.366      7.207
REMARK  6 active torsions:
REMARK  status: ('A' for Active; 'I' for Inactive)
REMARK    1  A    between atoms: C3_3  and  N1_4 
REMARK    2  A    between atoms: C3_3  and  C14_21 
REMARK    3  A    between atoms: N1_4  and  C4_5 
REMARK    4  A    between atoms: C6_8  and  N3_9 
REMARK    5  A    between atoms: C9_12  and  C10_13 
REMARK    6  A    between atoms: C12_18  and  N4_19 
ROOT
HETATM    1  C4  UNL     1      22.211   2.293  52.453  1.00  0.00     0.125 A 
HETATM    2  N2  UNL     1      21.664   1.126  52.456  1.00  0.00    -0.267 NA
HETATM    3  C5  UNL     1      22.677   0.102  52.624  1.00  0.00     0.208 A 
HETATM    4  C6  UNL     1      23.913   0.922  52.716  1.00  0.00     0.033 A 
HETATM    5  C13 UNL     1      23.659   2.218  52.617  1.00  0.00     0.076 A 
ENDROOT
BRANCH   1   6
HETATM    6  N1  UNL     1      21.428   3.497  52.300  1.00  0.00    -0.341 N 
HETATM    7  H5  UNL     1      20.830   3.824  53.117  1.00  0.00     0.167 HD
BRANCH   6   8
HETATM    8  C3  UNL     1      21.408   4.277  51.110  1.00  0.00     0.041 C 
HETATM    9  C2  UNL     1      20.157   4.346  50.696  1.00  0.00    -0.001 C 
HETATM   10  C1  UNL     1      19.106   3.659  51.480  1.00  0.00     0.038 C 
BRANCH   8  11
HETATM   11  C14 UNL     1      22.663   4.809  50.611  1.00  0.00     0.012 A 
HETATM   12  C15 UNL     1      23.191   5.953  51.169  1.00  0.00     0.017 A 
HETATM   13  C16 UNL     1      24.377   6.473  50.711  1.00  0.00     0.025 A 
HETATM   14  C17 UNL     1      25.073   5.887  49.697  1.00  0.00     0.035 A 
HETATM   15 CL1  UNL     1      26.579   6.583  49.145  1.00  0.00    -0.084 Cl
HETATM   16  C18 UNL     1      24.576   4.753  49.122  1.00  0.00     0.048 A 
HETATM   17  C19 UNL     1      23.399   4.253  49.591  1.00  0.00     0.048 A 
HETATM   18 CL2  UNL     1      22.825   2.800  48.807  1.00  0.00    -0.083 Cl
ENDBRANCH   8  11
ENDBRANCH   6   8
ENDBRANCH   1   6
BRANCH   4  19
HETATM   19  N3  UNL     1      25.273   0.473  52.891  1.00  0.00    -0.349 N 
HETATM   20  C7  UNL     1      26.320   1.460  52.670  1.00  0.00     0.153 C 
HETATM   21  C8  UNL     1      27.626   0.821  53.070  1.00  0.00     0.005 C 
HETATM   22  C9  UNL     1      27.918  -0.467  53.137  1.00  0.00     0.027 C 
HETATM   23  C11 UNL     1      26.849  -1.429  52.781  1.00  0.00     0.100 C 
HETATM   24  C12 UNL     1      25.538  -0.909  53.271  1.00  0.00     0.323 C 
BRANCH  22  25
HETATM   25  C10 UNL     1      29.267  -0.922  53.553  1.00  0.00     0.413 C 
HETATM   26  F1  UNL     1      30.260  -0.252  52.851  1.00  0.00    -0.166 F 
HETATM   27  F2  UNL     1      29.397  -0.604  54.889  1.00  0.00    -0.166 F 
HETATM   28  F3  UNL     1      29.410  -2.256  53.305  1.00  0.00    -0.166 F 
ENDBRANCH  22  25
BRANCH  24  29
HETATM   29  N4  UNL     1      25.509  -0.910  54.742  1.00  0.00     0.101 N 
HETATM   30  H14 UNL     1      24.986  -0.109  55.136  1.00  0.00     0.315 HD
HETATM   31  H15 UNL     1      25.224  -1.831  55.112  1.00  0.00     0.315 HD
ENDBRANCH  24  29
ENDBRANCH   4  19
TORSDOF 6
ENDMDL
MODEL 5
REMARK VINA RESULT:      -8.3      5.352      7.470
REMARK  6 active torsions:
REMARK  status: ('A' for Active; 'I' for Inactive)
REMARK    1  A    between atoms: C3_3  and  N1_4 
REMARK    2  A    between atoms: C3_3  and  C14_21 
REMARK    3  A    between atoms: N1_4  and  C4_5 
REMARK    4  A    between atoms: C6_8  and  N3_9 
REMARK    5  A    between atoms: C9_12  and  C10_13 
REMARK    6  A    between atoms: C12_18  and  N4_19 
ROOT
HETATM    1  C4  UNL     1      22.760   2.804  51.111  1.00  0.00     0.125 A 
HETATM    2  N2  UNL     1      22.860   3.683  52.047  1.00  0.00    -0.267 NA
HETATM    3  C5  UNL     1      24.037   3.421  52.854  1.00  0.00     0.208 A 
HETATM    4  C6  UNL     1      24.587   2.212  52.187  1.00  0.00     0.033 A 
HETATM    5  C13 UNL     1      23.847   1.832  51.157  1.00  0.00     0.076 A 
ENDROOT
BRANCH   1   6
HETATM    6  N1  UNL     1      21.674   2.829  50.160  1.00  0.00    -0.341 N 
HETATM    7  H5  UNL     1      21.344   3.770  49.788  1.00  0.00     0.167 HD
BRANCH   6   8
HETATM    8  C3  UNL     1      21.014   1.660  49.687  1.00  0.00     0.041 C 
HETATM    9  C2  UNL     1      21.384   1.470  48.435  1.00  0.00    -0.001 C 
HETATM   10  C1  UNL     1      22.333   2.423  47.817  1.00  0.00     0.038 C 
BRANCH   8  11
HETATM   11  C14 UNL     1      20.127   0.952  50.591  1.00  0.00     0.012 A 
HETATM   12  C15 UNL     1      20.656   0.192  51.612  1.00  0.00     0.017 A 
HETATM   13  C16 UNL     1      19.834  -0.487  52.479  1.00  0.00     0.025 A 
HETATM   14  C17 UNL     1      18.477  -0.437  52.368  1.00  0.00     0.035 A 
HETATM   15 CL1  UNL     1      17.468  -1.316  53.494  1.00  0.00    -0.084 Cl
HETATM   16  C18 UNL     1      17.922   0.308  51.367  1.00  0.00     0.048 A 
HETATM   17  C19 UNL     1      18.754   0.973  50.519  1.00  0.00     0.048 A 
HETATM   18 CL2  UNL     1      17.972   1.905  49.264  1.00  0.00    -0.083 Cl
ENDBRANCH   8  11
ENDBRANCH   6   8
ENDBRANCH   1   6
BRANCH   4  19
HETATM   19  N3  UNL     1      25.771   1.462  52.532  1.00  0.00    -0.349 N 
HETATM   20  C7  UNL     1      27.013   2.215  52.634  1.00  0.00     0.153 C 
HETATM   21  C8  UNL     1      28.064   1.271  53.161  1.00  0.00     0.005 C 
HETATM   22  C9  UNL     1      28.079  -0.050  53.100  1.00  0.00     0.027 C 
HETATM   23  C11 UNL     1      26.936  -0.717  52.435  1.00  0.00     0.100 C 
HETATM   24  C12 UNL     1      25.681   0.025  52.758  1.00  0.00     0.323 C 
BRANCH  22  25
HETATM   25  C10 UNL     1      29.204  -0.827  53.677  1.00  0.00     0.413 C 
HETATM   26  F1  UNL     1      30.423  -0.395  53.170  1.00  0.00    -0.166 F 
HETATM   27  F2  UNL     1      29.195  -0.585  55.035  1.00  0.00    -0.166 F 
HETATM   28  F3  UNL     1      29.070  -2.148  53.368  1.00  0.00    -0.166 F 
ENDBRANCH  22  25
BRANCH  24  29
HETATM   29  N4  UNL     1      25.361  -0.114  54.187  1.00  0.00     0.101 N 
HETATM   30  H14 UNL     1      25.425   0.780  54.704  1.00  0.00     0.315 HD
HETATM   31  H15 UNL     1      24.476  -0.628  54.327  1.00  0.00     0.315 HD
ENDBRANCH  24  29
ENDBRANCH   4  19
TORSDOF 6
ENDMDL
MODEL 6
REMARK VINA RESULT:      -8.1      1.746      2.308
REMARK  6 active torsions:
REMARK  status: ('A' for Active; 'I' for Inactive)
REMARK    1  A    between atoms: C3_3  and  N1_4 
REMARK    2  A    between atoms: C3_3  and  C14_21 
REMARK    3  A    between atoms: N1_4  and  C4_5 
REMARK    4  A    between atoms: C6_8  and  N3_9 
REMARK    5  A    between atoms: C9_12  and  C10_13 
REMARK    6  A    between atoms: C12_18  and  N4_19 
ROOT
HETATM    1  C4  UNL     1      23.013   1.736  52.275  1.00  0.00     0.125 A 
HETATM    2  N2  UNL     1      22.572   1.422  51.106  1.00  0.00    -0.267 NA
HETATM    3  C5  UNL     1      22.906   2.462  50.151  1.00  0.00     0.208 A 
HETATM    4  C6  UNL     1      23.625   3.435  51.016  1.00  0.00     0.033 A 
HETATM    5  C13 UNL     1      23.698   3.024  52.272  1.00  0.00     0.076 A 
ENDROOT
BRANCH   1   6
HETATM    6  N1  UNL     1      22.816   0.874  53.416  1.00  0.00    -0.341 N 
HETATM    7  H5  UNL     1      22.076   1.138  54.134  1.00  0.00     0.167 HD
BRANCH   6   8
HETATM    8  C3  UNL     1      23.560  -0.319  53.639  1.00  0.00     0.041 C 
HETATM    9  C2  UNL     1      22.698  -1.303  53.809  1.00  0.00    -0.001 C 
HETATM   10  C1  UNL     1      21.249  -1.005  53.738  1.00  0.00     0.038 C 
BRANCH   8  11
HETATM   11  C14 UNL     1      25.009  -0.241  53.642  1.00  0.00     0.012 A 
HETATM   12  C15 UNL     1      25.682   0.006  52.465  1.00  0.00     0.017 A 
HETATM   13  C16 UNL     1      27.054   0.083  52.445  1.00  0.00     0.025 A 
HETATM   14  C17 UNL     1      27.797  -0.078  53.575  1.00  0.00     0.035 A 
HETATM   15 CL1  UNL     1      29.541   0.029  53.505  1.00  0.00    -0.084 Cl
HETATM   16  C18 UNL     1      27.160  -0.323  54.758  1.00  0.00     0.048 A 
HETATM   17  C19 UNL     1      25.800  -0.396  54.756  1.00  0.00     0.048 A 
HETATM   18 CL2  UNL     1      25.055  -0.712  56.304  1.00  0.00    -0.083 Cl
ENDBRANCH   8  11
ENDBRANCH   6   8
ENDBRANCH   1   6
BRANCH   4  19
HETATM   19  N3  UNL     1      24.213   4.699  50.642  1.00  0.00    -0.349 N 
HETATM   20  C7  UNL     1      23.768   5.870  51.384  1.00  0.00     0.153 C 
HETATM   21  C8  UNL     1      24.626   7.029  50.944  1.00  0.00     0.005 C 
HETATM   22  C9  UNL     1      25.300   7.162  49.813  1.00  0.00     0.027 C 
HETATM   23  C11 UNL     1      25.221   6.053  48.836  1.00  0.00     0.100 C 
HETATM   24  C12 UNL     1      25.199   4.753  49.570  1.00  0.00     0.323 C 
BRANCH  22  25
HETATM   25  C10 UNL     1      26.101   8.382  49.543  1.00  0.00     0.413 C 
HETATM   26  F1  UNL     1      26.792   8.272  48.343  1.00  0.00    -0.166 F 
HETATM   27  F2  UNL     1      25.207   9.425  49.430  1.00  0.00    -0.166 F 
HETATM   28  F3  UNL     1      27.019   8.569  50.535  1.00  0.00    -0.166 F 
ENDBRANCH  22  25
BRANCH  24  29
HETATM   29  N4  UNL     1      26.492   4.520  50.232  1.00  0.00     0.101 N 
HETATM   30  H14 UNL     1      27.288   4.514  49.572  1.00  0.00     0.315 HD
HETATM   31  H15 UNL     1      26.615   5.143  51.047  1.00  0.00     0.315 HD
ENDBRANCH  24  29
ENDBRANCH   4  19
TORSDOF 6
ENDMDL
MODEL 7
REMARK VINA RESULT:      -7.9      4.331      7.389
REMARK  6 active torsions:
REMARK  status: ('A' for Active; 'I' for Inactive)
REMARK    1  A    between atoms: C3_3  and  N1_4 
REMARK    2  A    between atoms: C3_3  and  C14_21 
REMARK    3  A    between atoms: N1_4  and  C4_5 
REMARK    4  A    between atoms: C6_8  and  N3_9 
REMARK    5  A    between atoms: C9_12  and  C10_13 
REMARK    6  A    between atoms: C12_18  and  N4_19 
ROOT
HETATM    1  C4  UNL     1      22.814   2.984  50.683  1.00  0.00     0.125 A 
HETATM    2  N2  UNL     1      22.064   2.053  51.163  1.00  0.00    -0.267 NA
HETATM    3  C5  UNL     1      22.871   1.080  51.874  1.00  0.00     0.208 A 
HETATM    4  C6  UNL     1      24.234   1.645  51.700  1.00  0.00     0.033 A 
HETATM    5  C13 UNL     1      24.222   2.768  51.000  1.00  0.00     0.076 A 
ENDROOT
BRANCH   1   6
HETATM    6  N1  UNL     1      22.266   4.085  49.926  1.00  0.00    -0.341 N 
HETATM    7  H5  UNL     1      21.279   4.415  50.149  1.00  0.00     0.167 HD
BRANCH   6   8
HETATM    8  C3  UNL     1      22.974   4.760  48.892  1.00  0.00     0.041 C 
HETATM    9  C2  UNL     1      22.559   4.272  47.739  1.00  0.00    -0.001 C 
HETATM   10  C1  UNL     1      21.526   3.210  47.741  1.00  0.00     0.038 C 
BRANCH   8  11
HETATM   11  C14 UNL     1      23.942   5.774  49.264  1.00  0.00     0.012 A 
HETATM   12  C15 UNL     1      25.265   5.621  48.908  1.00  0.00     0.017 A 
HETATM   13  C16 UNL     1      26.198   6.569  49.250  1.00  0.00     0.025 A 
HETATM   14  C17 UNL     1      25.859   7.688  49.950  1.00  0.00     0.035 A 
HETATM   15 CL1  UNL     1      27.079   8.870  50.366  1.00  0.00    -0.084 Cl
HETATM   16  C18 UNL     1      24.557   7.869  50.319  1.00  0.00     0.048 A 
HETATM   17  C19 UNL     1      23.648   6.918  49.969  1.00  0.00     0.048 A 
HETATM   18 CL2  UNL     1      22.002   7.218  50.475  1.00  0.00    -0.083 Cl
ENDBRANCH   8  11
ENDBRANCH   6   8
ENDBRANCH   1   6
BRANCH   4  19
HETATM   19  N3  UNL     1      25.487   1.121  52.189  1.00  0.00    -0.349 N 
HETATM   20  C7  UNL     1      26.620   2.036  52.190  1.00  0.00     0.153 C 
HETATM   21  C8  UNL     1      27.758   1.335  52.888  1.00  0.00     0.005 C 
HETATM   22  C9  UNL     1      27.941   0.035  53.048  1.00  0.00     0.027 C 
HETATM   23  C11 UNL     1      26.919  -0.873  52.480  1.00  0.00     0.100 C 
HETATM   24  C12 UNL     1      25.568  -0.259  52.649  1.00  0.00     0.323 C 
BRANCH  22  25
HETATM   25  C10 UNL     1      29.129  -0.484  53.769  1.00  0.00     0.413 C 
HETATM   26  F1  UNL     1      29.052  -0.204  55.128  1.00  0.00    -0.166 F 
HETATM   27  F2  UNL     1      29.119  -1.855  53.613  1.00  0.00    -0.166 F 
HETATM   28  F3  UNL     1      30.263   0.101  53.288  1.00  0.00    -0.166 F 
ENDBRANCH  22  25
BRANCH  24  29
HETATM   29  N4  UNL     1      25.209  -0.205  54.075  1.00  0.00     0.101 N 
HETATM   30  H14 UNL     1      24.190  -0.121  54.231  1.00  0.00     0.315 HD
HETATM   31  H15 UNL     1      25.663  -0.965  54.607  1.00  0.00     0.315 HD
ENDBRANCH  24  29
ENDBRANCH   4  19
TORSDOF 6
ENDMDL
MODEL 8
REMARK VINA RESULT:      -7.8      4.872      8.651
REMARK  6 active torsions:
REMARK  status: ('A' for Active; 'I' for Inactive)
REMARK    1  A    between atoms: C3_3  and  N1_4 
REMARK    2  A    between atoms: C3_3  and  C14_21 
REMARK    3  A    between atoms: N1_4  and  C4_5 
REMARK    4  A    between atoms: C6_8  and  N3_9 
REMARK    5  A    between atoms: C9_12  and  C10_13 
REMARK    6  A    between atoms: C12_18  and  N4_19 
ROOT
HETATM    1  C4  UNL     1      30.026   8.263  47.426  1.00  0.00     0.125 A 
HETATM    2  N2  UNL     1      29.575   9.203  48.183  1.00  0.00    -0.267 NA
HETATM    3  C5  UNL     1      28.401   8.745  48.901  1.00  0.00     0.208 A 
HETATM    4  C6  UNL     1      28.273   7.353  48.397  1.00  0.00     0.033 A 
HETATM    5  C13 UNL     1      29.222   7.050  47.526  1.00  0.00     0.076 A 
ENDROOT
BRANCH   1   6
HETATM    6  N1  UNL     1      31.192   8.452  46.596  1.00  0.00    -0.341 N 
HETATM    7  H5  UNL     1      31.118   9.095  45.750  1.00  0.00     0.167 HD
BRANCH   6   8
HETATM    8  C3  UNL     1      32.445   7.823  46.843  1.00  0.00     0.041 C 
HETATM    9  C2  UNL     1      33.348   8.774  46.993  1.00  0.00    -0.001 C 
HETATM   10  C1  UNL     1      32.922  10.188  46.886  1.00  0.00     0.038 C 
BRANCH   8  11
HETATM   11  C14 UNL     1      32.496   6.374  46.880  1.00  0.00     0.012 A 
HETATM   12  C15 UNL     1      32.678   5.666  45.712  1.00  0.00     0.017 A 
HETATM   13  C16 UNL     1      32.729   4.293  45.725  1.00  0.00     0.025 A 
HETATM   14  C17 UNL     1      32.604   3.582  46.880  1.00  0.00     0.035 A 
HETATM   15 CL1  UNL     1      32.675   1.835  46.851  1.00  0.00    -0.084 Cl
HETATM   16  C18 UNL     1      32.423   4.254  48.055  1.00  0.00     0.048 A 
HETATM   17  C19 UNL     1      32.375   5.614  48.021  1.00  0.00     0.048 A 
HETATM   18 CL2  UNL     1      32.141   6.405  49.561  1.00  0.00    -0.083 Cl
ENDBRANCH   8  11
ENDBRANCH   6   8
ENDBRANCH   1   6
BRANCH   4  19
HETATM   19  N3  UNL     1      27.280   6.365  48.745  1.00  0.00    -0.349 N 
HETATM   20  C7  UNL     1      27.690   4.970  48.659  1.00  0.00     0.153 C 
HETATM   21  C8  UNL     1      26.564   4.139  49.221  1.00  0.00     0.005 C 
HETATM   22  C9  UNL     1      25.285   4.462  49.324  1.00  0.00     0.027 C 
HETATM   23  C11 UNL     1      24.875   5.798  48.835  1.00  0.00     0.100 C 
HETATM   24  C12 UNL     1      25.947   6.787  49.154  1.00  0.00     0.323 C 
BRANCH  22  25
HETATM   25  C10 UNL     1      24.305   3.513  49.909  1.00  0.00     0.413 C 
HETATM   26  F1  UNL     1      23.629   2.817  48.916  1.00  0.00    -0.166 F 
HETATM   27  F2  UNL     1      25.030   2.605  50.653  1.00  0.00    -0.166 F 
HETATM   28  F3  UNL     1      23.379   4.190  50.647  1.00  0.00    -0.166 F 
ENDBRANCH  22  25
BRANCH  24  29
HETATM   29  N4  UNL     1      26.042   6.982  50.609  1.00  0.00     0.101 N 
HETATM   30  H14 UNL     1      25.179   7.377  51.021  1.00  0.00     0.315 HD
HETATM   31  H15 UNL     1      26.392   6.132  51.081  1.00  0.00     0.315 HD
ENDBRANCH  24  29
ENDBRANCH   4  19
TORSDOF 6
ENDMDL
MODEL 9
REMARK VINA RESULT:      -7.7      1.892      2.628
REMARK  6 active torsions:
REMARK  status: ('A' for Active; 'I' for Inactive)
REMARK    1  A    between atoms: C3_3  and  N1_4 
REMARK    2  A    between atoms: C3_3  and  C14_21 
REMARK    3  A    between atoms: N1_4  and  C4_5 
REMARK    4  A    between atoms: C6_8  and  N3_9 
REMARK    5  A    between atoms: C9_12  and  C10_13 
REMARK    6  A    between atoms: C12_18  and  N4_19 
ROOT
HETATM    1  C4  UNL     1      21.865   3.167  51.955  1.00  0.00     0.125 A 
HETATM    2  N2  UNL     1      20.952   4.077  51.962  1.00  0.00    -0.267 NA
HETATM    3  C5  UNL     1      21.384   5.222  51.183  1.00  0.00     0.208 A 
HETATM    4  C6  UNL     1      22.729   4.780  50.732  1.00  0.00     0.033 A 
HETATM    5  C13 UNL     1      23.031   3.571  51.177  1.00  0.00     0.076 A 
ENDROOT
BRANCH   1   6
HETATM    6  N1  UNL     1      21.695   1.917  52.657  1.00  0.00    -0.341 N 
HETATM    7  H5  UNL     1      21.069   1.897  53.518  1.00  0.00     0.167 HD
BRANCH   6   8
HETATM    8  C3  UNL     1      22.319   0.700  52.262  1.00  0.00     0.041 C 
HETATM    9  C2  UNL     1      21.467   0.042  51.499  1.00  0.00    -0.001 C 
HETATM   10  C1  UNL     1      20.142   0.642  51.223  1.00  0.00     0.038 C 
BRANCH   8  11
HETATM   11  C14 UNL     1      23.664   0.429  52.732  1.00  0.00     0.012 A 
HETATM   12  C15 UNL     1      24.745   0.949  52.052  1.00  0.00     0.017 A 
HETATM   13  C16 UNL     1      26.027   0.704  52.480  1.00  0.00     0.025 A 
HETATM   14  C17 UNL     1      26.282  -0.055  53.583  1.00  0.00     0.035 A 
HETATM   15 CL1  UNL     1      27.930  -0.342  54.093  1.00  0.00    -0.084 Cl
HETATM   16  C18 UNL     1      25.233  -0.585  54.279  1.00  0.00     0.048 A 
HETATM   17  C19 UNL     1      23.970  -0.330  53.838  1.00  0.00     0.048 A 
HETATM   18 CL2  UNL     1      22.680  -1.040  54.778  1.00  0.00    -0.083 Cl
ENDBRANCH   8  11
ENDBRANCH   6   8
ENDBRANCH   1   6
BRANCH   4  19
HETATM   19  N3  UNL     1      23.675   5.495  49.909  1.00  0.00    -0.349 N 
HETATM   20  C7  UNL     1      23.184   5.988  48.629  1.00  0.00     0.153 C 
HETATM   21  C8  UNL     1      24.278   6.834  48.028  1.00  0.00     0.005 C 
HETATM   22  C9  UNL     1      25.576   6.791  48.282  1.00  0.00     0.027 C 
HETATM   23  C11 UNL     1      26.045   5.797  49.274  1.00  0.00     0.100 C 
HETATM   24  C12 UNL     1      25.042   5.691  50.374  1.00  0.00     0.323 C 
BRANCH  22  25
HETATM   25  C10 UNL     1      26.517   7.707  47.592  1.00  0.00     0.413 C 
HETATM   26  F1  UNL     1      27.728   7.078  47.332  1.00  0.00    -0.166 F 
HETATM   27  F2  UNL     1      25.936   8.036  46.385  1.00  0.00    -0.166 F 
HETATM   28  F3  UNL     1      26.773   8.794  48.376  1.00  0.00    -0.166 F 
ENDBRANCH  22  25
BRANCH  24  29
HETATM   29  N4  UNL     1      25.002   6.940  51.150  1.00  0.00     0.101 N 
HETATM   30  H14 UNL     1      24.570   7.724  50.631  1.00  0.00     0.315 HD
HETATM   31  H15 UNL     1      24.615   6.785  52.094  1.00  0.00     0.315 HD
ENDBRANCH  24  29
ENDBRANCH   4  19
TORSDOF 6
ENDMDL
