MODEL 1
REMARK VINA RESULT:      -7.4      0.000      0.000
REMARK  8 active torsions:
REMARK  status: ('A' for Active; 'I' for Inactive)
REMARK    1  A    between atoms: C3_3  and  N1_4 
REMARK    2  A    between atoms: N1_4  and  C4_5 
REMARK    3  A    between atoms: C4_5  and  C5_6 
REMARK    4  A    between atoms: C5_6  and  C6_7 
REMARK    5  A    between atoms: C6_7  and  C7_8 
REMARK    6  A    between atoms: C8_10  and  C9_11 
REMARK    7  A    between atoms: C11_14  and  N3_15 
REMARK    8  A    between atoms: C14_18  and  N4_19 
ROOT
HETATM    1  C1  UNL     1      20.668  -1.080  54.187  1.00  0.00     0.030 C 
HETATM    2  C2  UNL     1      21.783  -0.044  54.191  1.00  0.00     0.100 C 
HETATM    3  C3  UNL     1      22.982  -0.498  53.320  1.00  0.00     0.121 C 
HETATM    4  C10 UNL     1      23.021   0.953  52.964  1.00  0.00     0.154 C 
HETATM    5  C11 UNL     1      23.094   1.362  51.578  1.00  0.00     0.045 C 
HETATM    6  C17 UNL     1      21.946   0.953  50.997  1.00  0.00     0.128 C 
HETATM    7  N5  UNL     1      21.141   0.276  52.004  1.00  0.00    -0.327 N 
HETATM    8  N6  UNL     1      21.552   0.956  53.174  1.00  0.00    -0.213 NA
HETATM    9  H27 UNL     1      20.572  -0.457  51.511  1.00  0.00     0.180 HD
ENDROOT
BRANCH   3  10
HETATM   10  N1  UNL     1      24.005  -0.936  54.230  1.00  0.00    -0.413 N 
HETATM   11  H6  UNL     1      24.109  -1.686  54.963  1.00  0.00     0.153 HD
BRANCH  10  12
HETATM   12  C4  UNL     1      25.258  -0.422  54.427  1.00  0.00     0.057 C 
BRANCH  12  13
HETATM   13  C5  UNL     1      26.397   0.155  54.418  1.00  0.00     0.053 C 
BRANCH  13  14
HETATM   14  C6  UNL     1      27.653   0.042  54.021  1.00  0.00     0.065 C 
BRANCH  14  15
HETATM   15  C7  UNL     1      28.803  -0.278  53.778  1.00  0.00     0.200 A 
HETATM   16  N2  UNL     1      29.664   0.953  53.763  1.00  0.00    -0.049 N 
HETATM   17  H10 UNL     1      29.300   1.918  53.965  1.00  0.00     0.279 HD
HETATM   18  H11 UNL     1      29.696   2.008  53.912  1.00  0.00     0.279 HD
HETATM   19  C8  UNL     1      30.109  -0.489  53.514  1.00  0.00     0.274 A 
BRANCH  19  20
HETATM   20  C9  UNL     1      29.711  -1.812  53.491  1.00  0.00     0.408 C 
HETATM   21  F1  UNL     1      28.825  -2.724  52.934  1.00  0.00    -0.432 F 
ENDBRANCH  19  20
ENDBRANCH  14  15
ENDBRANCH  13  14
ENDBRANCH  12  13
ENDBRANCH  10  12
ENDBRANCH   3  10
BRANCH   5  22
HETATM   22  N3  UNL     1      24.204   2.071  51.037  1.00  0.00    -0.381 N 
HETATM   23  C12 UNL     1      23.827   2.879  49.880  1.00  0.00     0.125 C 
HETATM   24  C13 UNL     1      24.635   4.147  49.977  1.00  0.00     0.055 C 
HETATM   25  C14 UNL     1      26.089   3.802  49.871  1.00  0.00     0.221 C 
HETATM   26  C15 UNL     1      26.543   2.877  50.959  1.00  0.00     0.055 C 
HETATM   27  C16 UNL     1      25.521   1.990  51.559  1.00  0.00     0.125 C 
BRANCH  25  28
HETATM   28  N4  UNL     1      26.845   5.030  49.745  1.00  0.00     0.083 N 
HETATM   29  H20 UNL     1      27.831   4.808  49.551  1.00  0.00     0.313 HD
HETATM   30  H21 UNL     1      26.401   5.607  49.022  1.00  0.00     0.313 HD
ENDBRANCH  25  28
ENDBRANCH   5  22
TORSDOF 8
ENDMDL
MODEL 2
REMARK VINA RESULT:      -7.4      3.149      6.923
REMARK  8 active torsions:
REMARK  status: ('A' for Active; 'I' for Inactive)
REMARK    1  A    between atoms: C3_3  and  N1_4 
REMARK    2  A    between atoms: N1_4  and  C4_5 
REMARK    3  A    between atoms: C4_5  and  C5_6 
REMARK    4  A    between atoms: C5_6  and  C6_7 
REMARK    5  A    between atoms: C6_7  and  C7_8 
REMARK    6  A    between atoms: C8_10  and  C9_11 
REMARK    7  A    between atoms: C11_14  and  N3_15 
REMARK    8  A    between atoms: C14_18  and  N4_19 
ROOT
HETATM    1  C1  UNL     1      28.978   1.555  53.874  1.00  0.00     0.030 C 
HETATM    2  C2  UNL     1      27.537   1.894  53.519  1.00  0.00     0.100 C 
HETATM    3  C3  UNL     1      26.895   0.789  52.641  1.00  0.00     0.121 C 
HETATM    4  C10 UNL     1      25.692   1.103  53.470  1.00  0.00     0.154 C 
HETATM    5  C11 UNL     1      24.940   0.037  54.097  1.00  0.00     0.045 C 
HETATM    6  C17 UNL     1      25.767  -0.538  54.995  1.00  0.00     0.128 C 
HETATM    7  N5  UNL     1      27.049   0.151  54.941  1.00  0.00    -0.327 N 
HETATM    8  N6  UNL     1      26.638   1.449  54.560  1.00  0.00    -0.213 NA
HETATM    9  H27 UNL     1      27.793  -0.550  55.188  1.00  0.00     0.180 HD
ENDROOT
BRANCH   3  10
HETATM   10  N1  UNL     1      26.867   1.300  51.298  1.00  0.00    -0.413 N 
HETATM   11  H6  UNL     1      27.169   0.967  50.345  1.00  0.00     0.153 HD
BRANCH  10  12
HETATM   12  C4  UNL     1      26.407   2.508  50.847  1.00  0.00     0.057 C 
BRANCH  12  13
HETATM   13  C5  UNL     1      26.090   3.587  50.244  1.00  0.00     0.053 C 
BRANCH  13  14
HETATM   14  C6  UNL     1      26.526   4.522  49.417  1.00  0.00     0.065 C 
BRANCH  14  15
HETATM   15  C7  UNL     1      26.974   5.509  48.862  1.00  0.00     0.200 A 
HETATM   16  N2  UNL     1      28.470   5.400  48.795  1.00  0.00    -0.049 N 
HETATM   17  H10 UNL     1      29.008   4.571  49.153  1.00  0.00     0.279 HD
HETATM   18  H11 UNL     1      29.320   4.791  49.004  1.00  0.00     0.279 HD
HETATM   19  C8  UNL     1      27.603   6.547  48.274  1.00  0.00     0.274 A 
BRANCH  19  20
HETATM   20  C9  UNL     1      26.311   6.997  48.084  1.00  0.00     0.408 C 
HETATM   21  F1  UNL     1      25.359   7.359  47.141  1.00  0.00    -0.432 F 
ENDBRANCH  19  20
ENDBRANCH  14  15
ENDBRANCH  13  14
ENDBRANCH  12  13
ENDBRANCH  10  12
ENDBRANCH   3  10
BRANCH   5  22
HETATM   22  N3  UNL     1      23.586  -0.253  53.767  1.00  0.00    -0.381 N 
HETATM   23  C12 UNL     1      22.971  -1.166  54.728  1.00  0.00     0.125 C 
HETATM   24  C13 UNL     1      21.546  -0.705  54.887  1.00  0.00     0.055 C 
HETATM   25  C14 UNL     1      20.844  -0.844  53.571  1.00  0.00     0.221 C 
HETATM   26  C15 UNL     1      21.479  -0.026  52.489  1.00  0.00     0.055 C 
HETATM   27  C16 UNL     1      22.920   0.277  52.632  1.00  0.00     0.125 C 
BRANCH  25  28
HETATM   28  N4  UNL     1      19.430  -0.611  53.778  1.00  0.00     0.083 N 
HETATM   29  H20 UNL     1      19.113   0.148  53.159  1.00  0.00     0.313 HD
HETATM   30  H21 UNL     1      18.934  -1.497  53.633  1.00  0.00     0.313 HD
ENDBRANCH  25  28
ENDBRANCH   5  22
TORSDOF 8
ENDMDL
MODEL 3
REMARK VINA RESULT:      -7.4      2.763      6.591
REMARK  8 active torsions:
REMARK  status: ('A' for Active; 'I' for Inactive)
REMARK    1  A    between atoms: C3_3  and  N1_4 
REMARK    2  A    between atoms: N1_4  and  C4_5 
REMARK    3  A    between atoms: C4_5  and  C5_6 
REMARK    4  A    between atoms: C5_6  and  C6_7 
REMARK    5  A    between atoms: C6_7  and  C7_8 
REMARK    6  A    between atoms: C8_10  and  C9_11 
REMARK    7  A    between atoms: C11_14  and  N3_15 
REMARK    8  A    between atoms: C14_18  and  N4_19 
ROOT
HETATM    1  C1  UNL     1      29.021   1.258  53.448  1.00  0.00     0.030 C 
HETATM    2  C2  UNL     1      27.629   1.741  53.830  1.00  0.00     0.100 C 
HETATM    3  C3  UNL     1      26.611   1.501  52.685  1.00  0.00     0.121 C 
HETATM    4  C10 UNL     1      25.702   1.177  53.825  1.00  0.00     0.154 C 
HETATM    5  C11 UNL     1      24.917  -0.039  53.809  1.00  0.00     0.045 C 
HETATM    6  C17 UNL     1      25.796  -1.063  53.841  1.00  0.00     0.128 C 
HETATM    7  N5  UNL     1      27.141  -0.508  53.870  1.00  0.00    -0.327 N 
HETATM    8  N6  UNL     1      26.912   0.712  54.548  1.00  0.00    -0.213 NA
HETATM    9  H27 UNL     1      27.774  -1.191  53.381  1.00  0.00     0.180 HD
ENDROOT
BRANCH   3  10
HETATM   10  N1  UNL     1      26.388   2.778  52.063  1.00  0.00    -0.413 N 
HETATM   11  H6  UNL     1      26.112   3.745  52.377  1.00  0.00     0.153 HD
BRANCH  10  12
HETATM   12  C4  UNL     1      26.460   3.113  50.738  1.00  0.00     0.057 C 
BRANCH  12  13
HETATM   13  C5  UNL     1      26.677   3.570  49.567  1.00  0.00     0.053 C 
BRANCH  13  14
HETATM   14  C6  UNL     1      27.247   4.551  48.887  1.00  0.00     0.065 C 
BRANCH  14  15
HETATM   15  C7  UNL     1      27.947   5.440  48.435  1.00  0.00     0.200 A 
HETATM   16  N2  UNL     1      27.096   6.647  48.163  1.00  0.00    -0.049 N 
HETATM   17  H10 UNL     1      26.067   6.690  48.371  1.00  0.00     0.279 HD
HETATM   18  H11 UNL     1      26.121   7.072  48.232  1.00  0.00     0.279 HD
HETATM   19  C8  UNL     1      28.600   6.503  47.922  1.00  0.00     0.274 A 
BRANCH  19  20
HETATM   20  C9  UNL     1      29.698   5.678  48.069  1.00  0.00     0.408 C 
HETATM   21  F1  UNL     1      30.341   4.544  47.592  1.00  0.00    -0.432 F 
ENDBRANCH  19  20
ENDBRANCH  14  15
ENDBRANCH  13  14
ENDBRANCH  12  13
ENDBRANCH  10  12
ENDBRANCH   3  10
BRANCH   5  22
HETATM   22  N3  UNL     1      23.493  -0.041  53.782  1.00  0.00    -0.381 N 
HETATM   23  C12 UNL     1      22.960   0.982  52.887  1.00  0.00     0.125 C 
HETATM   24  C13 UNL     1      21.748   0.371  52.232  1.00  0.00     0.055 C 
HETATM   25  C14 UNL     1      20.727   0.074  53.288  1.00  0.00     0.221 C 
HETATM   26  C15 UNL     1      21.230  -0.885  54.322  1.00  0.00     0.055 C 
HETATM   27  C16 UNL     1      22.692  -0.929  54.547  1.00  0.00     0.125 C 
BRANCH  25  28
HETATM   28  N4  UNL     1      19.491  -0.305  52.638  1.00  0.00     0.083 N 
HETATM   29  H20 UNL     1      19.076   0.518  52.181  1.00  0.00     0.313 HD
HETATM   30  H21 UNL     1      19.691  -1.079  51.994  1.00  0.00     0.313 HD
ENDBRANCH  25  28
ENDBRANCH   5  22
TORSDOF 8
ENDMDL
MODEL 4
REMARK VINA RESULT:      -7.2      1.677      4.787
REMARK  8 active torsions:
REMARK  status: ('A' for Active; 'I' for Inactive)
REMARK    1  A    between atoms: C3_3  and  N1_4 
REMARK    2  A    between atoms: N1_4  and  C4_5 
REMARK    3  A    between atoms: C4_5  and  C5_6 
REMARK    4  A    between atoms: C5_6  and  C6_7 
REMARK    5  A    between atoms: C6_7  and  C7_8 
REMARK    6  A    between atoms: C8_10  and  C9_11 
REMARK    7  A    between atoms: C11_14  and  N3_15 
REMARK    8  A    between atoms: C14_18  and  N4_19 
ROOT
HETATM    1  C1  UNL     1      23.162   5.516  49.453  1.00  0.00     0.030 C 
HETATM    2  C2  UNL     1      23.470   4.061  49.776  1.00  0.00     0.100 C 
HETATM    3  C3  UNL     1      23.865   3.882  51.264  1.00  0.00     0.121 C 
HETATM    4  C10 UNL     1      23.076   2.621  51.120  1.00  0.00     0.154 C 
HETATM    5  C11 UNL     1      22.062   2.280  52.094  1.00  0.00     0.045 C 
HETATM    6  C17 UNL     1      21.107   3.230  52.001  1.00  0.00     0.128 C 
HETATM    7  N5  UNL     1      21.510   4.183  50.977  1.00  0.00    -0.327 N 
HETATM    8  N6  UNL     1      22.260   3.347  50.116  1.00  0.00    -0.213 NA
HETATM    9  H27 UNL     1      21.117   5.119  51.247  1.00  0.00     0.180 HD
ENDROOT
BRANCH   3  10
HETATM   10  N1  UNL     1      25.293   3.716  51.291  1.00  0.00    -0.413 N 
HETATM   11  H6  UNL     1      26.139   4.340  51.217  1.00  0.00     0.153 HD
BRANCH  10  12
HETATM   12  C4  UNL     1      26.022   2.563  51.409  1.00  0.00     0.057 C 
BRANCH  12  13
HETATM   13  C5  UNL     1      26.651   1.501  51.732  1.00  0.00     0.053 C 
BRANCH  13  14
HETATM   14  C6  UNL     1      27.225   0.856  52.734  1.00  0.00     0.065 C 
BRANCH  14  15
HETATM   15  C7  UNL     1      27.915   0.450  53.652  1.00  0.00     0.200 A 
HETATM   16  N2  UNL     1      27.215   0.719  54.952  1.00  0.00    -0.049 N 
HETATM   17  H10 UNL     1      26.264   1.164  55.018  1.00  0.00     0.279 HD
HETATM   18  H11 UNL     1      26.332   1.096  55.416  1.00  0.00     0.279 HD
HETATM   19  C8  UNL     1      28.577   0.053  54.758  1.00  0.00     0.274 A 
BRANCH  19  20
HETATM   20  C9  UNL     1      29.492  -0.410  53.831  1.00  0.00     0.408 C 
HETATM   21  F1  UNL     1      30.117  -1.536  53.314  1.00  0.00    -0.432 F 
ENDBRANCH  19  20
ENDBRANCH  14  15
ENDBRANCH  13  14
ENDBRANCH  12  13
ENDBRANCH  10  12
ENDBRANCH   3  10
BRANCH   5  22
HETATM   22  N3  UNL     1      22.145   1.129  52.928  1.00  0.00    -0.381 N 
HETATM   23  C12 UNL     1      23.358   0.355  52.675  1.00  0.00     0.125 C 
HETATM   24  C13 UNL     1      23.813  -0.155  54.018  1.00  0.00     0.055 C 
HETATM   25  C14 UNL     1      22.763  -1.069  54.569  1.00  0.00     0.221 C 
HETATM   26  C15 UNL     1      21.443  -0.386  54.755  1.00  0.00     0.055 C 
HETATM   27  C16 UNL     1      21.157   0.775  53.883  1.00  0.00     0.125 C 
BRANCH  25  28
HETATM   28  N4  UNL     1      23.294  -1.723  55.746  1.00  0.00     0.083 N 
HETATM   29  H20 UNL     1      22.729  -1.467  56.566  1.00  0.00     0.313 HD
HETATM   30  H21 UNL     1      23.328  -2.733  55.565  1.00  0.00     0.313 HD
ENDBRANCH  25  28
ENDBRANCH   5  22
TORSDOF 8
ENDMDL
MODEL 5
REMARK VINA RESULT:      -7.1      1.984      4.924
REMARK  8 active torsions:
REMARK  status: ('A' for Active; 'I' for Inactive)
REMARK    1  A    between atoms: C3_3  and  N1_4 
REMARK    2  A    between atoms: N1_4  and  C4_5 
REMARK    3  A    between atoms: C4_5  and  C5_6 
REMARK    4  A    between atoms: C5_6  and  C6_7 
REMARK    5  A    between atoms: C6_7  and  C7_8 
REMARK    6  A    between atoms: C8_10  and  C9_11 
REMARK    7  A    between atoms: C11_14  and  N3_15 
REMARK    8  A    between atoms: C14_18  and  N4_19 
ROOT
HETATM    1  C1  UNL     1      25.870   4.773  49.431  1.00  0.00     0.030 C 
HETATM    2  C2  UNL     1      25.334   3.395  49.792  1.00  0.00     0.100 C 
HETATM    3  C3  UNL     1      25.265   3.198  51.329  1.00  0.00     0.121 C 
HETATM    4  C10 UNL     1      24.003   2.477  50.983  1.00  0.00     0.154 C 
HETATM    5  C11 UNL     1      22.776   2.776  51.689  1.00  0.00     0.045 C 
HETATM    6  C17 UNL     1      22.467   4.056  51.393  1.00  0.00     0.128 C 
HETATM    7  N5  UNL     1      23.495   4.581  50.506  1.00  0.00    -0.327 N 
HETATM    8  N6  UNL     1      23.890   3.403  49.830  1.00  0.00    -0.213 NA
HETATM    9  H27 UNL     1      23.576   5.612  50.694  1.00  0.00     0.180 HD
ENDROOT
BRANCH   3  10
HETATM   10  N1  UNL     1      26.377   2.359  51.683  1.00  0.00    -0.413 N 
HETATM   11  H6  UNL     1      27.423   2.462  51.756  1.00  0.00     0.153 HD
BRANCH  10  12
HETATM   12  C4  UNL     1      26.377   1.038  52.042  1.00  0.00     0.057 C 
BRANCH  12  13
HETATM   13  C5  UNL     1      26.592  -0.184  52.343  1.00  0.00     0.053 C 
BRANCH  13  14
HETATM   14  C6  UNL     1      27.519  -1.049  52.718  1.00  0.00     0.065 C 
BRANCH  14  15
HETATM   15  C7  UNL     1      28.504  -1.643  53.118  1.00  0.00     0.200 A 
HETATM   16  N2  UNL     1      28.261  -3.122  53.021  1.00  0.00    -0.049 N 
HETATM   17  H10 UNL     1      27.378  -3.540  52.634  1.00  0.00     0.279 HD
HETATM   18  H11 UNL     1      27.585  -3.885  52.711  1.00  0.00     0.279 HD
HETATM   19  C8  UNL     1      29.520  -2.424  53.538  1.00  0.00     0.274 A 
BRANCH  19  20
HETATM   20  C9  UNL     1      30.145  -1.207  53.732  1.00  0.00     0.408 C 
HETATM   21  F1  UNL     1      30.282   0.090  53.256  1.00  0.00    -0.432 F 
ENDBRANCH  19  20
ENDBRANCH  14  15
ENDBRANCH  13  14
ENDBRANCH  12  13
ENDBRANCH  10  12
ENDBRANCH   3  10
BRANCH   5  22
HETATM   22  N3  UNL     1      22.096   1.823  52.499  1.00  0.00    -0.381 N 
HETATM   23  C12 UNL     1      20.665   2.100  52.588  1.00  0.00     0.125 C 
HETATM   24  C13 UNL     1      19.981   0.758  52.589  1.00  0.00     0.055 C 
HETATM   25  C14 UNL     1      20.402   0.001  53.811  1.00  0.00     0.221 C 
HETATM   26  C15 UNL     1      21.881  -0.231  53.863  1.00  0.00     0.055 C 
HETATM   27  C16 UNL     1      22.742   0.740  53.151  1.00  0.00     0.125 C 
BRANCH  25  28
HETATM   28  N4  UNL     1      19.583  -1.187  53.921  1.00  0.00     0.083 N 
HETATM   29  H20 UNL     1      20.095  -1.910  54.444  1.00  0.00     0.313 HD
HETATM   30  H21 UNL     1      18.689  -0.922  54.350  1.00  0.00     0.313 HD
ENDBRANCH  25  28
ENDBRANCH   5  22
TORSDOF 8
ENDMDL
MODEL 6
REMARK VINA RESULT:      -7.0      2.602      6.643
REMARK  8 active torsions:
REMARK  status: ('A' for Active; 'I' for Inactive)
REMARK    1  A    between atoms: C3_3  and  N1_4 
REMARK    2  A    between atoms: N1_4  and  C4_5 
REMARK    3  A    between atoms: C4_5  and  C5_6 
REMARK    4  A    between atoms: C5_6  and  C6_7 
REMARK    5  A    between atoms: C6_7  and  C7_8 
REMARK    6  A    between atoms: C8_10  and  C9_11 
REMARK    7  A    between atoms: C11_14  and  N3_15 
REMARK    8  A    between atoms: C14_18  and  N4_19 
ROOT
HETATM    1  C1  UNL     1      29.364   1.239  53.853  1.00  0.00     0.030 C 
HETATM    2  C2  UNL     1      27.973   1.855  53.893  1.00  0.00     0.100 C 
HETATM    3  C3  UNL     1      27.172   1.530  52.606  1.00  0.00     0.121 C 
HETATM    4  C10 UNL     1      26.039   1.419  53.573  1.00  0.00     0.154 C 
HETATM    5  C11 UNL     1      25.167   0.264  53.546  1.00  0.00     0.045 C 
HETATM    6  C17 UNL     1      25.931  -0.800  53.872  1.00  0.00     0.128 C 
HETATM    7  N5  UNL     1      27.290  -0.333  54.101  1.00  0.00    -0.327 N 
HETATM    8  N6  UNL     1      27.045   0.978  54.571  1.00  0.00    -0.213 NA
HETATM    9  H27 UNL     1      27.940  -1.114  53.832  1.00  0.00     0.180 HD
ENDROOT
BRANCH   3  10
HETATM   10  N1  UNL     1      27.183   2.724  51.805  1.00  0.00    -0.413 N 
HETATM   11  H6  UNL     1      27.773   3.594  51.735  1.00  0.00     0.153 HD
BRANCH  10  12
HETATM   12  C4  UNL     1      26.314   3.106  50.819  1.00  0.00     0.057 C 
BRANCH  12  13
HETATM   13  C5  UNL     1      25.615   3.323  49.773  1.00  0.00     0.053 C 
BRANCH  13  14
HETATM   14  C6  UNL     1      24.403   3.620  49.336  1.00  0.00     0.065 C 
BRANCH  14  15
HETATM   15  C7  UNL     1      23.262   3.648  48.911  1.00  0.00     0.200 A 
HETATM   16  N2  UNL     1      22.480   4.685  49.666  1.00  0.00    -0.049 N 
HETATM   17  H10 UNL     1      22.897   5.292  50.416  1.00  0.00     0.279 HD
HETATM   18  H11 UNL     1      22.517   5.445  50.412  1.00  0.00     0.279 HD
HETATM   19  C8  UNL     1      21.971   3.780  48.543  1.00  0.00     0.274 A 
BRANCH  19  20
HETATM   20  C9  UNL     1      22.319   2.819  47.614  1.00  0.00     0.408 C 
HETATM   21  F1  UNL     1      22.685   1.493  47.431  1.00  0.00    -0.432 F 
ENDBRANCH  19  20
ENDBRANCH  14  15
ENDBRANCH  13  14
ENDBRANCH  12  13
ENDBRANCH  10  12
ENDBRANCH   3  10
BRANCH   5  22
HETATM   22  N3  UNL     1      23.779   0.348  53.238  1.00  0.00    -0.381 N 
HETATM   23  C12 UNL     1      23.469   1.517  52.418  1.00  0.00     0.125 C 
HETATM   24  C13 UNL     1      22.400   1.076  51.453  1.00  0.00     0.055 C 
HETATM   25  C14 UNL     1      21.177   0.693  52.229  1.00  0.00     0.221 C 
HETATM   26  C15 UNL     1      21.431  -0.430  53.187  1.00  0.00     0.055 C 
HETATM   27  C16 UNL     1      22.814  -0.590  53.687  1.00  0.00     0.125 C 
BRANCH  25  28
HETATM   28  N4  UNL     1      20.089   0.482  51.298  1.00  0.00     0.083 N 
HETATM   29  H20 UNL     1      19.206   0.389  51.817  1.00  0.00     0.313 HD
HETATM   30  H21 UNL     1      20.092   1.253  50.621  1.00  0.00     0.313 HD
ENDBRANCH  25  28
ENDBRANCH   5  22
TORSDOF 8
ENDMDL
MODEL 7
REMARK VINA RESULT:      -7.0      2.937      6.840
REMARK  8 active torsions:
REMARK  status: ('A' for Active; 'I' for Inactive)
REMARK    1  A    between atoms: C3_3  and  N1_4 
REMARK    2  A    between atoms: N1_4  and  C4_5 
REMARK    3  A    between atoms: C4_5  and  C5_6 
REMARK    4  A    between atoms: C5_6  and  C6_7 
REMARK    5  A    between atoms: C6_7  and  C7_8 
REMARK    6  A    between atoms: C8_10  and  C9_11 
REMARK    7  A    between atoms: C11_14  and  N3_15 
REMARK    8  A    between atoms: C14_18  and  N4_19 
ROOT
HETATM    1  C1  UNL     1      29.056   1.303  54.074  1.00  0.00     0.030 C 
HETATM    2  C2  UNL     1      27.625   1.751  53.815  1.00  0.00     0.100 C 
HETATM    3  C3  UNL     1      26.930   0.851  52.761  1.00  0.00     0.121 C 
HETATM    4  C10 UNL     1      25.750   1.048  53.657  1.00  0.00     0.154 C 
HETATM    5  C11 UNL     1      24.967  -0.089  54.091  1.00  0.00     0.045 C 
HETATM    6  C17 UNL     1      25.783  -0.849  54.852  1.00  0.00     0.128 C 
HETATM    7  N5  UNL     1      27.089  -0.207  54.900  1.00  0.00    -0.327 N 
HETATM    8  N6  UNL     1      26.722   1.153  54.773  1.00  0.00    -0.213 NA
HETATM    9  H27 UNL     1      27.809  -0.966  54.999  1.00  0.00     0.180 HD
ENDROOT
BRANCH   3  10
HETATM   10  N1  UNL     1      26.905   1.602  51.536  1.00  0.00    -0.413 N 
HETATM   11  H6  UNL     1      27.560   1.775  50.729  1.00  0.00     0.153 HD
BRANCH  10  12
HETATM   12  C4  UNL     1      25.914   2.406  51.041  1.00  0.00     0.057 C 
BRANCH  12  13
HETATM   13  C5  UNL     1      24.992   3.248  50.777  1.00  0.00     0.053 C 
BRANCH  13  14
HETATM   14  C6  UNL     1      23.831   3.731  51.187  1.00  0.00     0.065 C 
BRANCH  14  15
HETATM   15  C7  UNL     1      22.881   4.394  51.562  1.00  0.00     0.200 A 
HETATM   16  N2  UNL     1      23.315   5.820  51.746  1.00  0.00    -0.049 N 
HETATM   17  H10 UNL     1      24.289   6.160  51.542  1.00  0.00     0.279 HD
HETATM   18  H11 UNL     1      24.117   6.516  51.651  1.00  0.00     0.279 HD
HETATM   19  C8  UNL     1      21.920   5.242  51.984  1.00  0.00     0.274 A 
BRANCH  19  20
HETATM   20  C9  UNL     1      21.129   4.113  51.894  1.00  0.00     0.408 C 
HETATM   21  F1  UNL     1      20.416   3.162  52.613  1.00  0.00    -0.432 F 
ENDBRANCH  19  20
ENDBRANCH  14  15
ENDBRANCH  13  14
ENDBRANCH  12  13
ENDBRANCH  10  12
ENDBRANCH   3  10
BRANCH   5  22
HETATM   22  N3  UNL     1      23.599  -0.266  53.740  1.00  0.00    -0.381 N 
HETATM   23  C12 UNL     1      22.907  -1.163  54.662  1.00  0.00     0.125 C 
HETATM   24  C13 UNL     1      21.518  -0.602  54.825  1.00  0.00     0.055 C 
HETATM   25  C14 UNL     1      20.822  -0.644  53.500  1.00  0.00     0.221 C 
HETATM   26  C15 UNL     1      21.529   0.161  52.452  1.00  0.00     0.055 C 
HETATM   27  C16 UNL     1      22.987   0.350  52.617  1.00  0.00     0.125 C 
BRANCH  25  28
HETATM   28  N4  UNL     1      19.428  -0.313  53.702  1.00  0.00     0.083 N 
HETATM   29  H20 UNL     1      18.865  -0.718  52.942  1.00  0.00     0.313 HD
HETATM   30  H21 UNL     1      19.154  -0.635  54.637  1.00  0.00     0.313 HD
ENDBRANCH  25  28
ENDBRANCH   5  22
TORSDOF 8
ENDMDL
MODEL 8
REMARK VINA RESULT:      -6.8      2.987      6.213
REMARK  8 active torsions:
REMARK  status: ('A' for Active; 'I' for Inactive)
REMARK    1  A    between atoms: C3_3  and  N1_4 
REMARK    2  A    between atoms: N1_4  and  C4_5 
REMARK    3  A    between atoms: C4_5  and  C5_6 
REMARK    4  A    between atoms: C5_6  and  C6_7 
REMARK    5  A    between atoms: C6_7  and  C7_8 
REMARK    6  A    between atoms: C8_10  and  C9_11 
REMARK    7  A    between atoms: C11_14  and  N3_15 
REMARK    8  A    between atoms: C14_18  and  N4_19 
ROOT
HETATM    1  C1  UNL     1      28.476   0.155  54.630  1.00  0.00     0.030 C 
HETATM    2  C2  UNL     1      27.305   1.067  54.294  1.00  0.00     0.100 C 
HETATM    3  C3  UNL     1      26.821   0.854  52.836  1.00  0.00     0.121 C 
HETATM    4  C10 UNL     1      25.478   1.053  53.459  1.00  0.00     0.154 C 
HETATM    5  C11 UNL     1      24.404   0.122  53.191  1.00  0.00     0.045 C 
HETATM    6  C17 UNL     1      24.788  -1.065  53.706  1.00  0.00     0.128 C 
HETATM    7  N5  UNL     1      26.108  -0.900  54.297  1.00  0.00    -0.327 N 
HETATM    8  N6  UNL     1      26.055   0.458  54.690  1.00  0.00    -0.213 NA
HETATM    9  H27 UNL     1      26.609  -1.820  54.211  1.00  0.00     0.180 HD
ENDROOT
BRANCH   3  10
HETATM   10  N1  UNL     1      27.318   1.968  52.075  1.00  0.00    -0.413 N 
HETATM   11  H6  UNL     1      28.177   2.578  52.080  1.00  0.00     0.153 HD
BRANCH  10  12
HETATM   12  C4  UNL     1      26.728   2.626  51.030  1.00  0.00     0.057 C 
BRANCH  12  13
HETATM   13  C5  UNL     1      26.381   3.266  49.982  1.00  0.00     0.053 C 
BRANCH  13  14
HETATM   14  C6  UNL     1      26.562   4.384  49.299  1.00  0.00     0.065 C 
BRANCH  14  15
HETATM   15  C7  UNL     1      26.865   5.481  48.865  1.00  0.00     0.200 A 
HETATM   16  N2  UNL     1      28.359   5.565  48.736  1.00  0.00    -0.049 N 
HETATM   17  H10 UNL     1      29.006   4.769  48.966  1.00  0.00     0.279 HD
HETATM   18  H11 UNL     1      29.283   5.042  48.837  1.00  0.00     0.279 HD
HETATM   19  C8  UNL     1      27.341   6.654  48.398  1.00  0.00     0.274 A 
BRANCH  19  20
HETATM   20  C9  UNL     1      25.997   6.964  48.310  1.00  0.00     0.408 C 
HETATM   21  F1  UNL     1      24.800   6.666  47.672  1.00  0.00    -0.432 F 
ENDBRANCH  19  20
ENDBRANCH  14  15
ENDBRANCH  13  14
ENDBRANCH  12  13
ENDBRANCH  10  12
ENDBRANCH   3  10
BRANCH   5  22
HETATM   22  N3  UNL     1      23.205   0.495  52.519  1.00  0.00    -0.381 N 
HETATM   23  C12 UNL     1      23.355   1.749  51.786  1.00  0.00     0.125 C 
HETATM   24  C13 UNL     1      22.561   1.586  50.515  1.00  0.00     0.055 C 
HETATM   25  C14 UNL     1      21.117   1.403  50.868  1.00  0.00     0.221 C 
HETATM   26  C15 UNL     1      20.881   0.195  51.722  1.00  0.00     0.055 C 
HETATM   27  C16 UNL     1      22.006  -0.263  52.568  1.00  0.00     0.125 C 
BRANCH  25  28
HETATM   28  N4  UNL     1      20.335   1.466  49.652  1.00  0.00     0.083 N 
HETATM   29  H20 UNL     1      19.465   1.985  49.830  1.00  0.00     0.313 HD
HETATM   30  H21 UNL     1      20.919   1.878  48.916  1.00  0.00     0.313 HD
ENDBRANCH  25  28
ENDBRANCH   5  22
TORSDOF 8
ENDMDL
MODEL 9
REMARK VINA RESULT:      -6.8      1.955      2.516
REMARK  8 active torsions:
REMARK  status: ('A' for Active; 'I' for Inactive)
REMARK    1  A    between atoms: C3_3  and  N1_4 
REMARK    2  A    between atoms: N1_4  and  C4_5 
REMARK    3  A    between atoms: C4_5  and  C5_6 
REMARK    4  A    between atoms: C5_6  and  C6_7 
REMARK    5  A    between atoms: C6_7  and  C7_8 
REMARK    6  A    between atoms: C8_10  and  C9_11 
REMARK    7  A    between atoms: C11_14  and  N3_15 
REMARK    8  A    between atoms: C14_18  and  N4_19 
ROOT
HETATM    1  C1  UNL     1      20.729   0.232  51.941  1.00  0.00     0.030 C 
HETATM    2  C2  UNL     1      21.637   1.424  52.208  1.00  0.00     0.100 C 
HETATM    3  C3  UNL     1      23.076   1.167  51.692  1.00  0.00     0.121 C 
HETATM    4  C10 UNL     1      22.992   2.611  51.320  1.00  0.00     0.154 C 
HETATM    5  C11 UNL     1      23.364   3.045  49.990  1.00  0.00     0.045 C 
HETATM    6  C17 UNL     1      22.482   2.475  49.141  1.00  0.00     0.128 C 
HETATM    7  N5  UNL     1      21.551   1.673  49.921  1.00  0.00    -0.327 N 
HETATM    8  N6  UNL     1      21.535   2.392  51.139  1.00  0.00    -0.213 NA
HETATM    9  H27 UNL     1      21.246   0.869  49.316  1.00  0.00     0.180 HD
ENDROOT
BRANCH   3  10
HETATM   10  N1  UNL     1      23.878   0.876  52.849  1.00  0.00    -0.413 N 
HETATM   11  H6  UNL     1      23.973   1.249  53.830  1.00  0.00     0.153 HD
BRANCH  10  12
HETATM   12  C4  UNL     1      24.866  -0.060  52.997  1.00  0.00     0.057 C 
BRANCH  12  13
HETATM   13  C5  UNL     1      25.752  -0.909  53.349  1.00  0.00     0.053 C 
BRANCH  13  14
HETATM   14  C6  UNL     1      27.009  -1.281  53.176  1.00  0.00     0.065 C 
BRANCH  14  15
HETATM   15  C7  UNL     1      28.179  -1.610  53.265  1.00  0.00     0.200 A 
HETATM   16  N2  UNL     1      28.302  -3.079  52.978  1.00  0.00    -0.049 N 
HETATM   17  H10 UNL     1      27.486  -3.688  52.716  1.00  0.00     0.279 HD
HETATM   18  H11 UNL     1      27.786  -3.966  52.692  1.00  0.00     0.279 HD
HETATM   19  C8  UNL     1      29.430  -2.109  53.335  1.00  0.00     0.274 A 
BRANCH  19  20
HETATM   20  C9  UNL     1      29.754  -0.792  53.594  1.00  0.00     0.408 C 
HETATM   21  F1  UNL     1      30.508   0.297  53.178  1.00  0.00    -0.432 F 
ENDBRANCH  19  20
ENDBRANCH  14  15
ENDBRANCH  13  14
ENDBRANCH  12  13
ENDBRANCH  10  12
ENDBRANCH   3  10
BRANCH   5  22
HETATM   22  N3  UNL     1      24.458   3.920  49.738  1.00  0.00    -0.381 N 
HETATM   23  C12 UNL     1      25.702   3.426  50.325  1.00  0.00     0.125 C 
HETATM   24  C13 UNL     1      26.791   3.774  49.345  1.00  0.00     0.055 C 
HETATM   25  C14 UNL     1      26.874   5.264  49.224  1.00  0.00     0.221 C 
HETATM   26  C15 UNL     1      25.596   5.875  48.735  1.00  0.00     0.055 C 
HETATM   27  C16 UNL     1      24.346   5.133  49.012  1.00  0.00     0.125 C 
BRANCH  25  28
HETATM   28  N4  UNL     1      28.055   5.599  48.457  1.00  0.00     0.083 N 
HETATM   29  H20 UNL     1      27.793   6.203  47.667  1.00  0.00     0.313 HD
HETATM   30  H21 UNL     1      28.741   6.023  49.092  1.00  0.00     0.313 HD
ENDBRANCH  25  28
ENDBRANCH   5  22
TORSDOF 8
ENDMDL
