MODEL 1
REMARK VINA RESULT:      -8.3      0.000      0.000
REMARK  5 active torsions:
REMARK  status: ('A' for Active; 'I' for Inactive)
REMARK    1  A    between atoms: C6_6  and  C7_7 
REMARK    2  A    between atoms: C7_7  and  O1_8 
REMARK    3  A    between atoms: O1_8  and  C8_9 
REMARK    4  A    between atoms: C11_12  and  N1_13 
REMARK    5  A    between atoms: N1_13  and  C12_14 
ROOT
HETATM    1  C8  UNL     1      22.999  -0.381  53.138  1.00  0.00     0.091 A 
HETATM    2  C9  UNL     1      22.114   0.040  52.167  1.00  0.00     0.041 A 
HETATM    3  C10 UNL     1      20.770  -0.069  52.445  1.00  0.00     0.032 A 
HETATM    4  C11 UNL     1      20.205  -0.560  53.600  1.00  0.00     0.035 A 
HETATM    5  C16 UNL     1      21.156  -0.965  54.535  1.00  0.00     0.056 A 
HETATM    6  C17 UNL     1      22.508  -0.883  54.323  1.00  0.00     0.069 A 
HETATM    7 CL1  UNL     1      23.551  -1.441  55.611  1.00  0.00    -0.081 Cl
ENDROOT
BRANCH   1   8
HETATM    8  O1  UNL     1      24.379  -0.354  53.051  1.00  0.00    -0.345 OA
BRANCH   8   9
HETATM    9  C7  UNL     1      25.101   0.849  52.857  1.00  0.00     0.214 C 
BRANCH   9  10
HETATM   10  C6  UNL     1      26.537   0.473  53.124  1.00  0.00    -0.034 A 
HETATM   11  C5  UNL     1      27.323   1.566  53.508  1.00  0.00     0.009 A 
HETATM   12  C4  UNL     1      28.664   1.392  53.785  1.00  0.00     0.001 A 
HETATM   13  C3  UNL     1      29.182   0.119  53.667  1.00  0.00     0.007 A 
HETATM   14  C2  UNL     1      28.388  -0.945  53.287  1.00  0.00    -0.061 A 
HETATM   15  C1  UNL     1      28.993  -2.306  53.170  1.00  0.00     0.048 C 
HETATM   16  C18 UNL     1      27.054  -0.795  53.007  1.00  0.00     0.016 A 
ENDBRANCH   9  10
ENDBRANCH   8   9
ENDBRANCH   1   8
BRANCH   4  17
HETATM   17  N1  UNL     1      18.821  -0.669  53.815  1.00  0.00    -0.341 N 
HETATM   18  H11 UNL     1      18.499   0.194  54.334  1.00  0.00     0.167 HD
BRANCH  17  19
HETATM   19  C12 UNL     1      17.862  -1.643  53.486  1.00  0.00     0.130 A 
HETATM   20  C13 UNL     1      17.925  -2.966  53.836  1.00  0.00     0.070 A 
HETATM   21  C14 UNL     1      16.976  -3.933  53.491  1.00  0.00     0.122 A 
HETATM   22  N2  UNL     1      15.934  -3.456  52.751  1.00  0.00    -0.254 NA
HETATM   23  C15 UNL     1      15.866  -2.159  52.406  1.00  0.00     0.234 A 
HETATM   24  N3  UNL     1      16.802  -1.255  52.757  1.00  0.00    -0.225 NA
ENDBRANCH  17  19
ENDBRANCH   4  17
TORSDOF 5
ENDMDL
MODEL 2
REMARK VINA RESULT:      -8.1      3.681      9.061
REMARK  5 active torsions:
REMARK  status: ('A' for Active; 'I' for Inactive)
REMARK    1  A    between atoms: C6_6  and  C7_7 
REMARK    2  A    between atoms: C7_7  and  O1_8 
REMARK    3  A    between atoms: O1_8  and  C8_9 
REMARK    4  A    between atoms: C11_12  and  N1_13 
REMARK    5  A    between atoms: N1_13  and  C12_14 
ROOT
HETATM    1  C8  UNL     1      21.796   0.643  52.884  1.00  0.00     0.091 A 
HETATM    2  C9  UNL     1      22.480   1.507  52.054  1.00  0.00     0.041 A 
HETATM    3  C10 UNL     1      23.841   1.331  51.942  1.00  0.00     0.032 A 
HETATM    4  C11 UNL     1      24.603   0.377  52.575  1.00  0.00     0.035 A 
HETATM    5  C16 UNL     1      23.848  -0.460  53.394  1.00  0.00     0.056 A 
HETATM    6  C17 UNL     1      22.491  -0.341  53.551  1.00  0.00     0.069 A 
HETATM    7 CL1  UNL     1      21.710  -1.480  54.623  1.00  0.00    -0.081 Cl
ENDROOT
BRANCH   1   8
HETATM    8  O1  UNL     1      20.434   0.656  53.130  1.00  0.00    -0.345 OA
BRANCH   8   9
HETATM    9  C7  UNL     1      19.490   1.012  52.135  1.00  0.00     0.214 C 
BRANCH   9  10
HETATM   10  C6  UNL     1      18.415  -0.041  52.244  1.00  0.00    -0.034 A 
HETATM   11  C5  UNL     1      17.285   0.255  51.473  1.00  0.00     0.009 A 
HETATM   12  C4  UNL     1      16.207  -0.606  51.465  1.00  0.00     0.001 A 
HETATM   13  C3  UNL     1      16.293  -1.747  52.235  1.00  0.00     0.007 A 
HETATM   14  C2  UNL     1      17.418  -2.020  52.988  1.00  0.00    -0.061 A 
HETATM   15  C1  UNL     1      17.467  -3.267  53.809  1.00  0.00     0.048 C 
HETATM   16  C18 UNL     1      18.501  -1.178  53.011  1.00  0.00     0.016 A 
ENDBRANCH   9  10
ENDBRANCH   8   9
ENDBRANCH   1   8
BRANCH   4  17
HETATM   17  N1  UNL     1      25.997   0.263  52.438  1.00  0.00    -0.341 N 
HETATM   18  H11 UNL     1      26.198  -0.336  51.591  1.00  0.00     0.167 HD
BRANCH  17  19
HETATM   19  C12 UNL     1      27.087   0.767  53.168  1.00  0.00     0.130 A 
HETATM   20  C13 UNL     1      27.661   1.998  52.987  1.00  0.00     0.070 A 
HETATM   21  C14 UNL     1      28.756   2.486  53.706  1.00  0.00     0.122 A 
HETATM   22  N2  UNL     1      29.241   1.622  54.643  1.00  0.00    -0.254 NA
HETATM   23  C15 UNL     1      28.682   0.414  54.827  1.00  0.00     0.234 A 
HETATM   24  N3  UNL     1      27.626  -0.022  54.112  1.00  0.00    -0.225 NA
ENDBRANCH  17  19
ENDBRANCH   4  17
TORSDOF 5
ENDMDL
MODEL 3
REMARK VINA RESULT:      -8.0      3.927      8.925
REMARK  5 active torsions:
REMARK  status: ('A' for Active; 'I' for Inactive)
REMARK    1  A    between atoms: C6_6  and  C7_7 
REMARK    2  A    between atoms: C7_7  and  O1_8 
REMARK    3  A    between atoms: O1_8  and  C8_9 
REMARK    4  A    between atoms: C11_12  and  N1_13 
REMARK    5  A    between atoms: N1_13  and  C12_14 
ROOT
HETATM    1  C8  UNL     1      22.474   0.784  52.890  1.00  0.00     0.091 A 
HETATM    2  C9  UNL     1      23.625   1.126  52.211  1.00  0.00     0.041 A 
HETATM    3  C10 UNL     1      24.792   0.499  52.588  1.00  0.00     0.032 A 
HETATM    4  C11 UNL     1      24.938  -0.443  53.581  1.00  0.00     0.035 A 
HETATM    5  C16 UNL     1      23.736  -0.740  54.222  1.00  0.00     0.056 A 
HETATM    6  C17 UNL     1      22.540  -0.154  53.897  1.00  0.00     0.069 A 
HETATM    7 CL1  UNL     1      21.136  -0.650  54.812  1.00  0.00    -0.081 Cl
ENDROOT
BRANCH   1   8
HETATM    8  O1  UNL     1      21.210   1.299  52.663  1.00  0.00    -0.345 OA
BRANCH   8   9
HETATM    9  C7  UNL     1      20.707   1.519  51.357  1.00  0.00     0.214 C 
BRANCH   9  10
HETATM   10  C6  UNL     1      19.417   0.739  51.314  1.00  0.00    -0.034 A 
HETATM   11  C5  UNL     1      18.675   0.980  50.152  1.00  0.00     0.009 A 
HETATM   12  C4  UNL     1      17.465   0.346  49.960  1.00  0.00     0.001 A 
HETATM   13  C3  UNL     1      17.030  -0.518  50.944  1.00  0.00     0.007 A 
HETATM   14  C2  UNL     1      17.780  -0.742  52.082  1.00  0.00    -0.061 A 
HETATM   15  C1  UNL     1      17.269  -1.684  53.123  1.00  0.00     0.048 C 
HETATM   16  C18 UNL     1      18.985  -0.122  52.294  1.00  0.00     0.016 A 
ENDBRANCH   9  10
ENDBRANCH   8   9
ENDBRANCH   1   8
BRANCH   4  17
HETATM   17  N1  UNL     1      26.164  -1.030  53.936  1.00  0.00    -0.341 N 
HETATM   18  H11 UNL     1      25.966  -1.984  54.345  1.00  0.00     0.167 HD
BRANCH  17  19
HETATM   19  C12 UNL     1      27.502  -0.609  53.848  1.00  0.00     0.130 A 
HETATM   20  C13 UNL     1      27.949   0.664  54.086  1.00  0.00     0.070 A 
HETATM   21  C14 UNL     1      29.280   1.079  53.980  1.00  0.00     0.122 A 
HETATM   22  N2  UNL     1      30.146   0.093  53.608  1.00  0.00    -0.254 NA
HETATM   23  C15 UNL     1      29.714  -1.157  53.375  1.00  0.00     0.234 A 
HETATM   24  N3  UNL     1      28.421  -1.520  53.487  1.00  0.00    -0.225 NA
ENDBRANCH  17  19
ENDBRANCH   4  17
TORSDOF 5
ENDMDL
MODEL 4
REMARK VINA RESULT:      -7.9      1.658      2.534
REMARK  5 active torsions:
REMARK  status: ('A' for Active; 'I' for Inactive)
REMARK    1  A    between atoms: C6_6  and  C7_7 
REMARK    2  A    between atoms: C7_7  and  O1_8 
REMARK    3  A    between atoms: O1_8  and  C8_9 
REMARK    4  A    between atoms: C11_12  and  N1_13 
REMARK    5  A    between atoms: N1_13  and  C12_14 
ROOT
HETATM    1  C8  UNL     1      23.601  -0.285  53.741  1.00  0.00     0.091 A 
HETATM    2  C9  UNL     1      22.996  -1.307  54.441  1.00  0.00     0.041 A 
HETATM    3  C10 UNL     1      21.619  -1.332  54.461  1.00  0.00     0.032 A 
HETATM    4  C11 UNL     1      20.770  -0.438  53.851  1.00  0.00     0.035 A 
HETATM    5  C16 UNL     1      21.449   0.566  53.162  1.00  0.00     0.056 A 
HETATM    6  C17 UNL     1      22.816   0.650  53.102  1.00  0.00     0.069 A 
HETATM    7 CL1  UNL     1      23.492   1.981  52.192  1.00  0.00    -0.081 Cl
ENDROOT
BRANCH   1   8
HETATM    8  O1  UNL     1      24.963  -0.085  53.603  1.00  0.00    -0.345 OA
BRANCH   8   9
HETATM    9  C7  UNL     1      25.763  -0.892  52.757  1.00  0.00     0.214 C 
BRANCH   9  10
HETATM   10  C6  UNL     1      27.180  -0.504  53.098  1.00  0.00    -0.034 A 
HETATM   11  C5  UNL     1      28.068  -1.585  53.042  1.00  0.00     0.009 A 
HETATM   12  C4  UNL     1      29.404  -1.399  53.332  1.00  0.00     0.001 A 
HETATM   13  C3  UNL     1      29.816  -0.127  53.672  1.00  0.00     0.007 A 
HETATM   14  C2  UNL     1      28.922   0.926  53.720  1.00  0.00    -0.061 A 
HETATM   15  C1  UNL     1      29.412   2.286  54.096  1.00  0.00     0.048 C 
HETATM   16  C18 UNL     1      27.590   0.763  53.437  1.00  0.00     0.016 A 
ENDBRANCH   9  10
ENDBRANCH   8   9
ENDBRANCH   1   8
BRANCH   4  17
HETATM   17  N1  UNL     1      19.368  -0.503  53.928  1.00  0.00    -0.341 N 
HETATM   18  H11 UNL     1      19.092  -0.457  54.947  1.00  0.00     0.167 HD
BRANCH  17  19
HETATM   19  C12 UNL     1      18.348  -0.609  52.968  1.00  0.00     0.130 A 
HETATM   20  C13 UNL     1      18.446  -0.209  51.660  1.00  0.00     0.070 A 
HETATM   21  C14 UNL     1      17.421  -0.302  50.715  1.00  0.00     0.122 A 
HETATM   22  N2  UNL     1      16.264  -0.841  51.194  1.00  0.00    -0.254 NA
HETATM   23  C15 UNL     1      16.162  -1.237  52.473  1.00  0.00     0.234 A 
HETATM   24  N3  UNL     1      17.173  -1.131  53.358  1.00  0.00    -0.225 NA
ENDBRANCH  17  19
ENDBRANCH   4  17
TORSDOF 5
ENDMDL
MODEL 5
REMARK VINA RESULT:      -7.9      3.828      9.173
REMARK  5 active torsions:
REMARK  status: ('A' for Active; 'I' for Inactive)
REMARK    1  A    between atoms: C6_6  and  C7_7 
REMARK    2  A    between atoms: C7_7  and  O1_8 
REMARK    3  A    between atoms: O1_8  and  C8_9 
REMARK    4  A    between atoms: C11_12  and  N1_13 
REMARK    5  A    between atoms: N1_13  and  C12_14 
ROOT
HETATM    1  C8  UNL     1      22.287  -0.231  52.996  1.00  0.00     0.091 A 
HETATM    2  C9  UNL     1      22.455  -1.016  54.119  1.00  0.00     0.041 A 
HETATM    3  C10 UNL     1      23.706  -1.038  54.694  1.00  0.00     0.032 A 
HETATM    4  C11 UNL     1      24.821  -0.355  54.267  1.00  0.00     0.035 A 
HETATM    5  C16 UNL     1      24.579   0.416  53.132  1.00  0.00     0.056 A 
HETATM    6  C17 UNL     1      23.360   0.484  52.509  1.00  0.00     0.069 A 
HETATM    7 CL1  UNL     1      23.243   1.503  51.094  1.00  0.00    -0.081 Cl
ENDROOT
BRANCH   1   8
HETATM    8  O1  UNL     1      21.116  -0.077  52.277  1.00  0.00    -0.345 OA
BRANCH   8   9
HETATM    9  C7  UNL     1      20.042   0.720  52.744  1.00  0.00     0.214 C 
BRANCH   9  10
HETATM   10  C6  UNL     1      18.826  -0.160  52.591  1.00  0.00    -0.034 A 
HETATM   11  C5  UNL     1      18.813  -1.230  53.493  1.00  0.00     0.009 A 
HETATM   12  C4  UNL     1      17.770  -2.133  53.481  1.00  0.00     0.001 A 
HETATM   13  C3  UNL     1      16.763  -1.938  52.558  1.00  0.00     0.007 A 
HETATM   14  C2  UNL     1      16.797  -0.874  51.677  1.00  0.00    -0.061 A 
HETATM   15  C1  UNL     1      15.686  -0.703  50.693  1.00  0.00     0.048 C 
HETATM   16  C18 UNL     1      17.824   0.035  51.671  1.00  0.00     0.016 A 
ENDBRANCH   9  10
ENDBRANCH   8   9
ENDBRANCH   1   8
BRANCH   4  17
HETATM   17  N1  UNL     1      26.080  -0.438  54.885  1.00  0.00    -0.341 N 
HETATM   18  H11 UNL     1      25.933  -0.694  55.900  1.00  0.00     0.167 HD
BRANCH  17  19
HETATM   19  C12 UNL     1      27.398  -0.259  54.430  1.00  0.00     0.130 A 
HETATM   20  C13 UNL     1      28.119   0.903  54.529  1.00  0.00     0.070 A 
HETATM   21  C14 UNL     1      29.423   1.079  54.058  1.00  0.00     0.122 A 
HETATM   22  N2  UNL     1      29.960  -0.027  53.468  1.00  0.00    -0.254 NA
HETATM   23  C15 UNL     1      29.259  -1.169  53.369  1.00  0.00     0.234 A 
HETATM   24  N3  UNL     1      28.001  -1.301  53.835  1.00  0.00    -0.225 NA
ENDBRANCH  17  19
ENDBRANCH   4  17
TORSDOF 5
ENDMDL
MODEL 6
REMARK VINA RESULT:      -7.6      1.506      1.796
REMARK  5 active torsions:
REMARK  status: ('A' for Active; 'I' for Inactive)
REMARK    1  A    between atoms: C6_6  and  C7_7 
REMARK    2  A    between atoms: C7_7  and  O1_8 
REMARK    3  A    between atoms: O1_8  and  C8_9 
REMARK    4  A    between atoms: C11_12  and  N1_13 
REMARK    5  A    between atoms: N1_13  and  C12_14 
ROOT
HETATM    1  C8  UNL     1      22.558   0.168  52.539  1.00  0.00     0.091 A 
HETATM    2  C9  UNL     1      22.443  -0.763  53.550  1.00  0.00     0.041 A 
HETATM    3  C10 UNL     1      21.172  -1.096  53.963  1.00  0.00     0.032 A 
HETATM    4  C11 UNL     1      19.989  -0.595  53.472  1.00  0.00     0.035 A 
HETATM    5  C16 UNL     1      20.180   0.338  52.454  1.00  0.00     0.056 A 
HETATM    6  C17 UNL     1      21.416   0.714  51.995  1.00  0.00     0.069 A 
HETATM    7 CL1  UNL     1      21.462   1.900  50.711  1.00  0.00    -0.081 Cl
ENDROOT
BRANCH   1   8
HETATM    8  O1  UNL     1      23.739   0.633  51.988  1.00  0.00    -0.345 OA
BRANCH   8   9
HETATM    9  C7  UNL     1      24.566   1.570  52.654  1.00  0.00     0.214 C 
BRANCH   9  10
HETATM   10  C6  UNL     1      25.858   0.828  52.893  1.00  0.00    -0.034 A 
HETATM   11  C5  UNL     1      26.861   1.643  53.430  1.00  0.00     0.009 A 
HETATM   12  C4  UNL     1      28.107   1.117  53.703  1.00  0.00     0.001 A 
HETATM   13  C3  UNL     1      28.314  -0.218  53.428  1.00  0.00     0.007 A 
HETATM   14  C2  UNL     1      27.309  -1.004  52.898  1.00  0.00    -0.061 A 
HETATM   15  C1  UNL     1      27.579  -2.446  52.613  1.00  0.00     0.048 C 
HETATM   16  C18 UNL     1      26.064  -0.503  52.618  1.00  0.00     0.016 A 
ENDBRANCH   9  10
ENDBRANCH   8   9
ENDBRANCH   1   8
BRANCH   4  17
HETATM   17  N1  UNL     1      18.720  -0.957  53.954  1.00  0.00    -0.341 N 
HETATM   18  H11 UNL     1      18.572  -0.480  54.885  1.00  0.00     0.167 HD
BRANCH  17  19
HETATM   19  C12 UNL     1      17.691  -1.775  53.456  1.00  0.00     0.130 A 
HETATM   20  C13 UNL     1      17.567  -3.120  53.686  1.00  0.00     0.070 A 
HETATM   21  C14 UNL     1      16.550  -3.931  53.173  1.00  0.00     0.122 A 
HETATM   22  N2  UNL     1      15.646  -3.270  52.394  1.00  0.00    -0.254 NA
HETATM   23  C15 UNL     1      15.761  -1.952  52.166  1.00  0.00     0.234 A 
HETATM   24  N3  UNL     1      16.758  -1.202  52.678  1.00  0.00    -0.225 NA
ENDBRANCH  17  19
ENDBRANCH   4  17
TORSDOF 5
ENDMDL
MODEL 7
REMARK VINA RESULT:      -7.6      5.040      8.397
REMARK  5 active torsions:
REMARK  status: ('A' for Active; 'I' for Inactive)
REMARK    1  A    between atoms: C6_6  and  C7_7 
REMARK    2  A    between atoms: C7_7  and  O1_8 
REMARK    3  A    between atoms: O1_8  and  C8_9 
REMARK    4  A    between atoms: C11_12  and  N1_13 
REMARK    5  A    between atoms: N1_13  and  C12_14 
ROOT
HETATM    1  C8  UNL     1      24.687   3.742  51.394  1.00  0.00     0.091 A 
HETATM    2  C9  UNL     1      24.190   3.525  52.662  1.00  0.00     0.041 A 
HETATM    3  C10 UNL     1      24.816   2.570  53.432  1.00  0.00     0.032 A 
HETATM    4  C11 UNL     1      25.896   1.798  53.071  1.00  0.00     0.035 A 
HETATM    5  C16 UNL     1      26.345   2.071  51.780  1.00  0.00     0.056 A 
HETATM    6  C17 UNL     1      25.770   3.007  50.961  1.00  0.00     0.069 A 
HETATM    7 CL1  UNL     1      26.468   3.212  49.371  1.00  0.00    -0.081 Cl
ENDROOT
BRANCH   1   8
HETATM    8  O1  UNL     1      24.201   4.651  50.472  1.00  0.00    -0.345 OA
BRANCH   8   9
HETATM    9  C7  UNL     1      22.813   4.856  50.273  1.00  0.00     0.214 C 
BRANCH   9  10
HETATM   10  C6  UNL     1      22.306   3.530  49.765  1.00  0.00    -0.034 A 
HETATM   11  C5  UNL     1      22.817   3.198  48.505  1.00  0.00     0.009 A 
HETATM   12  C4  UNL     1      22.448   2.017  47.896  1.00  0.00     0.001 A 
HETATM   13  C3  UNL     1      21.570   1.194  48.572  1.00  0.00     0.007 A 
HETATM   14  C2  UNL     1      21.078   1.541  49.816  1.00  0.00    -0.061 A 
HETATM   15  C1  UNL     1      20.127   0.621  50.510  1.00  0.00     0.048 C 
HETATM   16  C18 UNL     1      21.432   2.711  50.439  1.00  0.00     0.016 A 
ENDBRANCH   9  10
ENDBRANCH   8   9
ENDBRANCH   1   8
BRANCH   4  17
HETATM   17  N1  UNL     1      26.476   0.820  53.896  1.00  0.00    -0.341 N 
HETATM   18  H11 UNL     1      26.155   0.992  54.888  1.00  0.00     0.167 HD
BRANCH  17  19
HETATM   19  C12 UNL     1      27.339  -0.264  53.656  1.00  0.00     0.130 A 
HETATM   20  C13 UNL     1      28.695  -0.254  53.848  1.00  0.00     0.070 A 
HETATM   21  C14 UNL     1      29.549  -1.331  53.591  1.00  0.00     0.122 A 
HETATM   22  N2  UNL     1      28.920  -2.444  53.115  1.00  0.00    -0.254 NA
HETATM   23  C15 UNL     1      27.590  -2.460  52.926  1.00  0.00     0.234 A 
HETATM   24  N3  UNL     1      26.798  -1.400  53.185  1.00  0.00    -0.225 NA
ENDBRANCH  17  19
ENDBRANCH   4  17
TORSDOF 5
ENDMDL
MODEL 8
REMARK VINA RESULT:      -7.6      6.747      9.992
REMARK  5 active torsions:
REMARK  status: ('A' for Active; 'I' for Inactive)
REMARK    1  A    between atoms: C6_6  and  C7_7 
REMARK    2  A    between atoms: C7_7  and  O1_8 
REMARK    3  A    between atoms: O1_8  and  C8_9 
REMARK    4  A    between atoms: C11_12  and  N1_13 
REMARK    5  A    between atoms: N1_13  and  C12_14 
ROOT
HETATM    1  C8  UNL     1      25.303   3.283  50.939  1.00  0.00     0.091 A 
HETATM    2  C9  UNL     1      26.404   2.979  50.165  1.00  0.00     0.041 A 
HETATM    3  C10 UNL     1      26.889   3.968  49.338  1.00  0.00     0.032 A 
HETATM    4  C11 UNL     1      26.389   5.242  49.197  1.00  0.00     0.035 A 
HETATM    5  C16 UNL     1      25.281   5.479  50.008  1.00  0.00     0.056 A 
HETATM    6  C17 UNL     1      24.747   4.541  50.853  1.00  0.00     0.069 A 
HETATM    7 CL1  UNL     1      23.353   5.017  51.794  1.00  0.00    -0.081 Cl
ENDROOT
BRANCH   1   8
HETATM    8  O1  UNL     1      24.670   2.432  51.827  1.00  0.00    -0.345 OA
BRANCH   8   9
HETATM    9  C7  UNL     1      25.087   2.299  53.174  1.00  0.00     0.214 C 
BRANCH   9  10
HETATM   10  C6  UNL     1      26.082   1.165  53.150  1.00  0.00    -0.034 A 
HETATM   11  C5  UNL     1      25.498  -0.062  52.815  1.00  0.00     0.009 A 
HETATM   12  C4  UNL     1      26.272  -1.203  52.753  1.00  0.00     0.001 A 
HETATM   13  C3  UNL     1      27.617  -1.081  53.030  1.00  0.00     0.007 A 
HETATM   14  C2  UNL     1      28.172   0.140  53.359  1.00  0.00    -0.061 A 
HETATM   15  C1  UNL     1      29.634   0.225  53.655  1.00  0.00     0.048 C 
HETATM   16  C18 UNL     1      27.422   1.287  53.427  1.00  0.00     0.016 A 
ENDBRANCH   9  10
ENDBRANCH   8   9
ENDBRANCH   1   8
BRANCH   4  17
HETATM   17  N1  UNL     1      26.915   6.201  48.316  1.00  0.00    -0.341 N 
HETATM   18  H11 UNL     1      26.319   6.209  47.443  1.00  0.00     0.167 HD
BRANCH  17  19
HETATM   19  C12 UNL     1      28.006   7.085  48.383  1.00  0.00     0.130 A 
HETATM   20  C13 UNL     1      29.235   6.872  47.815  1.00  0.00     0.070 A 
HETATM   21  C14 UNL     1      30.320   7.748  47.901  1.00  0.00     0.122 A 
HETATM   22  N2  UNL     1      30.070   8.882  48.617  1.00  0.00    -0.254 NA
HETATM   23  C15 UNL     1      28.867   9.098  49.174  1.00  0.00     0.234 A 
HETATM   24  N3  UNL     1      27.843   8.228  49.070  1.00  0.00    -0.225 NA
ENDBRANCH  17  19
ENDBRANCH   4  17
TORSDOF 5
ENDMDL
MODEL 9
REMARK VINA RESULT:      -7.5      6.308      9.804
REMARK  5 active torsions:
REMARK  status: ('A' for Active; 'I' for Inactive)
REMARK    1  A    between atoms: C6_6  and  C7_7 
REMARK    2  A    between atoms: C7_7  and  O1_8 
REMARK    3  A    between atoms: O1_8  and  C8_9 
REMARK    4  A    between atoms: C11_12  and  N1_13 
REMARK    5  A    between atoms: N1_13  and  C12_14 
ROOT
HETATM    1  C8  UNL     1      25.197   2.590  50.867  1.00  0.00     0.091 A 
HETATM    2  C9  UNL     1      26.382   2.694  50.170  1.00  0.00     0.041 A 
HETATM    3  C10 UNL     1      26.631   3.882  49.519  1.00  0.00     0.032 A 
HETATM    4  C11 UNL     1      25.817   4.990  49.488  1.00  0.00     0.035 A 
HETATM    5  C16 UNL     1      24.639   4.815  50.213  1.00  0.00     0.056 A 
HETATM    6  C17 UNL     1      24.329   3.660  50.883  1.00  0.00     0.069 A 
HETATM    7 CL1  UNL     1      22.805   3.621  51.738  1.00  0.00    -0.081 Cl
ENDROOT
BRANCH   1   8
HETATM    8  O1  UNL     1      24.765   1.486  51.581  1.00  0.00    -0.345 OA
BRANCH   8   9
HETATM    9  C7  UNL     1      25.526   0.922  52.634  1.00  0.00     0.214 C 
BRANCH   9  10
HETATM   10  C6  UNL     1      24.510   0.209  53.492  1.00  0.00    -0.034 A 
HETATM   11  C5  UNL     1      25.098  -0.597  54.474  1.00  0.00     0.009 A 
HETATM   12  C4  UNL     1      24.306  -1.322  55.340  1.00  0.00     0.001 A 
HETATM   13  C3  UNL     1      22.938  -1.217  55.198  1.00  0.00     0.007 A 
HETATM   14  C2  UNL     1      22.379  -0.415  54.221  1.00  0.00    -0.061 A 
HETATM   15  C1  UNL     1      20.892  -0.334  54.101  1.00  0.00     0.048 C 
HETATM   16  C18 UNL     1      23.148   0.313  53.349  1.00  0.00     0.016 A 
ENDBRANCH   9  10
ENDBRANCH   8   9
ENDBRANCH   1   8
BRANCH   4  17
HETATM   17  N1  UNL     1      26.117   6.169  48.783  1.00  0.00    -0.341 N 
HETATM   18  H11 UNL     1      25.554   6.170  47.889  1.00  0.00     0.167 HD
BRANCH  17  19
HETATM   19  C12 UNL     1      26.963   7.261  49.037  1.00  0.00     0.130 A 
HETATM   20  C13 UNL     1      28.185   7.470  48.451  1.00  0.00     0.070 A 
HETATM   21  C14 UNL     1      29.029   8.551  48.722  1.00  0.00     0.122 A 
HETATM   22  N2  UNL     1      28.540   9.426  49.647  1.00  0.00    -0.254 NA
HETATM   23  C15 UNL     1      27.343   9.228  50.223  1.00  0.00     0.234 A 
HETATM   24  N3  UNL     1      26.556   8.172  49.937  1.00  0.00    -0.225 NA
ENDBRANCH  17  19
ENDBRANCH   4  17
TORSDOF 5
ENDMDL
