MODEL 1
REMARK VINA RESULT:      -8.0      0.000      0.000
REMARK  7 active torsions:
REMARK  status: ('A' for Active; 'I' for Inactive)
REMARK    1  A    between atoms: O1_2  and  C2_3 
REMARK    2  A    between atoms: C5_6  and  O2_7 
REMARK    3  A    between atoms: C7_9  and  C8_10 
REMARK    4  A    between atoms: C8_10  and  C9_11 
REMARK    5  A    between atoms: C12_14  and  N1_15 
REMARK    6  A    between atoms: C12_14  and  N2_16 
REMARK    7  A    between atoms: N2_16  and  C13_17 
ROOT
HETATM    1  C9  UNL     1      23.540   3.039  51.461  1.00  0.00     0.033 A 
HETATM    2  C10 UNL     1      23.807   4.320  51.703  1.00  0.00     0.043 A 
HETATM    3  C11 UNL     1      24.152   5.178  50.583  1.00  0.00     0.023 A 
HETATM    4  C12 UNL     1      24.422   6.453  50.789  1.00  0.00     0.090 C 
HETATM    5  C19 UNL     1      24.192   4.610  49.243  1.00  0.00     0.153 A 
HETATM    6  N3  UNL     1      23.916   3.349  49.110  1.00  0.00    -0.186 NA
HETATM    7  N4  UNL     1      23.582   2.498  50.155  1.00  0.00    -0.282 N 
HETATM    8  H20 UNL     1      23.380   1.501  49.923  1.00  0.00     0.189 HD
ENDROOT
BRANCH   4   9
HETATM    9  N1  UNL     1      24.383   7.011  52.095  1.00  0.00    -0.288 NA
HETATM   10  H12 UNL     1      24.696   6.876  53.081  1.00  0.00     0.125 HD
HETATM   11  H13 UNL     1      24.716   6.838  53.067  1.00  0.00     0.125 HD
ENDBRANCH   4   9
BRANCH   4  12
HETATM   12  N2  UNL     1      24.765   7.340  49.732  1.00  0.00    -0.346 N 
HETATM   13  H14 UNL     1      24.197   7.815  49.001  1.00  0.00     0.167 HD
BRANCH  12  14
HETATM   14  C13 UNL     1      26.098   7.753  49.494  1.00  0.00     0.034 A 
HETATM   15  C14 UNL     1      26.448   8.950  50.067  1.00  0.00     0.029 A 
HETATM   16  C15 UNL     1      27.707   9.494  49.934  1.00  0.00     0.004 A 
HETATM   17  C16 UNL     1      28.696   8.837  49.196  1.00  0.00     0.019 A 
HETATM   18  C17 UNL     1      28.321   7.626  48.625  1.00  0.00     0.013 A 
HETATM   19 BR1  UNL     1      29.613   6.661  47.598  1.00  0.00    -0.051 Br
HETATM   20  C18 UNL     1      27.053   7.098  48.771  1.00  0.00     0.048 A 
ENDBRANCH  12  14
ENDBRANCH   4  12
BRANCH   1  21
HETATM   21  C8  UNL     1      23.194   2.188  52.602  1.00  0.00     0.100 C 
BRANCH  21  22
HETATM   22  C7  UNL     1      24.301   1.394  53.151  1.00  0.00    -0.017 A 
HETATM   23  C5  UNL     1      24.184   0.039  53.383  1.00  0.00     0.075 A 
HETATM   24  C4  UNL     1      25.240  -0.681  53.900  1.00  0.00     0.040 A 
HETATM   25  C3  UNL     1      26.446  -0.083  54.204  1.00  0.00     0.039 A 
HETATM   26  C2  UNL     1      26.582   1.271  53.979  1.00  0.00     0.068 A 
HETATM   27  C20 UNL     1      25.520   2.008  53.456  1.00  0.00     0.047 A 
BRANCH  23  28
HETATM   28  O2  UNL     1      22.957  -0.517  53.063  1.00  0.00    -0.355 OA
HETATM   29  C6  UNL     1      22.133  -1.230  53.935  1.00  0.00     0.210 C 
ENDBRANCH  23  28
BRANCH  26  30
HETATM   30  O1  UNL     1      27.747   2.014  54.239  1.00  0.00    -0.356 OA
HETATM   31  C1  UNL     1      29.042   1.476  54.211  1.00  0.00     0.210 C 
ENDBRANCH  26  30
ENDBRANCH  21  22
ENDBRANCH   1  21
TORSDOF 7
ENDMDL
MODEL 2
REMARK VINA RESULT:      -7.9      2.048      2.880
REMARK  7 active torsions:
REMARK  status: ('A' for Active; 'I' for Inactive)
REMARK    1  A    between atoms: O1_2  and  C2_3 
REMARK    2  A    between atoms: C5_6  and  O2_7 
REMARK    3  A    between atoms: C7_9  and  C8_10 
REMARK    4  A    between atoms: C8_10  and  C9_11 
REMARK    5  A    between atoms: C12_14  and  N1_15 
REMARK    6  A    between atoms: C12_14  and  N2_16 
REMARK    7  A    between atoms: N2_16  and  C13_17 
ROOT
HETATM    1  C9  UNL     1      22.834   2.253  51.524  1.00  0.00     0.033 A 
HETATM    2  C10 UNL     1      23.932   2.610  50.862  1.00  0.00     0.043 A 
HETATM    3  C11 UNL     1      24.350   4.000  50.914  1.00  0.00     0.023 A 
HETATM    4  C12 UNL     1      25.433   4.386  50.268  1.00  0.00     0.090 C 
HETATM    5  C19 UNL     1      23.558   4.948  51.685  1.00  0.00     0.153 A 
HETATM    6  N3  UNL     1      22.504   4.502  52.296  1.00  0.00    -0.186 NA
HETATM    7  N4  UNL     1      22.073   3.183  52.271  1.00  0.00    -0.282 N 
HETATM    8  H20 UNL     1      21.208   2.944  52.802  1.00  0.00     0.189 HD
ENDROOT
BRANCH   4   9
HETATM    9  N1  UNL     1      26.208   3.464  49.515  1.00  0.00    -0.288 NA
HETATM   10  H12 UNL     1      26.161   2.711  48.795  1.00  0.00     0.125 HD
HETATM   11  H13 UNL     1      26.116   2.718  48.795  1.00  0.00     0.125 HD
ENDBRANCH   4   9
BRANCH   4  12
HETATM   12  N2  UNL     1      25.890   5.733  50.284  1.00  0.00    -0.346 N 
HETATM   13  H14 UNL     1      26.177   6.369  51.055  1.00  0.00     0.167 HD
BRANCH  12  14
HETATM   14  C13 UNL     1      26.038   6.495  49.099  1.00  0.00     0.034 A 
HETATM   15  C14 UNL     1      24.866   6.951  48.550  1.00  0.00     0.029 A 
HETATM   16  C15 UNL     1      24.832   7.707  47.399  1.00  0.00     0.004 A 
HETATM   17  C16 UNL     1      26.013   8.047  46.731  1.00  0.00     0.019 A 
HETATM   18  C17 UNL     1      27.189   7.576  47.304  1.00  0.00     0.013 A 
HETATM   19 BR1  UNL     1      28.851   7.993  46.457  1.00  0.00    -0.051 Br
HETATM   20  C18 UNL     1      27.200   6.819  48.460  1.00  0.00     0.048 A 
ENDBRANCH  12  14
ENDBRANCH   4  12
BRANCH   1  21
HETATM   21  C8  UNL     1      22.427   0.847  51.462  1.00  0.00     0.100 C 
BRANCH  21  22
HETATM   22  C7  UNL     1      22.547   0.103  52.723  1.00  0.00    -0.017 A 
HETATM   23  C5  UNL     1      21.443  -0.399  53.381  1.00  0.00     0.075 A 
HETATM   24  C4  UNL     1      21.585  -1.092  54.565  1.00  0.00     0.040 A 
HETATM   25  C3  UNL     1      22.823  -1.312  55.133  1.00  0.00     0.039 A 
HETATM   26  C2  UNL     1      23.938  -0.818  54.488  1.00  0.00     0.068 A 
HETATM   27  C20 UNL     1      23.805  -0.115  53.291  1.00  0.00     0.047 A 
BRANCH  23  28
HETATM   28  O2  UNL     1      20.223  -0.155  52.774  1.00  0.00    -0.355 OA
HETATM   29  C6  UNL     1      18.994  -0.683  53.174  1.00  0.00     0.210 C 
ENDBRANCH  23  28
BRANCH  26  30
HETATM   30  O1  UNL     1      25.259  -0.963  54.947  1.00  0.00    -0.356 OA
HETATM   31  C1  UNL     1      26.304  -0.086  54.620  1.00  0.00     0.210 C 
ENDBRANCH  26  30
ENDBRANCH  21  22
ENDBRANCH   1  21
TORSDOF 7
ENDMDL
MODEL 3
REMARK VINA RESULT:      -7.7      3.774      8.307
REMARK  7 active torsions:
REMARK  status: ('A' for Active; 'I' for Inactive)
REMARK    1  A    between atoms: O1_2  and  C2_3 
REMARK    2  A    between atoms: C5_6  and  O2_7 
REMARK    3  A    between atoms: C7_9  and  C8_10 
REMARK    4  A    between atoms: C8_10  and  C9_11 
REMARK    5  A    between atoms: C12_14  and  N1_15 
REMARK    6  A    between atoms: C12_14  and  N2_16 
REMARK    7  A    between atoms: N2_16  and  C13_17 
ROOT
HETATM    1  C9  UNL     1      27.415   6.763  48.480  1.00  0.00     0.033 A 
HETATM    2  C10 UNL     1      27.039   5.522  48.781  1.00  0.00     0.043 A 
HETATM    3  C11 UNL     1      25.950   5.340  49.725  1.00  0.00     0.023 A 
HETATM    4  C12 UNL     1      25.554   4.123  50.044  1.00  0.00     0.090 C 
HETATM    5  C19 UNL     1      25.313   6.513  50.305  1.00  0.00     0.153 A 
HETATM    6  N3  UNL     1      25.752   7.681  49.948  1.00  0.00    -0.186 NA
HETATM    7  N4  UNL     1      26.788   7.896  49.049  1.00  0.00    -0.282 N 
HETATM    8  H20 UNL     1      27.053   8.882  48.841  1.00  0.00     0.189 HD
ENDROOT
BRANCH   4   9
HETATM    9  N1  UNL     1      26.173   2.975  49.480  1.00  0.00    -0.288 NA
HETATM   10  H12 UNL     1      26.641   2.602  48.626  1.00  0.00     0.125 HD
HETATM   11  H13 UNL     1      26.634   2.643  48.607  1.00  0.00     0.125 HD
ENDBRANCH   4   9
BRANCH   4  12
HETATM   12  N2  UNL     1      24.493   3.883  50.961  1.00  0.00    -0.346 N 
HETATM   13  H14 UNL     1      23.655   4.438  51.227  1.00  0.00     0.167 HD
BRANCH  12  14
HETATM   14  C13 UNL     1      24.422   2.704  51.742  1.00  0.00     0.034 A 
HETATM   15  C14 UNL     1      23.283   1.959  51.569  1.00  0.00     0.029 A 
HETATM   16  C15 UNL     1      23.056   0.783  52.252  1.00  0.00     0.004 A 
HETATM   17  C16 UNL     1      23.995   0.294  53.165  1.00  0.00     0.019 A 
HETATM   18  C17 UNL     1      25.142   1.063  53.325  1.00  0.00     0.013 A 
HETATM   19 BR1  UNL     1      26.479   0.468  54.555  1.00  0.00    -0.051 Br
HETATM   20  C18 UNL     1      25.349   2.239  52.630  1.00  0.00     0.048 A 
ENDBRANCH  12  14
ENDBRANCH   4  12
BRANCH   1  21
HETATM   21  C8  UNL     1      28.514   6.929  47.526  1.00  0.00     0.100 C 
BRANCH  21  22
HETATM   22  C7  UNL     1      29.861   6.734  48.080  1.00  0.00    -0.017 A 
HETATM   23  C5  UNL     1      30.524   7.738  48.756  1.00  0.00     0.075 A 
HETATM   24  C4  UNL     1      31.789   7.527  49.264  1.00  0.00     0.040 A 
HETATM   25  C3  UNL     1      32.435   6.317  49.122  1.00  0.00     0.039 A 
HETATM   26  C2  UNL     1      31.787   5.302  48.449  1.00  0.00     0.068 A 
HETATM   27  C20 UNL     1      30.509   5.505  47.931  1.00  0.00     0.047 A 
BRANCH  23  28
HETATM   28  O2  UNL     1      29.836   8.934  48.875  1.00  0.00    -0.355 OA
HETATM   29  C6  UNL     1      30.376  10.143  49.317  1.00  0.00     0.210 C 
ENDBRANCH  23  28
BRANCH  26  30
HETATM   30  O1  UNL     1      32.321   4.020  48.226  1.00  0.00    -0.356 OA
HETATM   31  C1  UNL     1      33.475   3.772  47.468  1.00  0.00     0.210 C 
ENDBRANCH  26  30
ENDBRANCH  21  22
ENDBRANCH   1  21
TORSDOF 7
ENDMDL
MODEL 4
REMARK VINA RESULT:      -7.5      1.530      1.910
REMARK  7 active torsions:
REMARK  status: ('A' for Active; 'I' for Inactive)
REMARK    1  A    between atoms: O1_2  and  C2_3 
REMARK    2  A    between atoms: C5_6  and  O2_7 
REMARK    3  A    between atoms: C7_9  and  C8_10 
REMARK    4  A    between atoms: C8_10  and  C9_11 
REMARK    5  A    between atoms: C12_14  and  N1_15 
REMARK    6  A    between atoms: C12_14  and  N2_16 
REMARK    7  A    between atoms: N2_16  and  C13_17 
ROOT
HETATM    1  C9  UNL     1      23.091   3.519  51.221  1.00  0.00     0.033 A 
HETATM    2  C10 UNL     1      23.830   4.625  51.212  1.00  0.00     0.043 A 
HETATM    3  C11 UNL     1      24.263   5.156  49.931  1.00  0.00     0.023 A 
HETATM    4  C12 UNL     1      24.997   6.251  49.887  1.00  0.00     0.090 C 
HETATM    5  C19 UNL     1      23.875   4.464  48.711  1.00  0.00     0.153 A 
HETATM    6  N3  UNL     1      23.152   3.392  48.825  1.00  0.00    -0.186 NA
HETATM    7  N4  UNL     1      22.719   2.854  50.029  1.00  0.00    -0.282 N 
HETATM    8  H20 UNL     1      22.143   1.986  49.993  1.00  0.00     0.189 HD
ENDROOT
BRANCH   4   9
HETATM    9  N1  UNL     1      25.378   6.930  51.076  1.00  0.00    -0.288 NA
HETATM   10  H12 UNL     1      25.958   7.710  51.455  1.00  0.00     0.125 HD
HETATM   11  H13 UNL     1      25.970   7.717  51.412  1.00  0.00     0.125 HD
ENDBRANCH   4   9
BRANCH   4  12
HETATM   12  N2  UNL     1      25.449   6.817  48.663  1.00  0.00    -0.346 N 
HETATM   13  H14 UNL     1      24.957   7.321  47.898  1.00  0.00     0.167 HD
BRANCH  12  14
HETATM   14  C13 UNL     1      26.806   6.767  48.263  1.00  0.00     0.034 A 
HETATM   15  C14 UNL     1      27.461   5.600  48.567  1.00  0.00     0.029 A 
HETATM   16  C15 UNL     1      28.784   5.387  48.246  1.00  0.00     0.004 A 
HETATM   17  C16 UNL     1      29.527   6.370  47.586  1.00  0.00     0.019 A 
HETATM   18  C17 UNL     1      28.845   7.545  47.286  1.00  0.00     0.013 A 
HETATM   19 BR1  UNL     1      29.785   8.943  46.384  1.00  0.00    -0.051 Br
HETATM   20  C18 UNL     1      27.517   7.737  47.617  1.00  0.00     0.048 A 
ENDBRANCH  12  14
ENDBRANCH   4  12
BRANCH   1  21
HETATM   21  C8  UNL     1      22.662   2.997  52.521  1.00  0.00     0.100 C 
BRANCH  21  22
HETATM   22  C7  UNL     1      23.349   1.775  52.963  1.00  0.00    -0.017 A 
HETATM   23  C5  UNL     1      22.659   0.617  53.258  1.00  0.00     0.075 A 
HETATM   24  C4  UNL     1      23.329  -0.515  53.673  1.00  0.00     0.040 A 
HETATM   25  C3  UNL     1      24.702  -0.537  53.807  1.00  0.00     0.039 A 
HETATM   26  C2  UNL     1      25.408   0.612  53.517  1.00  0.00     0.068 A 
HETATM   27  C20 UNL     1      24.740   1.762  53.097  1.00  0.00     0.047 A 
BRANCH  23  28
HETATM   28  O2  UNL     1      21.284   0.685  53.108  1.00  0.00    -0.355 OA
HETATM   29  C6  UNL     1      20.357  -0.180  53.692  1.00  0.00     0.210 C 
ENDBRANCH  23  28
BRANCH  26  30
HETATM   30  O1  UNL     1      26.805   0.739  53.609  1.00  0.00    -0.356 OA
HETATM   31  C1  UNL     1      27.696  -0.344  53.563  1.00  0.00     0.210 C 
ENDBRANCH  26  30
ENDBRANCH  21  22
ENDBRANCH   1  21
TORSDOF 7
ENDMDL
MODEL 5
REMARK VINA RESULT:      -7.4      3.272      4.601
REMARK  7 active torsions:
REMARK  status: ('A' for Active; 'I' for Inactive)
REMARK    1  A    between atoms: O1_2  and  C2_3 
REMARK    2  A    between atoms: C5_6  and  O2_7 
REMARK    3  A    between atoms: C7_9  and  C8_10 
REMARK    4  A    between atoms: C8_10  and  C9_11 
REMARK    5  A    between atoms: C12_14  and  N1_15 
REMARK    6  A    between atoms: C12_14  and  N2_16 
REMARK    7  A    between atoms: N2_16  and  C13_17 
ROOT
HETATM    1  C9  UNL     1      26.159   4.599  49.238  1.00  0.00     0.033 A 
HETATM    2  C10 UNL     1      27.417   4.679  48.813  1.00  0.00     0.043 A 
HETATM    3  C11 UNL     1      27.964   5.991  48.513  1.00  0.00     0.023 A 
HETATM    4  C12 UNL     1      29.209   6.103  48.090  1.00  0.00     0.090 C 
HETATM    5  C19 UNL     1      27.122   7.165  48.687  1.00  0.00     0.153 A 
HETATM    6  N3  UNL     1      25.907   6.983  49.106  1.00  0.00    -0.186 NA
HETATM    7  N4  UNL     1      25.349   5.747  49.404  1.00  0.00    -0.282 N 
HETATM    8  H20 UNL     1      24.360   5.728  49.733  1.00  0.00     0.189 HD
ENDROOT
BRANCH   4   9
HETATM    9  N1  UNL     1      30.034   4.960  47.919  1.00  0.00    -0.288 NA
HETATM   10  H12 UNL     1      30.717   4.499  47.279  1.00  0.00     0.125 HD
HETATM   11  H13 UNL     1      30.711   4.534  47.251  1.00  0.00     0.125 HD
ENDBRANCH   4   9
BRANCH   4  12
HETATM   12  N2  UNL     1      29.798   7.361  47.782  1.00  0.00    -0.346 N 
HETATM   13  H14 UNL     1      29.404   8.321  47.701  1.00  0.00     0.167 HD
BRANCH  12  14
HETATM   14  C13 UNL     1      31.179   7.501  47.505  1.00  0.00     0.034 A 
HETATM   15  C14 UNL     1      31.976   7.701  48.605  1.00  0.00     0.029 A 
HETATM   16  C15 UNL     1      33.342   7.855  48.511  1.00  0.00     0.004 A 
HETATM   17  C16 UNL     1      33.983   7.814  47.270  1.00  0.00     0.019 A 
HETATM   18  C17 UNL     1      33.159   7.610  46.169  1.00  0.00     0.013 A 
HETATM   19 BR1  UNL     1      33.952   7.541  44.431  1.00  0.00    -0.051 Br
HETATM   20  C18 UNL     1      31.790   7.457  46.285  1.00  0.00     0.048 A 
ENDBRANCH  12  14
ENDBRANCH   4  12
BRANCH   1  21
HETATM   21  C8  UNL     1      25.623   3.269  49.536  1.00  0.00     0.100 C 
BRANCH  21  22
HETATM   22  C7  UNL     1      25.665   2.879  50.952  1.00  0.00    -0.017 A 
HETATM   23  C5  UNL     1      24.643   3.188  51.824  1.00  0.00     0.075 A 
HETATM   24  C4  UNL     1      24.710   2.811  53.150  1.00  0.00     0.040 A 
HETATM   25  C3  UNL     1      25.790   2.114  53.651  1.00  0.00     0.039 A 
HETATM   26  C2  UNL     1      26.822   1.796  52.793  1.00  0.00     0.068 A 
HETATM   27  C20 UNL     1      26.764   2.173  51.452  1.00  0.00     0.047 A 
BRANCH  23  28
HETATM   28  O2  UNL     1      23.580   3.887  51.277  1.00  0.00    -0.355 OA
HETATM   29  C6  UNL     1      22.807   4.843  51.937  1.00  0.00     0.210 C 
ENDBRANCH  23  28
BRANCH  26  30
HETATM   30  O1  UNL     1      27.983   1.093  53.161  1.00  0.00    -0.356 OA
HETATM   31  C1  UNL     1      28.058  -0.305  53.251  1.00  0.00     0.210 C 
ENDBRANCH  26  30
ENDBRANCH  21  22
ENDBRANCH   1  21
TORSDOF 7
ENDMDL
MODEL 6
REMARK VINA RESULT:      -7.4      2.430      3.540
REMARK  7 active torsions:
REMARK  status: ('A' for Active; 'I' for Inactive)
REMARK    1  A    between atoms: O1_2  and  C2_3 
REMARK    2  A    between atoms: C5_6  and  O2_7 
REMARK    3  A    between atoms: C7_9  and  C8_10 
REMARK    4  A    between atoms: C8_10  and  C9_11 
REMARK    5  A    between atoms: C12_14  and  N1_15 
REMARK    6  A    between atoms: C12_14  and  N2_16 
REMARK    7  A    between atoms: N2_16  and  C13_17 
ROOT
HETATM    1  C9  UNL     1      26.113   4.437  49.790  1.00  0.00     0.033 A 
HETATM    2  C10 UNL     1      26.975   5.098  49.022  1.00  0.00     0.043 A 
HETATM    3  C11 UNL     1      26.867   6.545  48.948  1.00  0.00     0.023 A 
HETATM    4  C12 UNL     1      27.708   7.229  48.196  1.00  0.00     0.090 C 
HETATM    5  C19 UNL     1      25.826   7.216  49.711  1.00  0.00     0.153 A 
HETATM    6  N3  UNL     1      25.033   6.484  50.431  1.00  0.00    -0.186 NA
HETATM    7  N4  UNL     1      25.104   5.100  50.528  1.00  0.00    -0.282 N 
HETATM    8  H20 UNL     1      24.410   4.621  51.140  1.00  0.00     0.189 HD
ENDROOT
BRANCH   4   9
HETATM    9  N1  UNL     1      28.726   6.577  47.449  1.00  0.00    -0.288 NA
HETATM   10  H12 UNL     1      29.624   6.723  46.940  1.00  0.00     0.125 HD
HETATM   11  H13 UNL     1      29.620   6.766  46.950  1.00  0.00     0.125 HD
ENDBRANCH   4   9
BRANCH   4  12
HETATM   12  N2  UNL     1      27.650   8.646  48.085  1.00  0.00    -0.346 N 
HETATM   13  H14 UNL     1      26.859   9.311  47.971  1.00  0.00     0.167 HD
BRANCH  12  14
HETATM   14  C13 UNL     1      28.812   9.455  48.118  1.00  0.00     0.034 A 
HETATM   15  C14 UNL     1      29.469   9.483  49.323  1.00  0.00     0.029 A 
HETATM   16  C15 UNL     1      30.616  10.219  49.524  1.00  0.00     0.004 A 
HETATM   17  C16 UNL     1      31.168  10.980  48.490  1.00  0.00     0.019 A 
HETATM   18  C17 UNL     1      30.489  10.937  47.277  1.00  0.00     0.013 A 
HETATM   19 BR1  UNL     1      31.175  11.950  45.808  1.00  0.00    -0.051 Br
HETATM   20  C18 UNL     1      29.340  10.192  47.097  1.00  0.00     0.048 A 
ENDBRANCH  12  14
ENDBRANCH   4  12
BRANCH   1  21
HETATM   21  C8  UNL     1      26.236   2.979  49.854  1.00  0.00     0.100 C 
BRANCH  21  22
HETATM   22  C7  UNL     1      26.077   2.395  51.193  1.00  0.00    -0.017 A 
HETATM   23  C5  UNL     1      24.868   1.899  51.634  1.00  0.00     0.075 A 
HETATM   24  C4  UNL     1      24.747   1.357  52.897  1.00  0.00     0.040 A 
HETATM   25  C3  UNL     1      25.820   1.288  53.761  1.00  0.00     0.039 A 
HETATM   26  C2  UNL     1      27.038   1.779  53.337  1.00  0.00     0.068 A 
HETATM   27  C20 UNL     1      27.169   2.328  52.062  1.00  0.00     0.047 A 
BRANCH  23  28
HETATM   28  O2  UNL     1      23.820   1.989  50.733  1.00  0.00    -0.355 OA
HETATM   29  C6  UNL     1      22.568   2.548  50.992  1.00  0.00     0.210 C 
ENDBRANCH  23  28
BRANCH  26  30
HETATM   30  O1  UNL     1      28.215   1.776  54.106  1.00  0.00    -0.356 OA
HETATM   31  C1  UNL     1      28.732   0.639  54.745  1.00  0.00     0.210 C 
ENDBRANCH  26  30
ENDBRANCH  21  22
ENDBRANCH   1  21
TORSDOF 7
ENDMDL
MODEL 7
REMARK VINA RESULT:      -7.3      2.153      2.572
REMARK  7 active torsions:
REMARK  status: ('A' for Active; 'I' for Inactive)
REMARK    1  A    between atoms: O1_2  and  C2_3 
REMARK    2  A    between atoms: C5_6  and  O2_7 
REMARK    3  A    between atoms: C7_9  and  C8_10 
REMARK    4  A    between atoms: C8_10  and  C9_11 
REMARK    5  A    between atoms: C12_14  and  N1_15 
REMARK    6  A    between atoms: C12_14  and  N2_16 
REMARK    7  A    between atoms: N2_16  and  C13_17 
ROOT
HETATM    1  C9  UNL     1      24.034   2.833  51.349  1.00  0.00     0.033 A 
HETATM    2  C10 UNL     1      25.077   3.239  50.630  1.00  0.00     0.043 A 
HETATM    3  C11 UNL     1      25.288   4.666  50.462  1.00  0.00     0.023 A 
HETATM    4  C12 UNL     1      26.314   5.101  49.755  1.00  0.00     0.090 C 
HETATM    5  C19 UNL     1      24.357   5.596  51.083  1.00  0.00     0.153 A 
HETATM    6  N3  UNL     1      23.369   5.102  51.765  1.00  0.00    -0.186 NA
HETATM    7  N4  UNL     1      23.135   3.746  51.948  1.00  0.00    -0.282 N 
HETATM    8  H20 UNL     1      22.306   3.470  52.518  1.00  0.00     0.189 HD
ENDROOT
BRANCH   4   9
HETATM    9  N1  UNL     1      27.225   4.195  49.148  1.00  0.00    -0.288 NA
HETATM   10  H12 UNL     1      27.308   3.268  48.680  1.00  0.00     0.125 HD
HETATM   11  H13 UNL     1      27.264   3.263  48.686  1.00  0.00     0.125 HD
ENDBRANCH   4   9
BRANCH   4  12
HETATM   12  N2  UNL     1      26.570   6.486  49.557  1.00  0.00    -0.346 N 
HETATM   13  H14 UNL     1      26.958   7.225  50.178  1.00  0.00     0.167 HD
BRANCH  12  14
HETATM   14  C13 UNL     1      26.299   7.137  48.330  1.00  0.00     0.034 A 
HETATM   15  C14 UNL     1      27.402   7.615  47.667  1.00  0.00     0.029 A 
HETATM   16  C15 UNL     1      27.313   8.273  46.460  1.00  0.00     0.004 A 
HETATM   17  C16 UNL     1      26.073   8.483  45.849  1.00  0.00     0.019 A 
HETATM   18  C17 UNL     1      24.969   7.990  46.536  1.00  0.00     0.013 A 
HETATM   19 BR1  UNL     1      23.233   8.234  45.772  1.00  0.00    -0.051 Br
HETATM   20  C18 UNL     1      25.081   7.333  47.746  1.00  0.00     0.048 A 
ENDBRANCH  12  14
ENDBRANCH   4  12
BRANCH   1  21
HETATM   21  C8  UNL     1      23.836   1.391  51.509  1.00  0.00     0.100 C 
BRANCH  21  22
HETATM   22  C7  UNL     1      24.485   0.795  52.685  1.00  0.00    -0.017 A 
HETATM   23  C5  UNL     1      23.924  -0.262  53.371  1.00  0.00     0.075 A 
HETATM   24  C4  UNL     1      24.556  -0.800  54.473  1.00  0.00     0.040 A 
HETATM   25  C3  UNL     1      25.762  -0.310  54.929  1.00  0.00     0.039 A 
HETATM   26  C2  UNL     1      26.338   0.747  54.255  1.00  0.00     0.068 A 
HETATM   27  C20 UNL     1      25.708   1.298  53.140  1.00  0.00     0.047 A 
BRANCH  23  28
HETATM   28  O2  UNL     1      22.715  -0.720  52.878  1.00  0.00    -0.355 OA
HETATM   29  C6  UNL     1      21.473  -0.570  53.497  1.00  0.00     0.210 C 
ENDBRANCH  23  28
BRANCH  26  30
HETATM   30  O1  UNL     1      27.560   1.349  54.603  1.00  0.00    -0.356 OA
HETATM   31  C1  UNL     1      28.803   0.704  54.522  1.00  0.00     0.210 C 
ENDBRANCH  26  30
ENDBRANCH  21  22
ENDBRANCH   1  21
TORSDOF 7
ENDMDL
MODEL 8
REMARK VINA RESULT:      -7.1      3.036      4.150
REMARK  7 active torsions:
REMARK  status: ('A' for Active; 'I' for Inactive)
REMARK    1  A    between atoms: O1_2  and  C2_3 
REMARK    2  A    between atoms: C5_6  and  O2_7 
REMARK    3  A    between atoms: C7_9  and  C8_10 
REMARK    4  A    between atoms: C8_10  and  C9_11 
REMARK    5  A    between atoms: C12_14  and  N1_15 
REMARK    6  A    between atoms: C12_14  and  N2_16 
REMARK    7  A    between atoms: N2_16  and  C13_17 
ROOT
HETATM    1  C9  UNL     1      22.861   3.038  49.499  1.00  0.00     0.033 A 
HETATM    2  C10 UNL     1      24.183   3.174  49.434  1.00  0.00     0.043 A 
HETATM    3  C11 UNL     1      24.749   4.504  49.576  1.00  0.00     0.023 A 
HETATM    4  C12 UNL     1      26.056   4.672  49.517  1.00  0.00     0.090 C 
HETATM    5  C19 UNL     1      23.856   5.634  49.784  1.00  0.00     0.153 A 
HETATM    6  N3  UNL     1      22.581   5.399  49.832  1.00  0.00    -0.186 NA
HETATM    7  N4  UNL     1      22.002   4.144  49.702  1.00  0.00    -0.282 N 
HETATM    8  H20 UNL     1      20.963   4.081  49.758  1.00  0.00     0.189 HD
ENDROOT
BRANCH   4   9
HETATM    9  N1  UNL     1      26.931   3.571  49.315  1.00  0.00    -0.288 NA
HETATM   10  H12 UNL     1      26.977   2.572  49.020  1.00  0.00     0.125 HD
HETATM   11  H13 UNL     1      26.932   2.574  49.015  1.00  0.00     0.125 HD
ENDBRANCH   4   9
BRANCH   4  12
HETATM   12  N2  UNL     1      26.667   5.950  49.650  1.00  0.00    -0.346 N 
HETATM   13  H14 UNL     1      26.886   6.542  50.476  1.00  0.00     0.167 HD
BRANCH  12  14
HETATM   14  C13 UNL     1      27.120   6.691  48.531  1.00  0.00     0.034 A 
HETATM   15  C14 UNL     1      28.454   6.549  48.240  1.00  0.00     0.029 A 
HETATM   16  C15 UNL     1      29.055   7.199  47.184  1.00  0.00     0.004 A 
HETATM   17  C16 UNL     1      28.316   8.046  46.352  1.00  0.00     0.019 A 
HETATM   18  C17 UNL     1      26.967   8.175  46.664  1.00  0.00     0.013 A 
HETATM   19 BR1  UNL     1      25.883   9.314  45.578  1.00  0.00    -0.051 Br
HETATM   20  C18 UNL     1      26.385   7.513  47.727  1.00  0.00     0.048 A 
ENDBRANCH  12  14
ENDBRANCH   4  12
BRANCH   1  21
HETATM   21  C8  UNL     1      22.306   1.690  49.355  1.00  0.00     0.100 C 
BRANCH  21  22
HETATM   22  C7  UNL     1      21.604   1.171  50.536  1.00  0.00    -0.017 A 
HETATM   23  C5  UNL     1      20.234   1.009  50.559  1.00  0.00     0.075 A 
HETATM   24  C4  UNL     1      19.602   0.520  51.683  1.00  0.00     0.040 A 
HETATM   25  C3  UNL     1      20.305   0.176  52.819  1.00  0.00     0.039 A 
HETATM   26  C2  UNL     1      21.676   0.332  52.815  1.00  0.00     0.068 A 
HETATM   27  C20 UNL     1      22.324   0.825  51.684  1.00  0.00     0.047 A 
BRANCH  23  28
HETATM   28  O2  UNL     1      19.571   1.366  49.397  1.00  0.00    -0.355 OA
HETATM   29  C6  UNL     1      18.695   2.444  49.257  1.00  0.00     0.210 C 
ENDBRANCH  23  28
BRANCH  26  30
HETATM   30  O1  UNL     1      22.520   0.025  53.896  1.00  0.00    -0.356 OA
HETATM   31  C1  UNL     1      22.390  -1.122  54.692  1.00  0.00     0.210 C 
ENDBRANCH  26  30
ENDBRANCH  21  22
ENDBRANCH   1  21
TORSDOF 7
ENDMDL
MODEL 9
REMARK VINA RESULT:      -6.9      3.784      8.145
REMARK  7 active torsions:
REMARK  status: ('A' for Active; 'I' for Inactive)
REMARK    1  A    between atoms: O1_2  and  C2_3 
REMARK    2  A    between atoms: C5_6  and  O2_7 
REMARK    3  A    between atoms: C7_9  and  C8_10 
REMARK    4  A    between atoms: C8_10  and  C9_11 
REMARK    5  A    between atoms: C12_14  and  N1_15 
REMARK    6  A    between atoms: C12_14  and  N2_16 
REMARK    7  A    between atoms: N2_16  and  C13_17 
ROOT
HETATM    1  C9  UNL     1      25.942   6.563  48.859  1.00  0.00     0.033 A 
HETATM    2  C10 UNL     1      26.269   5.309  49.159  1.00  0.00     0.043 A 
HETATM    3  C11 UNL     1      25.466   4.602  50.142  1.00  0.00     0.023 A 
HETATM    4  C12 UNL     1      25.764   3.357  50.462  1.00  0.00     0.090 C 
HETATM    5  C19 UNL     1      24.340   5.286  50.759  1.00  0.00     0.153 A 
HETATM    6  N3  UNL     1      24.102   6.510  50.399  1.00  0.00    -0.186 NA
HETATM    7  N4  UNL     1      24.845   7.218  49.464  1.00  0.00    -0.282 N 
HETATM    8  H20 UNL     1      24.557   8.199  49.258  1.00  0.00     0.189 HD
ENDROOT
BRANCH   4   9
HETATM    9  N1  UNL     1      26.863   2.686  49.861  1.00  0.00    -0.288 NA
HETATM   10  H12 UNL     1      27.130   1.977  49.144  1.00  0.00     0.125 HD
HETATM   11  H13 UNL     1      27.086   1.973  49.136  1.00  0.00     0.125 HD
ENDBRANCH   4   9
BRANCH   4  12
HETATM   12  N2  UNL     1      25.013   2.615  51.416  1.00  0.00    -0.346 N 
HETATM   13  H14 UNL     1      24.001   2.598  51.655  1.00  0.00     0.167 HD
BRANCH  12  14
HETATM   14  C13 UNL     1      25.617   1.677  52.288  1.00  0.00     0.034 A 
HETATM   15  C14 UNL     1      25.836   2.125  53.566  1.00  0.00     0.029 A 
HETATM   16  C15 UNL     1      26.413   1.338  54.539  1.00  0.00     0.004 A 
HETATM   17  C16 UNL     1      26.806   0.026  54.257  1.00  0.00     0.019 A 
HETATM   18  C17 UNL     1      26.575  -0.409  52.957  1.00  0.00     0.013 A 
HETATM   19 BR1  UNL     1      27.083  -2.190  52.485  1.00  0.00    -0.051 Br
HETATM   20  C18 UNL     1      25.994   0.397  51.997  1.00  0.00     0.048 A 
ENDBRANCH  12  14
ENDBRANCH   4  12
BRANCH   1  21
HETATM   21  C8  UNL     1      26.762   7.261  47.866  1.00  0.00     0.100 C 
BRANCH  21  22
HETATM   22  C7  UNL     1      28.194   7.350  48.185  1.00  0.00    -0.017 A 
HETATM   23  C5  UNL     1      28.735   8.456  48.808  1.00  0.00     0.075 A 
HETATM   24  C4  UNL     1      30.083   8.513  49.094  1.00  0.00     0.040 A 
HETATM   25  C3  UNL     1      30.937   7.478  48.774  1.00  0.00     0.039 A 
HETATM   26  C2  UNL     1      30.413   6.364  48.151  1.00  0.00     0.068 A 
HETATM   27  C20 UNL     1      29.052   6.297  47.857  1.00  0.00     0.047 A 
BRANCH  23  28
HETATM   28  O2  UNL     1      27.841   9.469  49.110  1.00  0.00    -0.355 OA
HETATM   29  C6  UNL     1      27.851  10.754  48.565  1.00  0.00     0.210 C 
ENDBRANCH  23  28
BRANCH  26  30
HETATM   30  O1  UNL     1      31.159   5.236  47.766  1.00  0.00    -0.356 OA
HETATM   31  C1  UNL     1      32.500   5.024  48.121  1.00  0.00     0.210 C 
ENDBRANCH  26  30
ENDBRANCH  21  22
ENDBRANCH   1  21
TORSDOF 7
ENDMDL
