MODEL 1
REMARK VINA RESULT:      -7.1      0.000      0.000
REMARK  7 active torsions:
REMARK  status: ('A' for Active; 'I' for Inactive)
REMARK    1  A    between atoms: C2_2  and  C3_3 
REMARK    2  A    between atoms: C3_3  and  C4_4 
REMARK    3  A    between atoms: C4_4  and  N1_5 
REMARK    4  A    between atoms: N1_5  and  C5_6 
REMARK       I    between atoms: N1_5  and  C11_13 
REMARK    5  A    between atoms: C5_6  and  C6_7 
REMARK    6  A    between atoms: C10_11  and  O1_12 
REMARK       I    between atoms: C11_13  and  N2_15 
REMARK    7  A    between atoms: N2_15  and  C12_16 
ROOT
HETATM    1  N1  UNL     1      23.732   1.056  52.271  1.00  0.00    -0.330 N 
HETATM    2  C11 UNL     1      25.128   0.726  52.441  1.00  0.00     0.323 C 
HETATM    3  O2  UNL     1      26.027   1.007  51.590  1.00  0.00    -0.247 OA
HETATM    4  N2  UNL     1      25.679   0.054  53.561  1.00  0.00    -0.309 N 
HETATM    5  H17 UNL     1      25.008  -0.229  54.335  1.00  0.00     0.170 HD
ENDROOT
BRANCH   1   6
HETATM    6  C4  UNL     1      22.608   0.802  53.166  1.00  0.00     0.128 C 
BRANCH   6   7
HETATM    7  C3  UNL     1      21.933  -0.506  52.932  1.00  0.00     0.020 C 
BRANCH   7   8
HETATM    8  C2  UNL     1      21.439  -1.128  54.217  1.00  0.00    -0.003 C 
HETATM    9  C1  UNL     1      22.666  -1.268  55.107  1.00  0.00     0.005 C 
ENDBRANCH   7   8
ENDBRANCH   6   7
ENDBRANCH   1   6
BRANCH   1  10
HETATM   10  C5  UNL     1      23.411   1.736  51.031  1.00  0.00     0.169 C 
BRANCH  10  11
HETATM   11  C6  UNL     1      23.627   3.195  51.081  1.00  0.00    -0.006 A 
HETATM   12  C7  UNL     1      22.812   4.252  51.234  1.00  0.00     0.021 A 
HETATM   13  C8  UNL     1      23.931   5.182  51.148  1.00  0.00    -0.028 A 
HETATM   14  C9  UNL     1      24.095   6.664  51.206  1.00  0.00     0.051 C 
HETATM   15  C10 UNL     1      24.733   4.138  50.997  1.00  0.00     0.079 A 
BRANCH  15  16
HETATM   16  O1  UNL     1      26.089   4.067  50.832  1.00  0.00    -0.360 OA
HETATM   17  H16 UNL     1      26.639   4.846  50.483  1.00  0.00     0.217 HD
ENDBRANCH  15  16
ENDBRANCH  10  11
ENDBRANCH   1  10
BRANCH   4  18
HETATM   18  C12 UNL     1      27.077  -0.211  53.607  1.00  0.00     0.036 A 
HETATM   19  C13 UNL     1      28.018   0.649  54.148  1.00  0.00     0.029 A 
HETATM   20  C14 UNL     1      29.353   0.310  54.149  1.00  0.00     0.002 A 
HETATM   21  C15 UNL     1      29.796  -0.893  53.615  1.00  0.00     0.000 A 
HETATM   22  C16 UNL     1      28.865  -1.738  53.083  1.00  0.00     0.002 A 
HETATM   23  C17 UNL     1      27.527  -1.419  53.072  1.00  0.00     0.029 A 
ENDBRANCH   4  18
TORSDOF 7
ENDMDL
MODEL 2
REMARK VINA RESULT:      -6.9      1.887      5.677
REMARK  7 active torsions:
REMARK  status: ('A' for Active; 'I' for Inactive)
REMARK    1  A    between atoms: C2_2  and  C3_3 
REMARK    2  A    between atoms: C3_3  and  C4_4 
REMARK    3  A    between atoms: C4_4  and  N1_5 
REMARK    4  A    between atoms: N1_5  and  C5_6 
REMARK       I    between atoms: N1_5  and  C11_13 
REMARK    5  A    between atoms: C5_6  and  C6_7 
REMARK    6  A    between atoms: C10_11  and  O1_12 
REMARK       I    between atoms: C11_13  and  N2_15 
REMARK    7  A    between atoms: N2_15  and  C12_16 
ROOT
HETATM    1  N1  UNL     1      24.634   0.837  52.939  1.00  0.00    -0.330 N 
HETATM    2  C11 UNL     1      25.222   1.893  52.147  1.00  0.00     0.323 C 
HETATM    3  O2  UNL     1      26.298   2.491  52.458  1.00  0.00    -0.247 OA
HETATM    4  N2  UNL     1      24.689   2.401  50.936  1.00  0.00    -0.309 N 
HETATM    5  H17 UNL     1      23.782   1.969  50.586  1.00  0.00     0.170 HD
ENDROOT
BRANCH   1   6
HETATM    6  C4  UNL     1      23.418   0.068  52.695  1.00  0.00     0.128 C 
BRANCH   6   7
HETATM    7  C3  UNL     1      23.017  -0.805  53.834  1.00  0.00     0.020 C 
BRANCH   7   8
HETATM    8  C2  UNL     1      21.528  -1.061  53.856  1.00  0.00    -0.003 C 
HETATM    9  C1  UNL     1      20.901   0.201  54.434  1.00  0.00     0.005 C 
ENDBRANCH   7   8
ENDBRANCH   6   7
ENDBRANCH   1   6
BRANCH   1  10
HETATM   10  C5  UNL     1      25.363   0.501  54.147  1.00  0.00     0.169 C 
BRANCH  10  11
HETATM   11  C6  UNL     1      26.698  -0.073  53.893  1.00  0.00    -0.006 A 
HETATM   12  C7  UNL     1      27.151  -1.067  53.111  1.00  0.00     0.021 A 
HETATM   13  C8  UNL     1      28.523  -0.849  53.555  1.00  0.00    -0.028 A 
HETATM   14  C9  UNL     1      29.850  -1.465  53.264  1.00  0.00     0.051 C 
HETATM   15  C10 UNL     1      28.073   0.129  54.326  1.00  0.00     0.079 A 
BRANCH  15  16
HETATM   16  O1  UNL     1      28.732   0.971  55.182  1.00  0.00    -0.360 OA
HETATM   17  H16 UNL     1      28.712   1.981  55.078  1.00  0.00     0.217 HD
ENDBRANCH  15  16
ENDBRANCH  10  11
ENDBRANCH   1  10
BRANCH   4  18
HETATM   18  C12 UNL     1      25.368   3.446  50.249  1.00  0.00     0.036 A 
HETATM   19  C13 UNL     1      26.556   3.283  49.557  1.00  0.00     0.029 A 
HETATM   20  C14 UNL     1      27.145   4.354  48.921  1.00  0.00     0.002 A 
HETATM   21  C15 UNL     1      26.574   5.619  48.952  1.00  0.00     0.000 A 
HETATM   22  C16 UNL     1      25.403   5.776  49.636  1.00  0.00     0.002 A 
HETATM   23  C17 UNL     1      24.798   4.721  50.277  1.00  0.00     0.029 A 
ENDBRANCH   4  18
TORSDOF 7
ENDMDL
MODEL 3
REMARK VINA RESULT:      -6.8      2.727      4.028
REMARK  7 active torsions:
REMARK  status: ('A' for Active; 'I' for Inactive)
REMARK    1  A    between atoms: C2_2  and  C3_3 
REMARK    2  A    between atoms: C3_3  and  C4_4 
REMARK    3  A    between atoms: C4_4  and  N1_5 
REMARK    4  A    between atoms: N1_5  and  C5_6 
REMARK       I    between atoms: N1_5  and  C11_13 
REMARK    5  A    between atoms: C5_6  and  C6_7 
REMARK    6  A    between atoms: C10_11  and  O1_12 
REMARK       I    between atoms: C11_13  and  N2_15 
REMARK    7  A    between atoms: N2_15  and  C12_16 
ROOT
HETATM    1  N1  UNL     1      24.836   3.727  50.900  1.00  0.00    -0.330 N 
HETATM    2  C11 UNL     1      25.899   2.876  51.386  1.00  0.00     0.323 C 
HETATM    3  O2  UNL     1      26.771   2.340  50.636  1.00  0.00    -0.247 OA
HETATM    4  N2  UNL     1      26.110   2.526  52.744  1.00  0.00    -0.309 N 
HETATM    5  H17 UNL     1      25.430   2.922  53.458  1.00  0.00     0.170 HD
ENDROOT
BRANCH   1   6
HETATM    6  C4  UNL     1      23.784   4.406  51.648  1.00  0.00     0.128 C 
BRANCH   6   7
HETATM    7  C3  UNL     1      22.431   4.281  51.035  1.00  0.00     0.020 C 
BRANCH   7   8
HETATM    8  C2  UNL     1      21.598   5.526  51.237  1.00  0.00    -0.003 C 
HETATM    9  C1  UNL     1      22.490   6.690  50.827  1.00  0.00     0.005 C 
ENDBRANCH   7   8
ENDBRANCH   6   7
ENDBRANCH   1   6
BRANCH   1  10
HETATM   10  C5  UNL     1      24.822   3.927  49.464  1.00  0.00     0.169 C 
BRANCH  10  11
HETATM   11  C6  UNL     1      25.637   5.074  49.017  1.00  0.00    -0.006 A 
HETATM   12  C7  UNL     1      25.344   6.277  48.497  1.00  0.00     0.021 A 
HETATM   13  C8  UNL     1      26.756   6.631  48.411  1.00  0.00    -0.028 A 
HETATM   14  C9  UNL     1      27.533   7.817  47.946  1.00  0.00     0.051 C 
HETATM   15  C10 UNL     1      27.042   5.443  48.923  1.00  0.00     0.079 A 
BRANCH  15  16
HETATM   16  O1  UNL     1      28.244   4.863  49.222  1.00  0.00    -0.360 OA
HETATM   17  H16 UNL     1      28.380   4.278  50.042  1.00  0.00     0.217 HD
ENDBRANCH  15  16
ENDBRANCH  10  11
ENDBRANCH   1  10
BRANCH   4  18
HETATM   18  C12 UNL     1      27.198   1.677  53.092  1.00  0.00     0.036 A 
HETATM   19  C13 UNL     1      27.188   0.299  52.959  1.00  0.00     0.029 A 
HETATM   20  C14 UNL     1      28.288  -0.446  53.323  1.00  0.00     0.002 A 
HETATM   21  C15 UNL     1      29.434   0.154  53.830  1.00  0.00     0.000 A 
HETATM   22  C16 UNL     1      29.439   1.514  53.960  1.00  0.00     0.002 A 
HETATM   23  C17 UNL     1      28.352   2.275  53.602  1.00  0.00     0.029 A 
ENDBRANCH   4  18
TORSDOF 7
ENDMDL
MODEL 4
REMARK VINA RESULT:      -6.8      1.892      2.434
REMARK  7 active torsions:
REMARK  status: ('A' for Active; 'I' for Inactive)
REMARK    1  A    between atoms: C2_2  and  C3_3 
REMARK    2  A    between atoms: C3_3  and  C4_4 
REMARK    3  A    between atoms: C4_4  and  N1_5 
REMARK    4  A    between atoms: N1_5  and  C5_6 
REMARK       I    between atoms: N1_5  and  C11_13 
REMARK    5  A    between atoms: C5_6  and  C6_7 
REMARK    6  A    between atoms: C10_11  and  O1_12 
REMARK       I    between atoms: C11_13  and  N2_15 
REMARK    7  A    between atoms: N2_15  and  C12_16 
ROOT
HETATM    1  N1  UNL     1      24.538   2.961  51.226  1.00  0.00    -0.330 N 
HETATM    2  C11 UNL     1      25.734   2.253  51.622  1.00  0.00     0.323 C 
HETATM    3  O2  UNL     1      26.634   1.881  50.809  1.00  0.00    -0.247 OA
HETATM    4  N2  UNL     1      26.063   1.882  52.950  1.00  0.00    -0.309 N 
HETATM    5  H17 UNL     1      25.370   2.146  53.713  1.00  0.00     0.170 HD
ENDROOT
BRANCH   1   6
HETATM    6  C4  UNL     1      23.439   3.450  52.051  1.00  0.00     0.128 C 
BRANCH   6   7
HETATM    7  C3  UNL     1      22.217   2.598  51.997  1.00  0.00     0.020 C 
BRANCH   7   8
HETATM    8  C2  UNL     1      22.378   1.323  52.793  1.00  0.00    -0.003 C 
HETATM    9  C1  UNL     1      21.707   0.234  51.968  1.00  0.00     0.005 C 
ENDBRANCH   7   8
ENDBRANCH   6   7
ENDBRANCH   1   6
BRANCH   1  10
HETATM   10  C5  UNL     1      24.422   3.216  49.803  1.00  0.00     0.169 C 
BRANCH  10  11
HETATM   11  C6  UNL     1      25.121   4.438  49.361  1.00  0.00    -0.006 A 
HETATM   12  C7  UNL     1      24.709   5.631  48.900  1.00  0.00     0.021 A 
HETATM   13  C8  UNL     1      26.083   6.099  48.759  1.00  0.00    -0.028 A 
HETATM   14  C9  UNL     1      26.741   7.358  48.302  1.00  0.00     0.051 C 
HETATM   15  C10 UNL     1      26.486   4.921  49.213  1.00  0.00     0.079 A 
BRANCH  15  16
HETATM   16  O1  UNL     1      27.744   4.429  49.433  1.00  0.00    -0.360 OA
HETATM   17  H16 UNL     1      28.569   4.821  48.988  1.00  0.00     0.217 HD
ENDBRANCH  15  16
ENDBRANCH  10  11
ENDBRANCH   1  10
BRANCH   4  18
HETATM   18  C12 UNL     1      27.277   1.186  53.208  1.00  0.00     0.036 A 
HETATM   19  C13 UNL     1      28.454   1.793  53.613  1.00  0.00     0.029 A 
HETATM   20  C14 UNL     1      29.585   1.039  53.840  1.00  0.00     0.002 A 
HETATM   21  C15 UNL     1      29.583  -0.339  53.672  1.00  0.00     0.000 A 
HETATM   22  C16 UNL     1      28.419  -0.933  53.272  1.00  0.00     0.002 A 
HETATM   23  C17 UNL     1      27.280  -0.200  53.041  1.00  0.00     0.029 A 
ENDBRANCH   4  18
TORSDOF 7
ENDMDL
MODEL 5
REMARK VINA RESULT:      -6.6      2.101      4.698
REMARK  7 active torsions:
REMARK  status: ('A' for Active; 'I' for Inactive)
REMARK    1  A    between atoms: C2_2  and  C3_3 
REMARK    2  A    between atoms: C3_3  and  C4_4 
REMARK    3  A    between atoms: C4_4  and  N1_5 
REMARK    4  A    between atoms: N1_5  and  C5_6 
REMARK       I    between atoms: N1_5  and  C11_13 
REMARK    5  A    between atoms: C5_6  and  C6_7 
REMARK    6  A    between atoms: C10_11  and  O1_12 
REMARK       I    between atoms: C11_13  and  N2_15 
REMARK    7  A    between atoms: N2_15  and  C12_16 
ROOT
HETATM    1  N1  UNL     1      23.484   0.954  52.404  1.00  0.00    -0.330 N 
HETATM    2  C11 UNL     1      24.806   0.596  52.864  1.00  0.00     0.323 C 
HETATM    3  O2  UNL     1      25.141   0.561  54.088  1.00  0.00    -0.247 OA
HETATM    4  N2  UNL     1      25.895   0.242  52.029  1.00  0.00    -0.309 N 
HETATM    5  H17 UNL     1      25.721   0.242  50.980  1.00  0.00     0.170 HD
ENDROOT
BRANCH   1   6
HETATM    6  C4  UNL     1      22.969   1.024  51.041  1.00  0.00     0.128 C 
BRANCH   6   7
HETATM    7  C3  UNL     1      22.939   2.403  50.477  1.00  0.00     0.020 C 
BRANCH   7   8
HETATM    8  C2  UNL     1      21.686   2.661  49.672  1.00  0.00    -0.003 C 
HETATM    9  C1  UNL     1      21.280   1.311  49.097  1.00  0.00     0.005 C 
ENDBRANCH   7   8
ENDBRANCH   6   7
ENDBRANCH   1   6
BRANCH   1  10
HETATM   10  C5  UNL     1      22.541   1.289  53.454  1.00  0.00     0.169 C 
BRANCH  10  11
HETATM   11  C6  UNL     1      21.302   0.488  53.417  1.00  0.00    -0.006 A 
HETATM   12  C7  UNL     1      20.148   0.590  52.737  1.00  0.00     0.021 A 
HETATM   13  C8  UNL     1      19.617  -0.609  53.374  1.00  0.00    -0.028 A 
HETATM   14  C9  UNL     1      18.344  -1.384  53.299  1.00  0.00     0.051 C 
HETATM   15  C10 UNL     1      20.756  -0.706  54.044  1.00  0.00     0.079 A 
BRANCH  15  16
HETATM   16  O1  UNL     1      21.178  -1.627  54.965  1.00  0.00    -0.360 OA
HETATM   17  H16 UNL     1      21.770  -2.415  54.718  1.00  0.00     0.217 HD
ENDBRANCH  15  16
ENDBRANCH  10  11
ENDBRANCH   1  10
BRANCH   4  18
HETATM   18  C12 UNL     1      27.151  -0.091  52.609  1.00  0.00     0.036 A 
HETATM   19  C13 UNL     1      27.612  -1.385  52.784  1.00  0.00     0.029 A 
HETATM   20  C14 UNL     1      28.843  -1.615  53.358  1.00  0.00     0.002 A 
HETATM   21  C15 UNL     1      29.655  -0.569  53.776  1.00  0.00     0.000 A 
HETATM   22  C16 UNL     1      29.196   0.706  53.602  1.00  0.00     0.002 A 
HETATM   23  C17 UNL     1      27.971   0.957  53.031  1.00  0.00     0.029 A 
ENDBRANCH   4  18
TORSDOF 7
ENDMDL
MODEL 6
REMARK VINA RESULT:      -6.5      1.418      1.790
REMARK  7 active torsions:
REMARK  status: ('A' for Active; 'I' for Inactive)
REMARK    1  A    between atoms: C2_2  and  C3_3 
REMARK    2  A    between atoms: C3_3  and  C4_4 
REMARK    3  A    between atoms: C4_4  and  N1_5 
REMARK    4  A    between atoms: N1_5  and  C5_6 
REMARK       I    between atoms: N1_5  and  C11_13 
REMARK    5  A    between atoms: C5_6  and  C6_7 
REMARK    6  A    between atoms: C10_11  and  O1_12 
REMARK       I    between atoms: C11_13  and  N2_15 
REMARK    7  A    between atoms: N2_15  and  C12_16 
ROOT
HETATM    1  N1  UNL     1      23.904   1.769  51.771  1.00  0.00    -0.330 N 
HETATM    2  C11 UNL     1      25.222   1.291  52.123  1.00  0.00     0.323 C 
HETATM    3  O2  UNL     1      26.262   1.525  51.435  1.00  0.00    -0.247 OA
HETATM    4  N2  UNL     1      25.530   0.507  53.263  1.00  0.00    -0.309 N 
HETATM    5  H17 UNL     1      24.725   0.251  53.908  1.00  0.00     0.170 HD
ENDROOT
BRANCH   1   6
HETATM    6  C4  UNL     1      22.637   1.582  52.471  1.00  0.00     0.128 C 
BRANCH   6   7
HETATM    7  C3  UNL     1      21.859   0.399  52.005  1.00  0.00     0.020 C 
BRANCH   7   8
HETATM    8  C2  UNL     1      20.379   0.693  51.914  1.00  0.00    -0.003 C 
HETATM    9  C1  UNL     1      20.221   2.148  52.333  1.00  0.00     0.005 C 
ENDBRANCH   7   8
ENDBRANCH   6   7
ENDBRANCH   1   6
BRANCH   1  10
HETATM   10  C5  UNL     1      23.841   2.544  50.547  1.00  0.00     0.169 C 
BRANCH  10  11
HETATM   11  C6  UNL     1      23.164   3.846  50.703  1.00  0.00    -0.006 A 
HETATM   12  C7  UNL     1      22.184   4.472  50.031  1.00  0.00     0.021 A 
HETATM   13  C8  UNL     1      22.248   5.623  50.924  1.00  0.00    -0.028 A 
HETATM   14  C9  UNL     1      21.533   6.927  51.038  1.00  0.00     0.051 C 
HETATM   15  C10 UNL     1      23.215   5.003  51.584  1.00  0.00     0.079 A 
BRANCH  15  16
HETATM   16  O1  UNL     1      23.937   5.385  52.682  1.00  0.00    -0.360 OA
HETATM   17  H16 UNL     1      23.503   5.778  53.513  1.00  0.00     0.217 HD
ENDBRANCH  15  16
ENDBRANCH  10  11
ENDBRANCH   1  10
BRANCH   4  18
HETATM   18  C12 UNL     1      26.874   0.100  53.496  1.00  0.00     0.036 A 
HETATM   19  C13 UNL     1      27.790   0.820  54.244  1.00  0.00     0.029 A 
HETATM   20  C14 UNL     1      29.073   0.349  54.418  1.00  0.00     0.002 A 
HETATM   21  C15 UNL     1      29.487  -0.851  53.855  1.00  0.00     0.000 A 
HETATM   22  C16 UNL     1      28.580  -1.558  53.118  1.00  0.00     0.002 A 
HETATM   23  C17 UNL     1      27.295  -1.106  52.933  1.00  0.00     0.029 A 
ENDBRANCH   4  18
TORSDOF 7
ENDMDL
MODEL 7
REMARK VINA RESULT:      -6.4      2.052      6.188
REMARK  7 active torsions:
REMARK  status: ('A' for Active; 'I' for Inactive)
REMARK    1  A    between atoms: C2_2  and  C3_3 
REMARK    2  A    between atoms: C3_3  and  C4_4 
REMARK    3  A    between atoms: C4_4  and  N1_5 
REMARK    4  A    between atoms: N1_5  and  C5_6 
REMARK       I    between atoms: N1_5  and  C11_13 
REMARK    5  A    between atoms: C5_6  and  C6_7 
REMARK    6  A    between atoms: C10_11  and  O1_12 
REMARK       I    between atoms: C11_13  and  N2_15 
REMARK    7  A    between atoms: N2_15  and  C12_16 
ROOT
HETATM    1  N1  UNL     1      25.896   1.012  52.253  1.00  0.00    -0.330 N 
HETATM    2  C11 UNL     1      25.588   2.232  51.541  1.00  0.00     0.323 C 
HETATM    3  O2  UNL     1      24.884   3.170  52.024  1.00  0.00    -0.247 OA
HETATM    4  N2  UNL     1      26.021   2.544  50.228  1.00  0.00    -0.309 N 
HETATM    5  H17 UNL     1      26.619   1.820  49.729  1.00  0.00     0.170 HD
ENDROOT
BRANCH   1   6
HETATM    6  C4  UNL     1      26.693  -0.131  51.822  1.00  0.00     0.128 C 
BRANCH   6   7
HETATM    7  C3  UNL     1      27.295  -0.906  52.944  1.00  0.00     0.020 C 
BRANCH   7   8
HETATM    8  C2  UNL     1      28.638  -0.353  53.361  1.00  0.00    -0.003 C 
HETATM    9  C1  UNL     1      29.564  -1.556  53.470  1.00  0.00     0.005 C 
ENDBRANCH   7   8
ENDBRANCH   6   7
ENDBRANCH   1   6
BRANCH   1  10
HETATM   10  C5  UNL     1      25.327   0.921  53.583  1.00  0.00     0.169 C 
BRANCH  10  11
HETATM   11  C6  UNL     1      23.958   0.368  53.606  1.00  0.00    -0.006 A 
HETATM   12  C7  UNL     1      23.415  -0.753  54.108  1.00  0.00     0.021 A 
HETATM   13  C8  UNL     1      22.090  -0.377  53.631  1.00  0.00    -0.028 A 
HETATM   14  C9  UNL     1      20.726  -0.979  53.682  1.00  0.00     0.051 C 
HETATM   15  C10 UNL     1      22.629   0.728  53.136  1.00  0.00     0.079 A 
BRANCH  15  16
HETATM   16  O1  UNL     1      22.065   1.770  52.452  1.00  0.00    -0.360 OA
HETATM   17  H16 UNL     1      22.618   2.511  52.031  1.00  0.00     0.217 HD
ENDBRANCH  15  16
ENDBRANCH  10  11
ENDBRANCH   1  10
BRANCH   4  18
HETATM   18  C12 UNL     1      25.649   3.784  49.638  1.00  0.00     0.036 A 
HETATM   19  C13 UNL     1      24.355   4.120  49.276  1.00  0.00     0.029 A 
HETATM   20  C14 UNL     1      24.085   5.346  48.709  1.00  0.00     0.002 A 
HETATM   21  C15 UNL     1      25.090   6.278  48.484  1.00  0.00     0.000 A 
HETATM   22  C16 UNL     1      26.365   5.942  48.842  1.00  0.00     0.002 A 
HETATM   23  C17 UNL     1      26.656   4.724  49.410  1.00  0.00     0.029 A 
ENDBRANCH   4  18
TORSDOF 7
ENDMDL
MODEL 8
REMARK VINA RESULT:      -6.3      2.009      4.567
REMARK  7 active torsions:
REMARK  status: ('A' for Active; 'I' for Inactive)
REMARK    1  A    between atoms: C2_2  and  C3_3 
REMARK    2  A    between atoms: C3_3  and  C4_4 
REMARK    3  A    between atoms: C4_4  and  N1_5 
REMARK    4  A    between atoms: N1_5  and  C5_6 
REMARK       I    between atoms: N1_5  and  C11_13 
REMARK    5  A    between atoms: C5_6  and  C6_7 
REMARK    6  A    between atoms: C10_11  and  O1_12 
REMARK       I    between atoms: C11_13  and  N2_15 
REMARK    7  A    between atoms: N2_15  and  C12_16 
ROOT
HETATM    1  N1  UNL     1      23.883   2.494  51.578  1.00  0.00    -0.330 N 
HETATM    2  C11 UNL     1      24.995   1.883  52.269  1.00  0.00     0.323 C 
HETATM    3  O2  UNL     1      25.026   1.691  53.523  1.00  0.00    -0.247 OA
HETATM    4  N2  UNL     1      26.186   1.420  51.653  1.00  0.00    -0.309 N 
HETATM    5  H17 UNL     1      26.263   1.535  50.599  1.00  0.00     0.170 HD
ENDROOT
BRANCH   1   6
HETATM    6  C4  UNL     1      23.716   2.763  50.153  1.00  0.00     0.128 C 
BRANCH   6   7
HETATM    7  C3  UNL     1      24.200   4.107  49.731  1.00  0.00     0.020 C 
BRANCH   7   8
HETATM    8  C2  UNL     1      25.677   4.104  49.409  1.00  0.00    -0.003 C 
HETATM    9  C1  UNL     1      26.016   5.535  49.014  1.00  0.00     0.005 C 
ENDBRANCH   7   8
ENDBRANCH   6   7
ENDBRANCH   1   6
BRANCH   1  10
HETATM   10  C5  UNL     1      22.780   2.896  52.430  1.00  0.00     0.169 C 
BRANCH  10  11
HETATM   11  C6  UNL     1      21.635   1.966  52.396  1.00  0.00    -0.006 A 
HETATM   12  C7  UNL     1      20.310   2.126  52.246  1.00  0.00     0.021 A 
HETATM   13  C8  UNL     1      20.081   0.691  52.352  1.00  0.00    -0.028 A 
HETATM   14  C9  UNL     1      18.889  -0.207  52.311  1.00  0.00     0.051 C 
HETATM   15  C10 UNL     1      21.388   0.536  52.500  1.00  0.00     0.079 A 
BRANCH  15  16
HETATM   16  O1  UNL     1      22.142  -0.593  52.678  1.00  0.00    -0.360 OA
HETATM   17  H16 UNL     1      22.269  -1.286  51.946  1.00  0.00     0.217 HD
ENDBRANCH  15  16
ENDBRANCH  10  11
ENDBRANCH   1  10
BRANCH   4  18
HETATM   18  C12 UNL     1      27.209   0.833  52.450  1.00  0.00     0.036 A 
HETATM   19  C13 UNL     1      28.183   1.550  53.123  1.00  0.00     0.029 A 
HETATM   20  C14 UNL     1      29.138   0.898  53.871  1.00  0.00     0.002 A 
HETATM   21  C15 UNL     1      29.156  -0.487  53.976  1.00  0.00     0.000 A 
HETATM   22  C16 UNL     1      28.193  -1.191  53.309  1.00  0.00     0.002 A 
HETATM   23  C17 UNL     1      27.231  -0.559  52.558  1.00  0.00     0.029 A 
ENDBRANCH   4  18
TORSDOF 7
ENDMDL
MODEL 9
REMARK VINA RESULT:      -6.3      2.923      5.474
REMARK  7 active torsions:
REMARK  status: ('A' for Active; 'I' for Inactive)
REMARK    1  A    between atoms: C2_2  and  C3_3 
REMARK    2  A    between atoms: C3_3  and  C4_4 
REMARK    3  A    between atoms: C4_4  and  N1_5 
REMARK    4  A    between atoms: N1_5  and  C5_6 
REMARK       I    between atoms: N1_5  and  C11_13 
REMARK    5  A    between atoms: C5_6  and  C6_7 
REMARK    6  A    between atoms: C10_11  and  O1_12 
REMARK       I    between atoms: C11_13  and  N2_15 
REMARK    7  A    between atoms: N2_15  and  C12_16 
ROOT
HETATM    1  N1  UNL     1      24.613   4.814  50.619  1.00  0.00    -0.330 N 
HETATM    2  C11 UNL     1      24.870   3.568  51.304  1.00  0.00     0.323 C 
HETATM    3  O2  UNL     1      25.315   2.528  50.729  1.00  0.00    -0.247 OA
HETATM    4  N2  UNL     1      24.664   3.337  52.687  1.00  0.00    -0.309 N 
HETATM    5  H17 UNL     1      24.289   4.147  53.264  1.00  0.00     0.170 HD
ENDROOT
BRANCH   1   6
HETATM    6  C4  UNL     1      24.115   6.076  51.156  1.00  0.00     0.128 C 
BRANCH   6   7
HETATM    7  C3  UNL     1      23.100   6.742  50.291  1.00  0.00     0.020 C 
BRANCH   7   8
HETATM    8  C2  UNL     1      23.517   8.141  49.900  1.00  0.00    -0.003 C 
HETATM    9  C1  UNL     1      22.261   8.809  49.358  1.00  0.00     0.005 C 
ENDBRANCH   7   8
ENDBRANCH   6   7
ENDBRANCH   1   6
BRANCH   1  10
HETATM   10  C5  UNL     1      24.892   4.799  49.196  1.00  0.00     0.169 C 
BRANCH  10  11
HETATM   11  C6  UNL     1      26.258   5.241  48.855  1.00  0.00    -0.006 A 
HETATM   12  C7  UNL     1      27.444   4.617  48.765  1.00  0.00     0.021 A 
HETATM   13  C8  UNL     1      28.117   5.854  48.390  1.00  0.00    -0.028 A 
HETATM   14  C9  UNL     1      29.515   6.250  48.053  1.00  0.00     0.051 C 
HETATM   15  C10 UNL     1      26.946   6.468  48.480  1.00  0.00     0.079 A 
BRANCH  15  16
HETATM   16  O1  UNL     1      26.603   7.777  48.275  1.00  0.00    -0.360 OA
HETATM   17  H16 UNL     1      25.878   8.056  47.620  1.00  0.00     0.217 HD
ENDBRANCH  15  16
ENDBRANCH  10  11
ENDBRANCH   1  10
BRANCH   4  18
HETATM   18  C12 UNL     1      24.959   2.059  53.240  1.00  0.00     0.036 A 
HETATM   19  C13 UNL     1      26.123   1.754  53.925  1.00  0.00     0.029 A 
HETATM   20  C14 UNL     1      26.325   0.487  54.427  1.00  0.00     0.002 A 
HETATM   21  C15 UNL     1      25.378  -0.517  54.266  1.00  0.00     0.000 A 
HETATM   22  C16 UNL     1      24.232  -0.211  53.589  1.00  0.00     0.002 A 
HETATM   23  C17 UNL     1      24.010   1.047  53.080  1.00  0.00     0.029 A 
ENDBRANCH   4  18
TORSDOF 7
ENDMDL
