MODEL 1
REMARK VINA RESULT:      -6.6      0.000      0.000
REMARK  8 active torsions:
REMARK  status: ('A' for Active; 'I' for Inactive)
REMARK    1  A    between atoms: N1_2  and  C2_3 
REMARK    2  A    between atoms: C5_6  and  O1_7 
REMARK    3  A    between atoms: O1_7  and  C6_8 
REMARK    4  A    between atoms: C6_8  and  C7_9 
REMARK    5  A    between atoms: C7_9  and  N2_10 
REMARK    6  A    between atoms: C12_16  and  O3_17 
REMARK    7  A    between atoms: O3_17  and  C13_18 
REMARK    8  A    between atoms: N3_19  and  C14_20 
ROOT
HETATM    1  C2  UNL     1      20.453  -0.319  53.632  1.00  0.00     0.089 C 
HETATM    2  C3  UNL     1      21.757  -0.441  53.815  1.00  0.00    -0.037 A 
HETATM    3  C4  UNL     1      22.641   0.181  52.845  1.00  0.00     0.048 A 
HETATM    4  C5  UNL     1      23.950   0.075  53.005  1.00  0.00     0.102 A 
HETATM    5  C12 UNL     1      24.511  -0.655  54.139  1.00  0.00     0.106 A 
HETATM    6  C15 UNL     1      23.707  -1.232  55.040  1.00  0.00     0.018 A 
HETATM    7  C16 UNL     1      22.221  -1.205  55.002  1.00  0.00     0.070 A 
ENDROOT
BRANCH   4   8
HETATM    8  O1  UNL     1      24.945   0.597  52.191  1.00  0.00    -0.347 OA
BRANCH   8   9
HETATM    9  C6  UNL     1      25.300   1.981  52.289  1.00  0.00     0.206 C 
BRANCH   9  10
HETATM   10  C7  UNL     1      25.004   2.660  50.983  1.00  0.00     0.299 C 
BRANCH  10  11
HETATM   11  N2  UNL     1      23.840   3.505  51.026  1.00  0.00     0.094 N 
HETATM   12  C8  UNL     1      23.652   3.891  52.413  1.00  0.00     0.298 C 
HETATM   13  C9  UNL     1      22.424   4.773  52.440  1.00  0.00     0.198 C 
HETATM   14  O2  UNL     1      21.352   3.936  52.191  1.00  0.00    -0.388 OA
HETATM   15  C10 UNL     1      21.366   3.330  50.956  1.00  0.00     0.198 C 
HETATM   16  C11 UNL     1      22.681   2.892  50.440  1.00  0.00     0.298 C 
ENDBRANCH  10  11
ENDBRANCH   9  10
ENDBRANCH   8   9
ENDBRANCH   4   8
BRANCH   5  17
HETATM   17  O3  UNL     1      25.874  -0.825  54.399  1.00  0.00    -0.302 OA
BRANCH  17  18
HETATM   18  C13 UNL     1      26.512   0.096  55.243  1.00  0.00     0.260 C 
HETATM   19  N3  UNL     1      27.587  -0.155  54.551  1.00  0.00    -0.231 NA
BRANCH  19  20
HETATM   20  C14 UNL     1      28.838   0.448  54.798  1.00  0.00     0.225 C 
HETATM   21  N4  UNL     1      28.937   1.718  54.605  1.00  0.00    -0.293 NA
HETATM   22  H21 UNL     1      29.815   2.268  54.757  1.00  0.00     0.187 HD
ENDBRANCH  19  20
ENDBRANCH  17  18
ENDBRANCH   5  17
BRANCH   1  23
HETATM   23  N1  UNL     1      19.880   0.381  52.545  1.00  0.00    -0.403 N 
HETATM   24  C1  UNL     1      18.626   0.105  51.900  1.00  0.00     0.145 C 
HETATM   25  H4  UNL     1      20.434   1.198  52.164  1.00  0.00     0.158 HD
ENDBRANCH   1  23
TORSDOF 8
ENDMDL
MODEL 2
REMARK VINA RESULT:      -6.5      1.686      1.962
REMARK  8 active torsions:
REMARK  status: ('A' for Active; 'I' for Inactive)
REMARK    1  A    between atoms: N1_2  and  C2_3 
REMARK    2  A    between atoms: C5_6  and  O1_7 
REMARK    3  A    between atoms: O1_7  and  C6_8 
REMARK    4  A    between atoms: C6_8  and  C7_9 
REMARK    5  A    between atoms: C7_9  and  N2_10 
REMARK    6  A    between atoms: C12_16  and  O3_17 
REMARK    7  A    between atoms: O3_17  and  C13_18 
REMARK    8  A    between atoms: N3_19  and  C14_20 
ROOT
HETATM    1  C2  UNL     1      20.889   0.882  53.274  1.00  0.00     0.089 C 
HETATM    2  C3  UNL     1      22.191   0.649  53.304  1.00  0.00    -0.037 A 
HETATM    3  C4  UNL     1      23.069   1.617  52.669  1.00  0.00     0.048 A 
HETATM    4  C5  UNL     1      24.375   1.409  52.685  1.00  0.00     0.102 A 
HETATM    5  C12 UNL     1      24.940   0.226  53.329  1.00  0.00     0.106 A 
HETATM    6  C15 UNL     1      24.141  -0.673  53.917  1.00  0.00     0.018 A 
HETATM    7  C16 UNL     1      22.659  -0.586  53.986  1.00  0.00     0.070 A 
ENDROOT
BRANCH   4   8
HETATM    8  O1  UNL     1      25.364   2.213  52.137  1.00  0.00    -0.347 OA
BRANCH   8   9
HETATM    9  C6  UNL     1      25.287   2.610  50.763  1.00  0.00     0.206 C 
BRANCH   9  10
HETATM   10  C7  UNL     1      25.284   4.110  50.681  1.00  0.00     0.299 C 
BRANCH  10  11
HETATM   11  N2  UNL     1      23.985   4.668  50.412  1.00  0.00     0.094 N 
HETATM   12  C8  UNL     1      23.443   5.103  51.687  1.00  0.00     0.298 C 
HETATM   13  C9  UNL     1      22.078   5.681  51.386  1.00  0.00     0.198 C 
HETATM   14  O2  UNL     1      21.278   4.606  51.046  1.00  0.00    -0.388 OA
HETATM   15  C10 UNL     1      21.670   3.929  49.914  1.00  0.00     0.198 C 
HETATM   16  C11 UNL     1      23.125   3.765  49.701  1.00  0.00     0.298 C 
ENDBRANCH  10  11
ENDBRANCH   9  10
ENDBRANCH   8   9
ENDBRANCH   4   8
BRANCH   5  17
HETATM   17  O3  UNL     1      26.300  -0.086  53.401  1.00  0.00    -0.302 OA
BRANCH  17  18
HETATM   18  C13 UNL     1      26.816  -1.032  52.502  1.00  0.00     0.260 C 
HETATM   19  N3  UNL     1      27.766  -1.207  53.375  1.00  0.00    -0.231 NA
BRANCH  19  20
HETATM   20  C14 UNL     1      28.832  -2.116  53.204  1.00  0.00     0.225 C 
HETATM   21  N4  UNL     1      28.543  -3.369  53.137  1.00  0.00    -0.293 NA
HETATM   22  H21 UNL     1      29.253  -4.129  53.011  1.00  0.00     0.187 HD
ENDBRANCH  19  20
ENDBRANCH  17  18
ENDBRANCH   5  17
BRANCH   1  23
HETATM   23  N1  UNL     1      20.313   2.017  52.659  1.00  0.00    -0.403 N 
HETATM   24  C1  UNL     1      19.092   2.068  51.904  1.00  0.00     0.145 C 
HETATM   25  H4  UNL     1      20.837   2.929  52.766  1.00  0.00     0.158 HD
ENDBRANCH   1  23
TORSDOF 8
ENDMDL
MODEL 3
REMARK VINA RESULT:      -6.3      2.070      4.307
REMARK  8 active torsions:
REMARK  status: ('A' for Active; 'I' for Inactive)
REMARK    1  A    between atoms: N1_2  and  C2_3 
REMARK    2  A    between atoms: C5_6  and  O1_7 
REMARK    3  A    between atoms: O1_7  and  C6_8 
REMARK    4  A    between atoms: C6_8  and  C7_9 
REMARK    5  A    between atoms: C7_9  and  N2_10 
REMARK    6  A    between atoms: C12_16  and  O3_17 
REMARK    7  A    between atoms: O3_17  and  C13_18 
REMARK    8  A    between atoms: N3_19  and  C14_20 
ROOT
HETATM    1  C2  UNL     1      24.476   3.692  49.797  1.00  0.00     0.089 C 
HETATM    2  C3  UNL     1      24.947   2.777  50.627  1.00  0.00    -0.037 A 
HETATM    3  C4  UNL     1      23.992   2.006  51.403  1.00  0.00     0.048 A 
HETATM    4  C5  UNL     1      24.437   1.084  52.240  1.00  0.00     0.102 A 
HETATM    5  C12 UNL     1      25.868   0.835  52.393  1.00  0.00     0.106 A 
HETATM    6  C15 UNL     1      26.758   1.539  51.683  1.00  0.00     0.018 A 
HETATM    7  C16 UNL     1      26.422   2.606  50.705  1.00  0.00     0.070 A 
ENDROOT
BRANCH   4   8
HETATM    8  O1  UNL     1      23.684   0.253  53.059  1.00  0.00    -0.347 OA
BRANCH   8   9
HETATM    9  C6  UNL     1      22.417  -0.240  52.610  1.00  0.00     0.206 C 
BRANCH   9  10
HETATM   10  C7  UNL     1      21.320   0.461  53.358  1.00  0.00     0.299 C 
BRANCH  10  11
HETATM   11  N2  UNL     1      20.396   1.158  52.503  1.00  0.00     0.094 N 
HETATM   12  C8  UNL     1      20.606   0.654  51.158  1.00  0.00     0.298 C 
HETATM   13  C9  UNL     1      19.632   1.400  50.274  1.00  0.00     0.198 C 
HETATM   14  O2  UNL     1      20.101   2.699  50.207  1.00  0.00    -0.388 OA
HETATM   15  C10 UNL     1      20.124   3.368  51.409  1.00  0.00     0.198 C 
HETATM   16  C11 UNL     1      20.510   2.586  52.604  1.00  0.00     0.298 C 
ENDBRANCH  10  11
ENDBRANCH   9  10
ENDBRANCH   8   9
ENDBRANCH   4   8
BRANCH   5  17
HETATM   17  O3  UNL     1      26.439  -0.112  53.247  1.00  0.00    -0.302 OA
BRANCH  17  18
HETATM   18  C13 UNL     1      26.735  -1.384  52.731  1.00  0.00     0.260 C 
HETATM   19  N3  UNL     1      27.901  -1.239  53.293  1.00  0.00    -0.231 NA
BRANCH  19  20
HETATM   20  C14 UNL     1      28.926  -2.207  53.234  1.00  0.00     0.225 C 
HETATM   21  N4  UNL     1      28.575  -3.442  53.141  1.00  0.00    -0.293 NA
HETATM   22  H21 UNL     1      29.250  -4.242  53.089  1.00  0.00     0.187 HD
ENDBRANCH  19  20
ENDBRANCH  17  18
ENDBRANCH   5  17
BRANCH   1  23
HETATM   23  N1  UNL     1      23.096   3.955  49.627  1.00  0.00    -0.403 N 
HETATM   24  C1  UNL     1      22.486   4.751  48.599  1.00  0.00     0.145 C 
HETATM   25  H4  UNL     1      22.442   3.520  50.335  1.00  0.00     0.158 HD
ENDBRANCH   1  23
TORSDOF 8
ENDMDL
MODEL 4
REMARK VINA RESULT:      -6.3      3.722      8.110
REMARK  8 active torsions:
REMARK  status: ('A' for Active; 'I' for Inactive)
REMARK    1  A    between atoms: N1_2  and  C2_3 
REMARK    2  A    between atoms: C5_6  and  O1_7 
REMARK    3  A    between atoms: O1_7  and  C6_8 
REMARK    4  A    between atoms: C6_8  and  C7_9 
REMARK    5  A    between atoms: C7_9  and  N2_10 
REMARK    6  A    between atoms: C12_16  and  O3_17 
REMARK    7  A    between atoms: O3_17  and  C13_18 
REMARK    8  A    between atoms: N3_19  and  C14_20 
ROOT
HETATM    1  C2  UNL     1      28.873   6.445  47.885  1.00  0.00     0.089 C 
HETATM    2  C3  UNL     1      27.677   6.033  48.270  1.00  0.00    -0.037 A 
HETATM    3  C4  UNL     1      27.556   4.681  48.786  1.00  0.00     0.048 A 
HETATM    4  C5  UNL     1      26.371   4.245  49.179  1.00  0.00     0.102 A 
HETATM    5  C12 UNL     1      25.191   5.102  49.099  1.00  0.00     0.106 A 
HETATM    6  C15 UNL     1      25.289   6.349  48.626  1.00  0.00     0.018 A 
HETATM    7  C16 UNL     1      26.543   6.986  48.146  1.00  0.00     0.070 A 
ENDROOT
BRANCH   4   8
HETATM    8  O1  UNL     1      26.061   2.995  49.696  1.00  0.00    -0.347 OA
BRANCH   8   9
HETATM    9  C6  UNL     1      26.616   2.578  50.949  1.00  0.00     0.206 C 
BRANCH   9  10
HETATM   10  C7  UNL     1      25.541   1.935  51.777  1.00  0.00     0.299 C 
BRANCH  10  11
HETATM   11  N2  UNL     1      25.992   0.781  52.508  1.00  0.00     0.094 N 
HETATM   12  C8  UNL     1      24.971   0.484  53.496  1.00  0.00     0.298 C 
HETATM   13  C9  UNL     1      25.463  -0.726  54.258  1.00  0.00     0.198 C 
HETATM   14  O2  UNL     1      26.530  -0.285  55.020  1.00  0.00    -0.388 OA
HETATM   15  C10 UNL     1      27.603   0.181  54.297  1.00  0.00     0.198 C 
HETATM   16  C11 UNL     1      27.302   0.953  53.072  1.00  0.00     0.298 C 
ENDBRANCH  10  11
ENDBRANCH   9  10
ENDBRANCH   8   9
ENDBRANCH   4   8
BRANCH   5  17
HETATM   17  O3  UNL     1      23.898   4.738  49.486  1.00  0.00    -0.302 OA
BRANCH  17  18
HETATM   18  C13 UNL     1      23.192   5.597  50.342  1.00  0.00     0.260 C 
HETATM   19  N3  UNL     1      23.432   4.718  51.272  1.00  0.00    -0.231 NA
BRANCH  19  20
HETATM   20  C14 UNL     1      22.999   4.850  52.609  1.00  0.00     0.225 C 
HETATM   21  N4  UNL     1      23.833   5.337  53.461  1.00  0.00    -0.293 NA
HETATM   22  H21 UNL     1      23.619   5.480  54.476  1.00  0.00     0.187 HD
ENDBRANCH  19  20
ENDBRANCH  17  18
ENDBRANCH   5  17
BRANCH   1  23
HETATM   23  N1  UNL     1      30.034   5.639  47.950  1.00  0.00    -0.403 N 
HETATM   24  C1  UNL     1      31.226   5.896  48.709  1.00  0.00     0.145 C 
HETATM   25  H4  UNL     1      30.024   4.749  47.378  1.00  0.00     0.158 HD
ENDBRANCH   1  23
TORSDOF 8
ENDMDL
MODEL 5
REMARK VINA RESULT:      -6.2      3.105      7.917
REMARK  8 active torsions:
REMARK  status: ('A' for Active; 'I' for Inactive)
REMARK    1  A    between atoms: N1_2  and  C2_3 
REMARK    2  A    between atoms: C5_6  and  O1_7 
REMARK    3  A    between atoms: O1_7  and  C6_8 
REMARK    4  A    between atoms: C6_8  and  C7_9 
REMARK    5  A    between atoms: C7_9  and  N2_10 
REMARK    6  A    between atoms: C12_16  and  O3_17 
REMARK    7  A    between atoms: O3_17  and  C13_18 
REMARK    8  A    between atoms: N3_19  and  C14_20 
ROOT
HETATM    1  C2  UNL     1      27.435   6.038  48.472  1.00  0.00     0.089 C 
HETATM    2  C3  UNL     1      26.274   5.541  48.866  1.00  0.00    -0.037 A 
HETATM    3  C4  UNL     1      26.282   4.274  49.575  1.00  0.00     0.048 A 
HETATM    4  C5  UNL     1      25.135   3.755  49.981  1.00  0.00     0.102 A 
HETATM    5  C12 UNL     1      23.869   4.438  49.724  1.00  0.00     0.106 A 
HETATM    6  C15 UNL     1      23.849   5.606  49.071  1.00  0.00     0.018 A 
HETATM    7  C16 UNL     1      25.046   6.317  48.552  1.00  0.00     0.070 A 
ENDROOT
BRANCH   4   8
HETATM    8  O1  UNL     1      24.943   2.565  50.668  1.00  0.00    -0.347 OA
BRANCH   8   9
HETATM    9  C6  UNL     1      25.511   2.389  51.971  1.00  0.00     0.206 C 
BRANCH   9  10
HETATM   10  C7  UNL     1      26.001   0.976  52.110  1.00  0.00     0.299 C 
BRANCH  10  11
HETATM   11  N2  UNL     1      27.301   0.876  52.719  1.00  0.00     0.094 N 
HETATM   12  C8  UNL     1      27.122   0.173  53.976  1.00  0.00     0.298 C 
HETATM   13  C9  UNL     1      28.495   0.081  54.605  1.00  0.00     0.198 C 
HETATM   14  O2  UNL     1      28.817   1.367  54.998  1.00  0.00    -0.388 OA
HETATM   15  C10 UNL     1      28.921   2.277  53.971  1.00  0.00     0.198 C 
HETATM   16  C11 UNL     1      27.951   2.149  52.862  1.00  0.00     0.298 C 
ENDBRANCH  10  11
ENDBRANCH   9  10
ENDBRANCH   8   9
ENDBRANCH   4   8
BRANCH   5  17
HETATM   17  O3  UNL     1      22.607   3.977  50.108  1.00  0.00    -0.302 OA
BRANCH  17  18
HETATM   18  C13 UNL     1      22.054   4.463  51.303  1.00  0.00     0.260 C 
HETATM   19  N3  UNL     1      21.339   3.375  51.307  1.00  0.00    -0.231 NA
BRANCH  19  20
HETATM   20  C14 UNL     1      20.399   3.057  52.310  1.00  0.00     0.225 C 
HETATM   21  N4  UNL     1      19.175   3.407  52.113  1.00  0.00    -0.293 NA
HETATM   22  H21 UNL     1      18.396   3.222  52.788  1.00  0.00     0.187 HD
ENDBRANCH  19  20
ENDBRANCH  17  18
ENDBRANCH   5  17
BRANCH   1  23
HETATM   23  N1  UNL     1      28.675   5.401  48.706  1.00  0.00    -0.403 N 
HETATM   24  C1  UNL     1      29.967   5.821  48.238  1.00  0.00     0.145 C 
HETATM   25  H4  UNL     1      28.651   4.519  49.289  1.00  0.00     0.158 HD
ENDBRANCH   1  23
TORSDOF 8
ENDMDL
MODEL 6
REMARK VINA RESULT:      -6.1      2.730      4.322
REMARK  8 active torsions:
REMARK  status: ('A' for Active; 'I' for Inactive)
REMARK    1  A    between atoms: N1_2  and  C2_3 
REMARK    2  A    between atoms: C5_6  and  O1_7 
REMARK    3  A    between atoms: O1_7  and  C6_8 
REMARK    4  A    between atoms: C6_8  and  C7_9 
REMARK    5  A    between atoms: C7_9  and  N2_10 
REMARK    6  A    between atoms: C12_16  and  O3_17 
REMARK    7  A    between atoms: O3_17  and  C13_18 
REMARK    8  A    between atoms: N3_19  and  C14_20 
ROOT
HETATM    1  C2  UNL     1      23.769  -0.661  53.664  1.00  0.00     0.089 C 
HETATM    2  C3  UNL     1      24.501   0.227  53.011  1.00  0.00    -0.037 A 
HETATM    3  C4  UNL     1      23.916   1.530  52.749  1.00  0.00     0.048 A 
HETATM    4  C5  UNL     1      24.627   2.436  52.098  1.00  0.00     0.102 A 
HETATM    5  C12 UNL     1      25.984   2.142  51.644  1.00  0.00     0.106 A 
HETATM    6  C15 UNL     1      26.534   0.945  51.880  1.00  0.00     0.018 A 
HETATM    7  C16 UNL     1      25.870  -0.177  52.595  1.00  0.00     0.070 A 
ENDROOT
BRANCH   4   8
HETATM    8  O1  UNL     1      24.243   3.725  51.758  1.00  0.00    -0.347 OA
BRANCH   8   9
HETATM    9  C6  UNL     1      23.392   3.945  50.627  1.00  0.00     0.206 C 
BRANCH   9  10
HETATM   10  C7  UNL     1      22.017   4.311  51.107  1.00  0.00     0.299 C 
BRANCH  10  11
HETATM   11  N2  UNL     1      21.071   3.231  51.017  1.00  0.00     0.094 N 
HETATM   12  C8  UNL     1      20.796   2.799  52.376  1.00  0.00     0.298 C 
HETATM   13  C9  UNL     1      19.806   1.661  52.262  1.00  0.00     0.198 C 
HETATM   14  O2  UNL     1      20.509   0.600  51.723  1.00  0.00    -0.388 OA
HETATM   15  C10 UNL     1      20.999   0.815  50.455  1.00  0.00     0.198 C 
HETATM   16  C11 UNL     1      21.514   2.169  50.157  1.00  0.00     0.298 C 
ENDBRANCH  10  11
ENDBRANCH   9  10
ENDBRANCH   8   9
ENDBRANCH   4   8
BRANCH   5  17
HETATM   17  O3  UNL     1      26.816   3.025  50.952  1.00  0.00    -0.302 OA
BRANCH  17  18
HETATM   18  C13 UNL     1      26.679   3.117  49.558  1.00  0.00     0.260 C 
HETATM   19  N3  UNL     1      27.297   4.259  49.666  1.00  0.00    -0.231 NA
BRANCH  19  20
HETATM   20  C14 UNL     1      27.593   5.097  48.570  1.00  0.00     0.225 C 
HETATM   21  N4  UNL     1      28.563   5.933  48.703  1.00  0.00    -0.293 NA
HETATM   22  H21 UNL     1      28.870   6.601  47.956  1.00  0.00     0.187 HD
ENDBRANCH  19  20
ENDBRANCH  17  18
ENDBRANCH   5  17
BRANCH   1  23
HETATM   23  N1  UNL     1      22.453  -0.405  54.116  1.00  0.00    -0.403 N 
HETATM   24  C1  UNL     1      21.452  -1.376  54.460  1.00  0.00     0.145 C 
HETATM   25  H4  UNL     1      22.175   0.611  54.211  1.00  0.00     0.158 HD
ENDBRANCH   1  23
TORSDOF 8
ENDMDL
MODEL 7
REMARK VINA RESULT:      -6.0      2.457      5.887
REMARK  8 active torsions:
REMARK  status: ('A' for Active; 'I' for Inactive)
REMARK    1  A    between atoms: N1_2  and  C2_3 
REMARK    2  A    between atoms: C5_6  and  O1_7 
REMARK    3  A    between atoms: O1_7  and  C6_8 
REMARK    4  A    between atoms: C6_8  and  C7_9 
REMARK    5  A    between atoms: C7_9  and  N2_10 
REMARK    6  A    between atoms: C12_16  and  O3_17 
REMARK    7  A    between atoms: O3_17  and  C13_18 
REMARK    8  A    between atoms: N3_19  and  C14_20 
ROOT
HETATM    1  C2  UNL     1      26.589   1.193  53.982  1.00  0.00     0.089 C 
HETATM    2  C3  UNL     1      25.335   1.130  53.568  1.00  0.00    -0.037 A 
HETATM    3  C4  UNL     1      24.713   2.352  53.091  1.00  0.00     0.048 A 
HETATM    4  C5  UNL     1      23.459   2.316  52.671  1.00  0.00     0.102 A 
HETATM    5  C12 UNL     1      22.699   1.069  52.683  1.00  0.00     0.106 A 
HETATM    6  C15 UNL     1      23.261  -0.064  53.121  1.00  0.00     0.018 A 
HETATM    7  C16 UNL     1      24.653  -0.190  53.624  1.00  0.00     0.070 A 
ENDROOT
BRANCH   4   8
HETATM    8  O1  UNL     1      22.702   3.371  52.183  1.00  0.00    -0.347 OA
BRANCH   8   9
HETATM    9  C6  UNL     1      23.330   4.421  51.439  1.00  0.00     0.206 C 
BRANCH   9  10
HETATM   10  C7  UNL     1      23.159   4.157  49.970  1.00  0.00     0.299 C 
BRANCH  10  11
HETATM   11  N2  UNL     1      24.313   4.508  49.185  1.00  0.00     0.094 N 
HETATM   12  C8  UNL     1      25.479   4.220  50.001  1.00  0.00     0.298 C 
HETATM   13  C9  UNL     1      26.680   4.600  49.163  1.00  0.00     0.198 C 
HETATM   14  O2  UNL     1      26.670   5.980  49.092  1.00  0.00    -0.388 OA
HETATM   15  C10 UNL     1      25.572   6.519  48.461  1.00  0.00     0.198 C 
HETATM   16  C11 UNL     1      24.270   5.860  48.703  1.00  0.00     0.298 C 
ENDBRANCH  10  11
ENDBRANCH   9  10
ENDBRANCH   8   9
ENDBRANCH   4   8
BRANCH   5  17
HETATM   17  O3  UNL     1      21.374   0.924  52.263  1.00  0.00    -0.302 OA
BRANCH  17  18
HETATM   18  C13 UNL     1      20.372   0.813  53.240  1.00  0.00     0.260 C 
HETATM   19  N3  UNL     1      19.770   0.021  52.400  1.00  0.00    -0.231 NA
BRANCH  19  20
HETATM   20  C14 UNL     1      18.529  -0.599  52.658  1.00  0.00     0.225 C 
HETATM   21  N4  UNL     1      18.400  -1.237  53.768  1.00  0.00    -0.293 NA
HETATM   22  H21 UNL     1      17.525  -1.733  54.063  1.00  0.00     0.187 HD
ENDBRANCH  19  20
ENDBRANCH  17  18
ENDBRANCH   5  17
BRANCH   1  23
HETATM   23  N1  UNL     1      27.351   2.385  53.982  1.00  0.00    -0.403 N 
HETATM   24  C1  UNL     1      28.743   2.524  53.654  1.00  0.00     0.145 C 
HETATM   25  H4  UNL     1      26.842   3.271  54.254  1.00  0.00     0.158 HD
ENDBRANCH   1  23
TORSDOF 8
ENDMDL
MODEL 8
REMARK VINA RESULT:      -6.0      1.933      5.069
REMARK  8 active torsions:
REMARK  status: ('A' for Active; 'I' for Inactive)
REMARK    1  A    between atoms: N1_2  and  C2_3 
REMARK    2  A    between atoms: C5_6  and  O1_7 
REMARK    3  A    between atoms: O1_7  and  C6_8 
REMARK    4  A    between atoms: C6_8  and  C7_9 
REMARK    5  A    between atoms: C7_9  and  N2_10 
REMARK    6  A    between atoms: C12_16  and  O3_17 
REMARK    7  A    between atoms: O3_17  and  C13_18 
REMARK    8  A    between atoms: N3_19  and  C14_20 
ROOT
HETATM    1  C2  UNL     1      18.600  -0.676  52.545  1.00  0.00     0.089 C 
HETATM    2  C3  UNL     1      19.728  -0.040  52.275  1.00  0.00    -0.037 A 
HETATM    3  C4  UNL     1      20.837  -0.200  53.198  1.00  0.00     0.048 A 
HETATM    4  C5  UNL     1      21.976   0.425  52.951  1.00  0.00     0.102 A 
HETATM    5  C12 UNL     1      22.129   1.268  51.768  1.00  0.00     0.106 A 
HETATM    6  C15 UNL     1      21.114   1.423  50.910  1.00  0.00     0.018 A 
HETATM    7  C16 UNL     1      19.775   0.792  51.044  1.00  0.00     0.070 A 
ENDROOT
BRANCH   4   8
HETATM    8  O1  UNL     1      23.138   0.394  53.710  1.00  0.00    -0.347 OA
BRANCH   8   9
HETATM    9  C6  UNL     1      24.216  -0.471  53.337  1.00  0.00     0.206 C 
BRANCH   9  10
HETATM   10  C7  UNL     1      25.285  -0.411  54.390  1.00  0.00     0.299 C 
BRANCH  10  11
HETATM   11  N2  UNL     1      26.553   0.056  53.894  1.00  0.00     0.094 N 
HETATM   12  C8  UNL     1      27.475   0.035  55.015  1.00  0.00     0.298 C 
HETATM   13  C9  UNL     1      28.799   0.533  54.479  1.00  0.00     0.198 C 
HETATM   14  O2  UNL     1      28.623   1.882  54.233  1.00  0.00    -0.388 OA
HETATM   15  C10 UNL     1      27.681   2.177  53.275  1.00  0.00     0.198 C 
HETATM   16  C11 UNL     1      26.464   1.337  53.250  1.00  0.00     0.298 C 
ENDBRANCH  10  11
ENDBRANCH   9  10
ENDBRANCH   8   9
ENDBRANCH   4   8
BRANCH   5  17
HETATM   17  O3  UNL     1      23.286   1.969  51.417  1.00  0.00    -0.302 OA
BRANCH  17  18
HETATM   18  C13 UNL     1      23.394   2.467  50.110  1.00  0.00     0.260 C 
HETATM   19  N3  UNL     1      24.416   3.142  50.550  1.00  0.00    -0.231 NA
BRANCH  19  20
HETATM   20  C14 UNL     1      25.188   4.010  49.748  1.00  0.00     0.225 C 
HETATM   21  N4  UNL     1      26.289   4.459  50.243  1.00  0.00    -0.293 NA
HETATM   22  H21 UNL     1      26.939   5.106  49.737  1.00  0.00     0.187 HD
ENDBRANCH  19  20
ENDBRANCH  17  18
ENDBRANCH   5  17
BRANCH   1  23
HETATM   23  N1  UNL     1      18.422  -1.499  53.681  1.00  0.00    -0.403 N 
HETATM   24  C1  UNL     1      17.815  -2.801  53.722  1.00  0.00     0.145 C 
HETATM   25  H4  UNL     1      18.772  -1.116  54.602  1.00  0.00     0.158 HD
ENDBRANCH   1  23
TORSDOF 8
ENDMDL
MODEL 9
REMARK VINA RESULT:      -5.9      2.137      5.274
REMARK  8 active torsions:
REMARK  status: ('A' for Active; 'I' for Inactive)
REMARK    1  A    between atoms: N1_2  and  C2_3 
REMARK    2  A    between atoms: C5_6  and  O1_7 
REMARK    3  A    between atoms: O1_7  and  C6_8 
REMARK    4  A    between atoms: C6_8  and  C7_9 
REMARK    5  A    between atoms: C7_9  and  N2_10 
REMARK    6  A    between atoms: C12_16  and  O3_17 
REMARK    7  A    between atoms: O3_17  and  C13_18 
REMARK    8  A    between atoms: N3_19  and  C14_20 
ROOT
HETATM    1  C2  UNL     1      17.396  -1.709  52.763  1.00  0.00     0.089 C 
HETATM    2  C3  UNL     1      18.378  -0.836  52.605  1.00  0.00    -0.037 A 
HETATM    3  C4  UNL     1      19.476  -0.870  53.554  1.00  0.00     0.048 A 
HETATM    4  C5  UNL     1      20.471  -0.008  53.419  1.00  0.00     0.102 A 
HETATM    5  C12 UNL     1      20.476   0.969  52.333  1.00  0.00     0.106 A 
HETATM    6  C15 UNL     1      19.469   1.009  51.452  1.00  0.00     0.018 A 
HETATM    7  C16 UNL     1      18.283   0.114  51.467  1.00  0.00     0.070 A 
ENDROOT
BRANCH   4   8
HETATM    8  O1  UNL     1      21.598   0.112  54.219  1.00  0.00    -0.347 OA
BRANCH   8   9
HETATM    9  C6  UNL     1      22.585  -0.925  54.229  1.00  0.00     0.206 C 
BRANCH   9  10
HETATM   10  C7  UNL     1      23.684  -0.572  53.268  1.00  0.00     0.299 C 
BRANCH  10  11
HETATM   11  N2  UNL     1      24.674   0.310  53.827  1.00  0.00     0.094 N 
HETATM   12  C8  UNL     1      25.163   1.136  52.738  1.00  0.00     0.298 C 
HETATM   13  C9  UNL     1      26.206   2.052  53.342  1.00  0.00     0.198 C 
HETATM   14  O2  UNL     1      27.287   1.245  53.645  1.00  0.00    -0.388 OA
HETATM   15  C10 UNL     1      27.037   0.270  54.583  1.00  0.00     0.198 C 
HETATM   16  C11 UNL     1      25.715  -0.390  54.527  1.00  0.00     0.298 C 
ENDBRANCH  10  11
ENDBRANCH   9  10
ENDBRANCH   8   9
ENDBRANCH   4   8
BRANCH   5  17
HETATM   17  O3  UNL     1      21.475   1.919  52.102  1.00  0.00    -0.302 OA
BRANCH  17  18
HETATM   18  C13 UNL     1      21.152   3.276  52.254  1.00  0.00     0.260 C 
HETATM   19  N3  UNL     1      22.438   3.482  52.293  1.00  0.00    -0.231 NA
BRANCH  19  20
HETATM   20  C14 UNL     1      23.025   4.756  52.446  1.00  0.00     0.225 C 
HETATM   21  N4  UNL     1      24.191   4.942  51.933  1.00  0.00    -0.293 NA
HETATM   22  H21 UNL     1      24.718   5.845  51.985  1.00  0.00     0.187 HD
ENDBRANCH  19  20
ENDBRANCH  17  18
ENDBRANCH   5  17
BRANCH   1  23
HETATM   23  N1  UNL     1      17.363  -2.666  53.803  1.00  0.00    -0.403 N 
HETATM   24  C1  UNL     1      16.927  -4.032  53.711  1.00  0.00     0.145 C 
HETATM   25  H4  UNL     1      17.696  -2.343  54.754  1.00  0.00     0.158 HD
ENDBRANCH   1  23
TORSDOF 8
ENDMDL
