MODEL 1
REMARK VINA RESULT:      -8.7      0.000      0.000
REMARK  4 active torsions:
REMARK  status: ('A' for Active; 'I' for Inactive)
REMARK    1  A    between atoms: O1_1  and  C1_2 
REMARK    2  A    between atoms: C5_6  and  N1_7 
REMARK    3  A    between atoms: C8_13  and  C9_14 
REMARK    4  A    between atoms: C9_14  and  C10_15 
ROOT
HETATM    1  N1  UNL     1      24.504   1.561  52.422  1.00  0.00    -0.226 N 
HETATM    2  C6  UNL     1      24.090   2.286  51.251  1.00  0.00     0.238 C 
HETATM    3  N2  UNL     1      24.869   2.940  50.439  1.00  0.00    -0.211 NA
HETATM    4  C7  UNL     1      26.282   3.109  50.485  1.00  0.00     0.226 C 
HETATM    5 CL1  UNL     1      26.953   3.907  49.080  1.00  0.00    -0.041 Cl
HETATM    6  N3  UNL     1      27.139   2.761  51.414  1.00  0.00    -0.201 NA
HETATM    7  C8  UNL     1      26.884   2.105  52.651  1.00  0.00     0.156 C 
HETATM    8  N4  UNL     1      25.753   1.595  53.073  1.00  0.00    -0.150 NA
ENDROOT
BRANCH   1   9
HETATM    9  C5  UNL     1      23.479   0.717  52.945  1.00  0.00     0.059 C 
HETATM   10  C4  UNL     1      23.772  -0.157  53.895  1.00  0.00     0.031 C 
HETATM   11  C3  UNL     1      22.861  -1.097  54.546  1.00  0.00     0.001 C 
HETATM   12  C2  UNL     1      21.547  -1.049  54.610  1.00  0.00     0.008 C 
HETATM   13  C1  UNL     1      20.527  -0.102  54.094  1.00  0.00     0.164 C 
HETATM   14  C15 UNL     1      21.004   0.579  52.852  1.00  0.00     0.011 C 
HETATM   15  C14 UNL     1      22.169   0.936  52.335  1.00  0.00     0.030 C 
BRANCH  13  16
HETATM   16  O1  UNL     1      19.308  -0.698  53.877  1.00  0.00    -0.388 OA
HETATM   17  H1  UNL     1      19.115  -1.311  54.653  1.00  0.00     0.210 HD
ENDBRANCH  13  16
ENDBRANCH   1   9
BRANCH   7  18
HETATM   18  C9  UNL     1      28.041   1.983  53.577  1.00  0.00     0.147 C 
BRANCH  18  19
HETATM   19  C10 UNL     1      28.596   0.593  53.498  1.00  0.00     0.059 A 
HETATM   20  C11 UNL     1      29.871   0.151  53.786  1.00  0.00     0.035 A 
HETATM   21  C12 UNL     1      29.855  -1.197  53.552  1.00  0.00     0.027 A 
HETATM   22  C13 UNL     1      28.595  -1.551  53.135  1.00  0.00     0.142 A 
HETATM   23  O2  UNL     1      27.888  -0.458  53.121  1.00  0.00    -0.327 OA
ENDBRANCH  18  19
ENDBRANCH   7  18
TORSDOF 4
ENDMDL
MODEL 2
REMARK VINA RESULT:      -8.2      2.367      4.329
REMARK  4 active torsions:
REMARK  status: ('A' for Active; 'I' for Inactive)
REMARK    1  A    between atoms: O1_1  and  C1_2 
REMARK    2  A    between atoms: C5_6  and  N1_7 
REMARK    3  A    between atoms: C8_13  and  C9_14 
REMARK    4  A    between atoms: C9_14  and  C10_15 
ROOT
HETATM    1  N1  UNL     1      25.239   0.610  53.183  1.00  0.00    -0.226 N 
HETATM    2  C6  UNL     1      26.171   0.283  54.229  1.00  0.00     0.238 C 
HETATM    3  N2  UNL     1      27.352   0.803  54.392  1.00  0.00    -0.211 NA
HETATM    4  C7  UNL     1      28.016   1.795  53.614  1.00  0.00     0.226 C 
HETATM    5 CL1  UNL     1      29.527   2.349  54.303  1.00  0.00    -0.041 Cl
HETATM    6  N3  UNL     1      27.667   2.343  52.477  1.00  0.00    -0.201 NA
HETATM    7  C8  UNL     1      26.504   2.091  51.695  1.00  0.00     0.156 C 
HETATM    8  N4  UNL     1      25.470   1.348  52.006  1.00  0.00    -0.150 NA
ENDROOT
BRANCH   1   9
HETATM    9  C5  UNL     1      23.929   0.095  53.426  1.00  0.00     0.059 C 
HETATM   10  C4  UNL     1      23.730  -0.738  54.436  1.00  0.00     0.031 C 
HETATM   11  C3  UNL     1      22.470  -1.363  54.833  1.00  0.00     0.001 C 
HETATM   12  C2  UNL     1      21.243  -0.985  54.540  1.00  0.00     0.008 C 
HETATM   13  C1  UNL     1      20.675   0.135  53.751  1.00  0.00     0.164 C 
HETATM   14  C15 UNL     1      21.614   0.565  52.671  1.00  0.00     0.011 C 
HETATM   15  C14 UNL     1      22.924   0.576  52.481  1.00  0.00     0.030 C 
BRANCH  13  16
HETATM   16  O1  UNL     1      19.439  -0.158  53.223  1.00  0.00    -0.388 OA
HETATM   17  H1  UNL     1      19.120  -1.021  53.633  1.00  0.00     0.210 HD
ENDBRANCH  13  16
ENDBRANCH   1   9
BRANCH   7  18
HETATM   18  C9  UNL     1      26.456   2.751  50.364  1.00  0.00     0.147 C 
BRANCH  18  19
HETATM   19  C10 UNL     1      25.147   3.465  50.210  1.00  0.00     0.059 A 
HETATM   20  C11 UNL     1      24.122   3.216  49.320  1.00  0.00     0.035 A 
HETATM   21  C12 UNL     1      23.160   4.149  49.596  1.00  0.00     0.027 A 
HETATM   22  C13 UNL     1      23.603   4.937  50.630  1.00  0.00     0.142 A 
HETATM   23  O2  UNL     1      24.782   4.492  50.958  1.00  0.00    -0.327 OA
ENDBRANCH  18  19
ENDBRANCH   7  18
TORSDOF 4
ENDMDL
MODEL 3
REMARK VINA RESULT:      -8.1      3.579      6.117
REMARK  4 active torsions:
REMARK  status: ('A' for Active; 'I' for Inactive)
REMARK    1  A    between atoms: O1_1  and  C1_2 
REMARK    2  A    between atoms: C5_6  and  N1_7 
REMARK    3  A    between atoms: C8_13  and  C9_14 
REMARK    4  A    between atoms: C9_14  and  C10_15 
ROOT
HETATM    1  N1  UNL     1      26.251   2.013  52.283  1.00  0.00    -0.226 N 
HETATM    2  C6  UNL     1      25.551   2.435  53.467  1.00  0.00     0.238 C 
HETATM    3  N2  UNL     1      24.524   3.232  53.505  1.00  0.00    -0.211 NA
HETATM    4  C7  UNL     1      23.841   3.878  52.434  1.00  0.00     0.226 C 
HETATM    5 CL1  UNL     1      22.382   4.715  52.918  1.00  0.00    -0.041 Cl
HETATM    6  N3  UNL     1      24.143   3.936  51.160  1.00  0.00    -0.201 NA
HETATM    7  C8  UNL     1      25.256   3.356  50.489  1.00  0.00     0.156 C 
HETATM    8  N4  UNL     1      26.153   2.534  50.978  1.00  0.00    -0.150 NA
ENDROOT
BRANCH   1   9
HETATM    9  C5  UNL     1      27.143   0.925  52.523  1.00  0.00     0.059 C 
HETATM   10  C4  UNL     1      28.267   1.136  53.192  1.00  0.00     0.031 C 
HETATM   11  C3  UNL     1      29.294   0.152  53.530  1.00  0.00     0.001 C 
HETATM   12  C2  UNL     1      29.185  -1.159  53.578  1.00  0.00     0.008 C 
HETATM   13  C1  UNL     1      28.070  -2.106  53.332  1.00  0.00     0.164 C 
HETATM   14  C15 UNL     1      27.097  -1.548  52.344  1.00  0.00     0.011 C 
HETATM   15  C14 UNL     1      26.682  -0.347  51.974  1.00  0.00     0.030 C 
BRANCH  13  16
HETATM   16  O1  UNL     1      28.504  -3.347  52.929  1.00  0.00    -0.388 OA
HETATM   17  H1  UNL     1      29.351  -3.562  53.431  1.00  0.00     0.210 HD
ENDBRANCH  13  16
ENDBRANCH   1   9
BRANCH   7  18
HETATM   18  C9  UNL     1      25.423   3.728  49.059  1.00  0.00     0.147 C 
BRANCH  18  19
HETATM   19  C10 UNL     1      26.276   4.957  48.961  1.00  0.00     0.059 A 
HETATM   20  C11 UNL     1      27.590   5.070  48.556  1.00  0.00     0.035 A 
HETATM   21  C12 UNL     1      27.890   6.402  48.649  1.00  0.00     0.027 A 
HETATM   22  C13 UNL     1      26.777   7.068  49.099  1.00  0.00     0.142 A 
HETATM   23  O2  UNL     1      25.849   6.170  49.268  1.00  0.00    -0.327 OA
ENDBRANCH  18  19
ENDBRANCH   7  18
TORSDOF 4
ENDMDL
MODEL 4
REMARK VINA RESULT:      -7.9      3.407      5.199
REMARK  4 active torsions:
REMARK  status: ('A' for Active; 'I' for Inactive)
REMARK    1  A    between atoms: O1_1  and  C1_2 
REMARK    2  A    between atoms: C5_6  and  N1_7 
REMARK    3  A    between atoms: C8_13  and  C9_14 
REMARK    4  A    between atoms: C9_14  and  C10_15 
ROOT
HETATM    1  N1  UNL     1      24.027   1.843  52.269  1.00  0.00    -0.226 N 
HETATM    2  C6  UNL     1      22.649   1.696  52.652  1.00  0.00     0.238 C 
HETATM    3  N2  UNL     1      22.139   0.695  53.308  1.00  0.00    -0.211 NA
HETATM    4  C7  UNL     1      22.778  -0.477  53.806  1.00  0.00     0.226 C 
HETATM    5 CL1  UNL     1      21.750  -1.481  54.806  1.00  0.00    -0.041 Cl
HETATM    6  N3  UNL     1      24.002  -0.907  53.625  1.00  0.00    -0.201 NA
HETATM    7  C8  UNL     1      25.047  -0.305  52.868  1.00  0.00     0.156 C 
HETATM    8  N4  UNL     1      25.048   0.873  52.292  1.00  0.00    -0.150 NA
ENDROOT
BRANCH   1   9
HETATM    9  C5  UNL     1      24.341   3.160  51.817  1.00  0.00     0.059 C 
HETATM   10  C4  UNL     1      25.078   3.320  50.728  1.00  0.00     0.031 C 
HETATM   11  C3  UNL     1      25.498   4.582  50.121  1.00  0.00     0.001 C 
HETATM   12  C2  UNL     1      24.972   5.779  50.278  1.00  0.00     0.008 C 
HETATM   13  C1  UNL     1      23.832   6.303  51.069  1.00  0.00     0.164 C 
HETATM   14  C15 UNL     1      23.599   5.479  52.293  1.00  0.00     0.011 C 
HETATM   15  C14 UNL     1      23.781   4.218  52.654  1.00  0.00     0.030 C 
BRANCH  13  16
HETATM   16  O1  UNL     1      23.980   7.628  51.404  1.00  0.00    -0.388 OA
HETATM   17  H1  UNL     1      23.233   7.879  52.033  1.00  0.00     0.210 HD
ENDBRANCH  13  16
ENDBRANCH   1   9
BRANCH   7  18
HETATM   18  C9  UNL     1      26.288  -1.109  52.713  1.00  0.00     0.147 C 
BRANCH  18  19
HETATM   19  C10 UNL     1      27.406  -0.446  53.460  1.00  0.00     0.059 A 
HETATM   20  C11 UNL     1      27.390   0.125  54.716  1.00  0.00     0.035 A 
HETATM   21  C12 UNL     1      28.662   0.585  54.927  1.00  0.00     0.027 A 
HETATM   22  C13 UNL     1      29.419   0.292  53.820  1.00  0.00     0.142 A 
HETATM   23  O2  UNL     1      28.631  -0.318  52.982  1.00  0.00    -0.327 OA
ENDBRANCH  18  19
ENDBRANCH   7  18
TORSDOF 4
ENDMDL
MODEL 5
REMARK VINA RESULT:      -7.8      1.599      2.562
REMARK  4 active torsions:
REMARK  status: ('A' for Active; 'I' for Inactive)
REMARK    1  A    between atoms: O1_1  and  C1_2 
REMARK    2  A    between atoms: C5_6  and  N1_7 
REMARK    3  A    between atoms: C8_13  and  C9_14 
REMARK    4  A    between atoms: C9_14  and  C10_15 
ROOT
HETATM    1  N1  UNL     1      22.683   1.030  52.448  1.00  0.00    -0.226 N 
HETATM    2  C6  UNL     1      22.951   2.190  51.641  1.00  0.00     0.238 C 
HETATM    3  N2  UNL     1      24.123   2.598  51.252  1.00  0.00    -0.211 NA
HETATM    4  C7  UNL     1      25.406   2.033  51.508  1.00  0.00     0.226 C 
HETATM    5 CL1  UNL     1      26.712   2.798  50.628  1.00  0.00    -0.041 Cl
HETATM    6  N3  UNL     1      25.745   1.041  52.294  1.00  0.00    -0.201 NA
HETATM    7  C8  UNL     1      24.905   0.243  53.121  1.00  0.00     0.156 C 
HETATM    8  N4  UNL     1      23.595   0.245  53.180  1.00  0.00    -0.150 NA
ENDROOT
BRANCH   1   9
HETATM    9  C5  UNL     1      21.300   0.677  52.472  1.00  0.00     0.059 C 
HETATM   10  C4  UNL     1      20.574   0.800  51.371  1.00  0.00     0.031 C 
HETATM   11  C3  UNL     1      19.155   0.492  51.206  1.00  0.00     0.001 C 
HETATM   12  C2  UNL     1      18.396  -0.282  51.953  1.00  0.00     0.008 C 
HETATM   13  C1  UNL     1      18.641  -1.096  53.169  1.00  0.00     0.164 C 
HETATM   14  C15 UNL     1      19.746  -0.517  53.992  1.00  0.00     0.011 C 
HETATM   15  C14 UNL     1      20.836   0.201  53.772  1.00  0.00     0.030 C 
BRANCH  13  16
HETATM   16  O1  UNL     1      17.511  -1.266  53.934  1.00  0.00    -0.388 OA
HETATM   17  H1  UNL     1      17.716  -0.954  54.870  1.00  0.00     0.210 HD
ENDBRANCH  13  16
ENDBRANCH   1   9
BRANCH   7  18
HETATM   18  C9  UNL     1      25.597  -0.710  54.028  1.00  0.00     0.147 C 
BRANCH  18  19
HETATM   19  C10 UNL     1      27.076  -0.478  53.959  1.00  0.00     0.059 A 
HETATM   20  C11 UNL     1      27.815   0.566  54.477  1.00  0.00     0.035 A 
HETATM   21  C12 UNL     1      29.114   0.302  54.138  1.00  0.00     0.027 A 
HETATM   22  C13 UNL     1      29.148  -0.877  53.433  1.00  0.00     0.142 A 
HETATM   23  O2  UNL     1      27.918  -1.298  53.355  1.00  0.00    -0.327 OA
ENDBRANCH  18  19
ENDBRANCH   7  18
TORSDOF 4
ENDMDL
MODEL 6
REMARK VINA RESULT:      -7.8      2.984      6.513
REMARK  4 active torsions:
REMARK  status: ('A' for Active; 'I' for Inactive)
REMARK    1  A    between atoms: O1_1  and  C1_2 
REMARK    2  A    between atoms: C5_6  and  N1_7 
REMARK    3  A    between atoms: C8_13  and  C9_14 
REMARK    4  A    between atoms: C9_14  and  C10_15 
ROOT
HETATM    1  N1  UNL     1      25.121   1.370  52.173  1.00  0.00    -0.226 N 
HETATM    2  C6  UNL     1      24.155   0.640  52.949  1.00  0.00     0.238 C 
HETATM    3  N2  UNL     1      22.902   0.471  52.647  1.00  0.00    -0.211 NA
HETATM    4  C7  UNL     1      22.174   0.939  51.515  1.00  0.00     0.226 C 
HETATM    5 CL1  UNL     1      20.543   0.315  51.406  1.00  0.00    -0.041 Cl
HETATM    6  N3  UNL     1      22.543   1.758  50.561  1.00  0.00    -0.201 NA
HETATM    7  C8  UNL     1      23.795   2.413  50.393  1.00  0.00     0.156 C 
HETATM    8  N4  UNL     1      24.894   2.240  51.088  1.00  0.00    -0.150 NA
ENDROOT
BRANCH   1   9
HETATM    9  C5  UNL     1      26.464   1.145  52.603  1.00  0.00     0.059 C 
HETATM   10  C4  UNL     1      27.164   2.146  53.113  1.00  0.00     0.031 C 
HETATM   11  C3  UNL     1      28.542   2.105  53.602  1.00  0.00     0.001 C 
HETATM   12  C2  UNL     1      29.245   1.056  53.975  1.00  0.00     0.008 C 
HETATM   13  C1  UNL     1      28.959  -0.398  54.052  1.00  0.00     0.164 C 
HETATM   14  C15 UNL     1      27.941  -0.801  53.035  1.00  0.00     0.011 C 
HETATM   15  C14 UNL     1      26.919  -0.231  52.416  1.00  0.00     0.030 C 
BRANCH  13  16
HETATM   16  O1  UNL     1      30.089  -1.171  53.931  1.00  0.00    -0.388 OA
HETATM   17  H1  UNL     1      30.817  -0.750  54.487  1.00  0.00     0.210 HD
ENDBRANCH  13  16
ENDBRANCH   1   9
BRANCH   7  18
HETATM   18  C9  UNL     1      23.868   3.413  49.296  1.00  0.00     0.147 C 
BRANCH  18  19
HETATM   19  C10 UNL     1      24.290   4.737  49.859  1.00  0.00     0.059 A 
HETATM   20  C11 UNL     1      25.399   5.498  49.548  1.00  0.00     0.035 A 
HETATM   21  C12 UNL     1      25.316   6.610  50.340  1.00  0.00     0.027 A 
HETATM   22  C13 UNL     1      24.180   6.514  51.107  1.00  0.00     0.142 A 
HETATM   23  O2  UNL     1      23.609   5.390  50.785  1.00  0.00    -0.327 OA
ENDBRANCH  18  19
ENDBRANCH   7  18
TORSDOF 4
ENDMDL
MODEL 7
REMARK VINA RESULT:      -7.8      3.163      6.809
REMARK  4 active torsions:
REMARK  status: ('A' for Active; 'I' for Inactive)
REMARK    1  A    between atoms: O1_1  and  C1_2 
REMARK    2  A    between atoms: C5_6  and  N1_7 
REMARK    3  A    between atoms: C8_13  and  C9_14 
REMARK    4  A    between atoms: C9_14  and  C10_15 
ROOT
HETATM    1  N1  UNL     1      24.549   0.596  53.537  1.00  0.00    -0.226 N 
HETATM    2  C6  UNL     1      24.136  -0.562  54.284  1.00  0.00     0.238 C 
HETATM    3  N2  UNL     1      22.925  -1.031  54.361  1.00  0.00    -0.211 NA
HETATM    4  C7  UNL     1      21.730  -0.549  53.754  1.00  0.00     0.226 C 
HETATM    5 CL1  UNL     1      20.346  -1.600  53.967  1.00  0.00    -0.041 Cl
HETATM    6  N3  UNL     1      21.519   0.549  53.072  1.00  0.00    -0.201 NA
HETATM    7  C8  UNL     1      22.447   1.578  52.745  1.00  0.00     0.156 C 
HETATM    8  N4  UNL     1      23.742   1.589  52.948  1.00  0.00    -0.150 NA
ENDROOT
BRANCH   1   9
HETATM    9  C5  UNL     1      25.967   0.698  53.410  1.00  0.00     0.059 C 
HETATM   10  C4  UNL     1      26.556   1.873  53.568  1.00  0.00     0.031 C 
HETATM   11  C3  UNL     1      27.984   2.168  53.475  1.00  0.00     0.001 C 
HETATM   12  C2  UNL     1      28.999   1.335  53.576  1.00  0.00     0.008 C 
HETATM   13  C1  UNL     1      29.108  -0.126  53.808  1.00  0.00     0.164 C 
HETATM   14  C15 UNL     1      27.905  -0.846  53.289  1.00  0.00     0.011 C 
HETATM   15  C14 UNL     1      26.624  -0.571  53.105  1.00  0.00     0.030 C 
BRANCH  13  16
HETATM   16  O1  UNL     1      30.256  -0.666  53.277  1.00  0.00    -0.388 OA
HETATM   17  H1  UNL     1      30.844  -0.963  54.040  1.00  0.00     0.210 HD
ENDBRANCH  13  16
ENDBRANCH   1   9
BRANCH   7  18
HETATM   18  C9  UNL     1      21.879   2.788  52.093  1.00  0.00     0.147 C 
BRANCH  18  19
HETATM   19  C10 UNL     1      22.459   2.931  50.718  1.00  0.00     0.059 A 
HETATM   20  C11 UNL     1      22.285   2.120  49.615  1.00  0.00     0.035 A 
HETATM   21  C12 UNL     1      23.028   2.690  48.618  1.00  0.00     0.027 A 
HETATM   22  C13 UNL     1      23.631   3.819  49.117  1.00  0.00     0.142 A 
HETATM   23  O2  UNL     1      23.262   3.918  50.362  1.00  0.00    -0.327 OA
ENDBRANCH  18  19
ENDBRANCH   7  18
TORSDOF 4
ENDMDL
MODEL 8
REMARK VINA RESULT:      -7.7      1.723      2.172
REMARK  4 active torsions:
REMARK  status: ('A' for Active; 'I' for Inactive)
REMARK    1  A    between atoms: O1_1  and  C1_2 
REMARK    2  A    between atoms: C5_6  and  N1_7 
REMARK    3  A    between atoms: C8_13  and  C9_14 
REMARK    4  A    between atoms: C9_14  and  C10_15 
ROOT
HETATM    1  N1  UNL     1      22.966   1.775  51.693  1.00  0.00    -0.226 N 
HETATM    2  C6  UNL     1      22.092   2.718  51.046  1.00  0.00     0.238 C 
HETATM    3  N2  UNL     1      22.451   3.640  50.203  1.00  0.00    -0.211 NA
HETATM    4  C7  UNL     1      23.750   3.957  49.709  1.00  0.00     0.226 C 
HETATM    5 CL1  UNL     1      23.757   5.155  48.434  1.00  0.00    -0.041 Cl
HETATM    6  N3  UNL     1      24.920   3.490  50.067  1.00  0.00    -0.201 NA
HETATM    7  C8  UNL     1      25.217   2.519  51.065  1.00  0.00     0.156 C 
HETATM    8  N4  UNL     1      24.374   1.790  51.755  1.00  0.00    -0.150 NA
ENDROOT
BRANCH   1   9
HETATM    9  C5  UNL     1      22.261   0.713  52.334  1.00  0.00     0.059 C 
HETATM   10  C4  UNL     1      22.876  -0.025  53.245  1.00  0.00     0.031 C 
HETATM   11  C3  UNL     1      22.320  -1.146  54.000  1.00  0.00     0.001 C 
HETATM   12  C2  UNL     1      21.054  -1.436  54.218  1.00  0.00     0.008 C 
HETATM   13  C1  UNL     1      19.773  -0.802  53.823  1.00  0.00     0.164 C 
HETATM   14  C15 UNL     1      19.913  -0.062  52.532  1.00  0.00     0.011 C 
HETATM   15  C14 UNL     1      20.880   0.566  51.881  1.00  0.00     0.030 C 
BRANCH  13  16
HETATM   16  O1  UNL     1      18.734  -1.699  53.751  1.00  0.00    -0.388 OA
HETATM   17  H1  UNL     1      18.886  -2.412  54.447  1.00  0.00     0.210 HD
ENDBRANCH  13  16
ENDBRANCH   1   9
BRANCH   7  18
HETATM   18  C9  UNL     1      26.658   2.304  51.360  1.00  0.00     0.147 C 
BRANCH  18  19
HETATM   19  C10 UNL     1      26.807   1.135  52.286  1.00  0.00     0.059 A 
HETATM   20  C11 UNL     1      26.758  -0.213  51.995  1.00  0.00     0.035 A 
HETATM   21  C12 UNL     1      26.951  -0.855  53.188  1.00  0.00     0.027 A 
HETATM   22  C13 UNL     1      27.113   0.092  54.169  1.00  0.00     0.142 A 
HETATM   23  O2  UNL     1      27.020   1.252  53.585  1.00  0.00    -0.327 OA
ENDBRANCH  18  19
ENDBRANCH   7  18
TORSDOF 4
ENDMDL
MODEL 9
REMARK VINA RESULT:      -7.7      1.954      5.880
REMARK  4 active torsions:
REMARK  status: ('A' for Active; 'I' for Inactive)
REMARK    1  A    between atoms: O1_1  and  C1_2 
REMARK    2  A    between atoms: C5_6  and  N1_7 
REMARK    3  A    between atoms: C8_13  and  C9_14 
REMARK    4  A    between atoms: C9_14  and  C10_15 
ROOT
HETATM    1  N1  UNL     1      24.889   1.813  51.561  1.00  0.00    -0.226 N 
HETATM    2  C6  UNL     1      25.323   2.781  50.590  1.00  0.00     0.238 C 
HETATM    3  N2  UNL     1      24.574   3.359  49.698  1.00  0.00    -0.211 NA
HETATM    4  C7  UNL     1      23.180   3.199  49.448  1.00  0.00     0.226 C 
HETATM    5 CL1  UNL     1      22.532   4.320  48.271  1.00  0.00    -0.041 Cl
HETATM    6  N3  UNL     1      22.328   2.348  49.963  1.00  0.00    -0.201 NA
HETATM    7  C8  UNL     1      22.568   1.333  50.931  1.00  0.00     0.156 C 
HETATM    8  N4  UNL     1      23.668   1.112  51.611  1.00  0.00    -0.150 NA
ENDROOT
BRANCH   1   9
HETATM    9  C5  UNL     1      25.859   1.575  52.581  1.00  0.00     0.059 C 
HETATM   10  C4  UNL     1      25.637   0.639  53.491  1.00  0.00     0.031 C 
HETATM   11  C3  UNL     1      26.508   0.257  54.601  1.00  0.00     0.001 C 
HETATM   12  C2  UNL     1      27.800   0.474  54.737  1.00  0.00     0.008 C 
HETATM   13  C1  UNL     1      28.824   1.138  53.893  1.00  0.00     0.164 C 
HETATM   14  C15 UNL     1      28.214   2.205  53.043  1.00  0.00     0.011 C 
HETATM   15  C14 UNL     1      27.035   2.437  52.487  1.00  0.00     0.030 C 
BRANCH  13  16
HETATM   16  O1  UNL     1      29.869   1.648  54.626  1.00  0.00    -0.388 OA
HETATM   17  H1  UNL     1      29.693   2.628  54.784  1.00  0.00     0.210 HD
ENDBRANCH  13  16
ENDBRANCH   1   9
BRANCH   7  18
HETATM   18  C9  UNL     1      21.435   0.411  51.207  1.00  0.00     0.147 C 
BRANCH  18  19
HETATM   19  C10 UNL     1      21.508  -0.055  52.630  1.00  0.00     0.059 A 
HETATM   20  C11 UNL     1      21.004   0.544  53.766  1.00  0.00     0.035 A 
HETATM   21  C12 UNL     1      21.341  -0.285  54.801  1.00  0.00     0.027 A 
HETATM   22  C13 UNL     1      22.032  -1.357  54.291  1.00  0.00     0.142 A 
HETATM   23  O2  UNL     1      22.103  -1.175  53.004  1.00  0.00    -0.327 OA
ENDBRANCH  18  19
ENDBRANCH   7  18
TORSDOF 4
ENDMDL
