MODEL 1
REMARK VINA RESULT:      -7.3      0.000      0.000
REMARK  3 active torsions:
REMARK  status: ('A' for Active; 'I' for Inactive)
REMARK    1  A    between atoms: C2_2  and  C3_3 
REMARK    2  A    between atoms: C11_14  and  C12_15 
REMARK    3  A    between atoms: C12_15  and  N4_16 
ROOT
HETATM    1  C3  UNL     1      26.040   1.303  52.403  1.00  0.00    -0.079 C 
HETATM    2  C4  UNL     1      25.260   1.939  53.304  1.00  0.00     0.022 C 
HETATM    3  C5  UNL     1      24.320   3.069  53.388  1.00  0.00     0.118 C 
HETATM    4  N1  UNL     1      24.096   3.771  52.390  1.00  0.00    -0.255 NA
HETATM    5  C6  UNL     1      23.272   4.855  52.246  1.00  0.00     0.228 C 
HETATM    6  N2  UNL     1      23.706   4.900  51.042  1.00  0.00    -0.264 NA
HETATM    7  C7  UNL     1      23.420   5.763  49.968  1.00  0.00     0.267 C 
HETATM    8  N3  UNL     1      24.127   5.449  48.720  1.00  0.00    -0.394 N 
HETATM    9  C8  UNL     1      24.613   4.233  49.213  1.00  0.00     0.041 A 
HETATM   10  C9  UNL     1      23.613   3.202  49.002  1.00  0.00     0.039 C 
HETATM   11  C10 UNL     1      25.767   3.874  49.718  1.00  0.00     0.006 A 
HETATM   12  C11 UNL     1      25.823   5.258  49.342  1.00  0.00     0.064 A 
HETATM   13  C16 UNL     1      26.602   2.864  50.485  1.00  0.00     0.018 C 
HETATM   14  C17 UNL     1      25.609   1.962  51.184  1.00  0.00     0.035 C 
HETATM   15  H11 UNL     1      24.591   5.311  47.804  1.00  0.00     0.155 HD
ENDROOT
BRANCH  12  16
HETATM   16  C12 UNL     1      26.297   6.459  49.164  1.00  0.00     0.067 C 
BRANCH  16  17
HETATM   17  N4  UNL     1      26.848   7.648  48.632  1.00  0.00    -0.380 N 
HETATM   18  C13 UNL     1      28.147   8.201  48.969  1.00  0.00     0.150 C 
HETATM   19  C14 UNL     1      28.058   9.615  49.433  1.00  0.00     0.205 C 
HETATM   20  O1  UNL     1      26.827   9.977  49.946  1.00  0.00    -0.317 OA
HETATM   21  S1  UNL     1      25.748  10.024  48.589  1.00  0.00     0.008 SA
HETATM   22  C15 UNL     1      26.129   8.491  47.656  1.00  0.00     0.227 C 
ENDBRANCH  16  17
ENDBRANCH  12  16
BRANCH   1  23
HETATM   23  C2  UNL     1      27.017   0.164  52.262  1.00  0.00     0.029 C 
HETATM   24  C1  UNL     1      26.446  -1.153  52.670  1.00  0.00     0.010 C 
ENDBRANCH   1  23
TORSDOF 3
ENDMDL
MODEL 2
REMARK VINA RESULT:      -6.9      5.018      7.034
REMARK  3 active torsions:
REMARK  status: ('A' for Active; 'I' for Inactive)
REMARK    1  A    between atoms: C2_2  and  C3_3 
REMARK    2  A    between atoms: C11_14  and  C12_15 
REMARK    3  A    between atoms: C12_15  and  N4_16 
ROOT
HETATM    1  C3  UNL     1      25.391   6.924  49.578  1.00  0.00    -0.079 C 
HETATM    2  C4  UNL     1      25.807   7.998  50.283  1.00  0.00     0.022 C 
HETATM    3  C5  UNL     1      26.939   8.937  50.350  1.00  0.00     0.118 C 
HETATM    4  N1  UNL     1      27.909   8.803  49.589  1.00  0.00    -0.255 NA
HETATM    5  C6  UNL     1      29.052   9.550  49.482  1.00  0.00     0.228 C 
HETATM    6  N2  UNL     1      29.400   8.707  48.581  1.00  0.00    -0.264 NA
HETATM    7  C7  UNL     1      30.550   8.607  47.778  1.00  0.00     0.267 C 
HETATM    8  N3  UNL     1      30.545   7.483  46.832  1.00  0.00    -0.394 N 
HETATM    9  C8  UNL     1      29.205   7.174  47.090  1.00  0.00     0.041 A 
HETATM   10  C9  UNL     1      28.358   7.996  46.244  1.00  0.00     0.039 C 
HETATM   11  C10 UNL     1      28.628   6.274  47.847  1.00  0.00     0.006 A 
HETATM   12  C11 UNL     1      30.052   6.127  47.936  1.00  0.00     0.064 A 
HETATM   13  C16 UNL     1      27.379   5.747  48.532  1.00  0.00     0.018 C 
HETATM   14  C17 UNL     1      26.399   6.900  48.534  1.00  0.00     0.035 C 
HETATM   15  H11 UNL     1      30.634   6.712  46.146  1.00  0.00     0.155 HD
ENDROOT
BRANCH  12  16
HETATM   16  C12 UNL     1      31.213   5.657  48.298  1.00  0.00     0.067 C 
BRANCH  16  17
HETATM   17  N4  UNL     1      32.502   5.078  48.339  1.00  0.00    -0.380 N 
HETATM   18  C13 UNL     1      33.712   5.742  48.792  1.00  0.00     0.150 C 
HETATM   19  C14 UNL     1      34.799   5.695  47.771  1.00  0.00     0.205 C 
HETATM   20  O1  UNL     1      34.362   5.529  46.472  1.00  0.00    -0.317 OA
HETATM   21  S1  UNL     1      33.775   3.899  46.377  1.00  0.00     0.008 SA
HETATM   22  C15 UNL     1      32.769   3.694  47.897  1.00  0.00     0.227 C 
ENDBRANCH  16  17
ENDBRANCH  12  16
BRANCH   1  23
HETATM   23  C2  UNL     1      24.264   5.930  49.471  1.00  0.00     0.029 C 
HETATM   24  C1  UNL     1      23.608   5.929  48.131  1.00  0.00     0.010 C 
ENDBRANCH   1  23
TORSDOF 3
ENDMDL
MODEL 3
REMARK VINA RESULT:      -6.9      2.912      3.512
REMARK  3 active torsions:
REMARK  status: ('A' for Active; 'I' for Inactive)
REMARK    1  A    between atoms: C2_2  and  C3_3 
REMARK    2  A    between atoms: C11_14  and  C12_15 
REMARK    3  A    between atoms: C12_15  and  N4_16 
ROOT
HETATM    1  C3  UNL     1      21.662   0.197  52.949  1.00  0.00    -0.079 C 
HETATM    2  C4  UNL     1      20.655   1.069  53.165  1.00  0.00     0.022 C 
HETATM    3  C5  UNL     1      20.071   2.290  52.585  1.00  0.00     0.118 C 
HETATM    4  N1  UNL     1      20.586   2.816  51.586  1.00  0.00    -0.255 NA
HETATM    5  C6  UNL     1      20.214   3.937  50.894  1.00  0.00     0.228 C 
HETATM    6  N2  UNL     1      21.247   3.711  50.170  1.00  0.00    -0.264 NA
HETATM    7  C7  UNL     1      21.787   4.386  49.060  1.00  0.00     0.267 C 
HETATM    8  N3  UNL     1      22.994   3.772  48.492  1.00  0.00    -0.394 N 
HETATM    9  C8  UNL     1      22.872   2.623  49.282  1.00  0.00     0.041 A 
HETATM   10  C9  UNL     1      21.984   1.685  48.619  1.00  0.00     0.039 C 
HETATM   11  C10 UNL     1      23.449   2.242  50.394  1.00  0.00     0.006 A 
HETATM   12  C11 UNL     1      23.974   3.518  50.001  1.00  0.00     0.064 A 
HETATM   13  C16 UNL     1      23.494   1.307  51.590  1.00  0.00     0.018 C 
HETATM   14  C17 UNL     1      22.127   0.662  51.655  1.00  0.00     0.035 C 
HETATM   15  H11 UNL     1      23.854   3.418  48.036  1.00  0.00     0.155 HD
ENDROOT
BRANCH  12  16
HETATM   16  C12 UNL     1      24.690   4.607  50.027  1.00  0.00     0.067 C 
BRANCH  16  17
HETATM   17  N4  UNL     1      25.144   5.945  50.064  1.00  0.00    -0.380 N 
HETATM   18  C13 UNL     1      24.618   6.991  50.923  1.00  0.00     0.150 C 
HETATM   19  C14 UNL     1      24.189   8.194  50.153  1.00  0.00     0.205 C 
HETATM   20  O1  UNL     1      23.874   7.949  48.831  1.00  0.00    -0.317 OA
HETATM   21  S1  UNL     1      25.380   7.597  48.046  1.00  0.00     0.008 SA
HETATM   22  C15 UNL     1      26.228   6.443  49.194  1.00  0.00     0.227 C 
ENDBRANCH  16  17
ENDBRANCH  12  16
BRANCH   1  23
HETATM   23  C2  UNL     1      22.306  -1.046  53.505  1.00  0.00     0.029 C 
HETATM   24  C1  UNL     1      22.298  -1.094  54.997  1.00  0.00     0.010 C 
ENDBRANCH   1  23
TORSDOF 3
ENDMDL
MODEL 4
REMARK VINA RESULT:      -6.8      4.709      6.887
REMARK  3 active torsions:
REMARK  status: ('A' for Active; 'I' for Inactive)
REMARK    1  A    between atoms: C2_2  and  C3_3 
REMARK    2  A    between atoms: C11_14  and  C12_15 
REMARK    3  A    between atoms: C12_15  and  N4_16 
ROOT
HETATM    1  C3  UNL     1      21.802   2.882  47.607  1.00  0.00    -0.079 C 
HETATM    2  C4  UNL     1      21.044   1.939  48.207  1.00  0.00     0.022 C 
HETATM    3  C5  UNL     1      20.840   1.324  49.530  1.00  0.00     0.118 C 
HETATM    4  N1  UNL     1      21.540   1.667  50.494  1.00  0.00    -0.255 NA
HETATM    5  C6  UNL     1      21.522   1.233  51.792  1.00  0.00     0.228 C 
HETATM    6  N2  UNL     1      22.507   2.033  51.969  1.00  0.00    -0.264 NA
HETATM    7  C7  UNL     1      23.278   2.341  53.105  1.00  0.00     0.267 C 
HETATM    8  N3  UNL     1      24.320   3.354  52.885  1.00  0.00    -0.394 N 
HETATM    9  C8  UNL     1      23.849   3.669  51.606  1.00  0.00     0.041 A 
HETATM   10  C9  UNL     1      22.795   4.661  51.720  1.00  0.00     0.039 C 
HETATM   11  C10 UNL     1      24.229   3.313  50.405  1.00  0.00     0.006 A 
HETATM   12  C11 UNL     1      25.094   2.707  51.375  1.00  0.00     0.064 A 
HETATM   13  C16 UNL     1      23.948   3.231  48.914  1.00  0.00     0.018 C 
HETATM   14  C17 UNL     1      22.459   3.455  48.768  1.00  0.00     0.035 C 
HETATM   15  H11 UNL     1      25.086   4.047  52.820  1.00  0.00     0.155 HD
ENDROOT
BRANCH  12  16
HETATM   16  C12 UNL     1      26.066   1.993  51.872  1.00  0.00     0.067 C 
BRANCH  16  17
HETATM   17  N4  UNL     1      26.951   0.953  52.237  1.00  0.00    -0.380 N 
HETATM   18  C13 UNL     1      26.804  -0.446  51.878  1.00  0.00     0.150 C 
HETATM   19  C14 UNL     1      26.826  -1.341  53.071  1.00  0.00     0.205 C 
HETATM   20  O1  UNL     1      26.466  -0.731  54.256  1.00  0.00    -0.317 OA
HETATM   21  S1  UNL     1      27.772   0.342  54.647  1.00  0.00     0.008 SA
HETATM   22  C15 UNL     1      28.154   1.184  53.063  1.00  0.00     0.227 C 
ENDBRANCH  16  17
ENDBRANCH  12  16
BRANCH   1  23
HETATM   23  C2  UNL     1      22.060   3.538  46.276  1.00  0.00     0.029 C 
HETATM   24  C1  UNL     1      21.954   5.025  46.325  1.00  0.00     0.010 C 
ENDBRANCH   1  23
TORSDOF 3
ENDMDL
MODEL 5
REMARK VINA RESULT:      -6.7      4.835      6.990
REMARK  3 active torsions:
REMARK  status: ('A' for Active; 'I' for Inactive)
REMARK    1  A    between atoms: C2_2  and  C3_3 
REMARK    2  A    between atoms: C11_14  and  C12_15 
REMARK    3  A    between atoms: C12_15  and  N4_16 
ROOT
HETATM    1  C3  UNL     1      18.680   1.514  50.601  1.00  0.00    -0.079 C 
HETATM    2  C4  UNL     1      18.572   2.712  51.215  1.00  0.00     0.022 C 
HETATM    3  C5  UNL     1      19.395   3.882  51.565  1.00  0.00     0.118 C 
HETATM    4  N1  UNL     1      20.605   3.900  51.293  1.00  0.00    -0.255 NA
HETATM    5  C6  UNL     1      21.543   4.870  51.524  1.00  0.00     0.228 C 
HETATM    6  N2  UNL     1      22.376   4.049  51.000  1.00  0.00    -0.264 NA
HETATM    7  C7  UNL     1      23.758   4.137  50.756  1.00  0.00     0.267 C 
HETATM    8  N3  UNL     1      24.344   2.960  50.099  1.00  0.00    -0.394 N 
HETATM    9  C8  UNL     1      23.093   2.385  49.848  1.00  0.00     0.041 A 
HETATM   10  C9  UNL     1      22.567   2.919  48.604  1.00  0.00     0.039 C 
HETATM   11  C10 UNL     1      22.405   1.450  50.454  1.00  0.00     0.006 A 
HETATM   12  C11 UNL     1      23.657   1.632  51.131  1.00  0.00     0.064 A 
HETATM   13  C16 UNL     1      21.089   0.721  50.662  1.00  0.00     0.018 C 
HETATM   14  C17 UNL     1      20.027   1.622  50.071  1.00  0.00     0.035 C 
HETATM   15  H11 UNL     1      24.843   2.171  49.652  1.00  0.00     0.155 HD
ENDROOT
BRANCH  12  16
HETATM   16  C12 UNL     1      24.612   1.467  52.003  1.00  0.00     0.067 C 
BRANCH  16  17
HETATM   17  N4  UNL     1      25.844   1.231  52.654  1.00  0.00    -0.380 N 
HETATM   18  C13 UNL     1      27.004   0.591  52.060  1.00  0.00     0.150 C 
HETATM   19  C14 UNL     1      27.482  -0.572  52.862  1.00  0.00     0.205 C 
HETATM   20  O1  UNL     1      26.522  -1.148  53.671  1.00  0.00    -0.317 OA
HETATM   21  S1  UNL     1      26.223   0.002  54.936  1.00  0.00     0.008 SA
HETATM   22  C15 UNL     1      26.087   1.609  54.061  1.00  0.00     0.227 C 
ENDBRANCH  16  17
ENDBRANCH  12  16
BRANCH   1  23
HETATM   23  C2  UNL     1      17.889   0.288  50.228  1.00  0.00     0.029 C 
HETATM   24  C1  UNL     1      16.500   0.600  49.781  1.00  0.00     0.010 C 
ENDBRANCH   1  23
TORSDOF 3
ENDMDL
MODEL 6
REMARK VINA RESULT:      -6.7      3.599      4.925
REMARK  3 active torsions:
REMARK  status: ('A' for Active; 'I' for Inactive)
REMARK    1  A    between atoms: C2_2  and  C3_3 
REMARK    2  A    between atoms: C11_14  and  C12_15 
REMARK    3  A    between atoms: C12_15  and  N4_16 
ROOT
HETATM    1  C3  UNL     1      23.446  -0.420  53.320  1.00  0.00    -0.079 C 
HETATM    2  C4  UNL     1      24.768  -0.440  53.049  1.00  0.00     0.022 C 
HETATM    3  C5  UNL     1      25.813   0.407  52.448  1.00  0.00     0.118 C 
HETATM    4  N1  UNL     1      25.522   1.513  51.970  1.00  0.00    -0.255 NA
HETATM    5  C6  UNL     1      26.323   2.449  51.370  1.00  0.00     0.228 C 
HETATM    6  N2  UNL     1      25.243   3.118  51.200  1.00  0.00    -0.264 NA
HETATM    7  C7  UNL     1      24.993   4.369  50.608  1.00  0.00     0.267 C 
HETATM    8  N3  UNL     1      23.588   4.797  50.641  1.00  0.00    -0.394 N 
HETATM    9  C8  UNL     1      23.211   3.750  51.489  1.00  0.00     0.041 A 
HETATM   10  C9  UNL     1      23.449   4.147  52.865  1.00  0.00     0.039 C 
HETATM   11  C10 UNL     1      22.641   2.591  51.274  1.00  0.00     0.006 A 
HETATM   12  C11 UNL     1      22.773   3.293  50.030  1.00  0.00     0.064 A 
HETATM   13  C16 UNL     1      22.266   1.206  51.771  1.00  0.00     0.018 C 
HETATM   14  C17 UNL     1      23.138   0.957  52.982  1.00  0.00     0.035 C 
HETATM   15  H11 UNL     1      22.624   5.172  50.606  1.00  0.00     0.155 HD
ENDROOT
BRANCH  12  16
HETATM   16  C12 UNL     1      22.692   3.546  48.753  1.00  0.00     0.067 C 
BRANCH  16  17
HETATM   17  N4  UNL     1      22.438   4.116  47.485  1.00  0.00    -0.380 N 
HETATM   18  C13 UNL     1      22.632   5.511  47.133  1.00  0.00     0.150 C 
HETATM   19  C14 UNL     1      21.399   6.129  46.565  1.00  0.00     0.205 C 
HETATM   20  O1  UNL     1      20.222   5.506  46.932  1.00  0.00    -0.317 OA
HETATM   21  S1  UNL     1      20.218   3.983  46.102  1.00  0.00     0.008 SA
HETATM   22  C15 UNL     1      21.916   3.331  46.349  1.00  0.00     0.227 C 
ENDBRANCH  16  17
ENDBRANCH  12  16
BRANCH   1  23
HETATM   23  C2  UNL     1      22.336  -1.247  53.915  1.00  0.00     0.029 C 
HETATM   24  C1  UNL     1      21.554  -0.518  54.955  1.00  0.00     0.010 C 
ENDBRANCH   1  23
TORSDOF 3
ENDMDL
MODEL 7
REMARK VINA RESULT:      -6.6      4.198      6.061
REMARK  3 active torsions:
REMARK  status: ('A' for Active; 'I' for Inactive)
REMARK    1  A    between atoms: C2_2  and  C3_3 
REMARK    2  A    between atoms: C11_14  and  C12_15 
REMARK    3  A    between atoms: C12_15  and  N4_16 
ROOT
HETATM    1  C3  UNL     1      25.778   0.897  52.294  1.00  0.00    -0.079 C 
HETATM    2  C4  UNL     1      26.479   1.537  51.334  1.00  0.00     0.022 C 
HETATM    3  C5  UNL     1      26.464   2.797  50.572  1.00  0.00     0.118 C 
HETATM    4  N1  UNL     1      25.555   3.622  50.746  1.00  0.00    -0.255 NA
HETATM    5  C6  UNL     1      25.347   4.839  50.153  1.00  0.00     0.228 C 
HETATM    6  N2  UNL     1      24.280   4.890  50.861  1.00  0.00    -0.264 NA
HETATM    7  C7  UNL     1      23.270   5.862  50.975  1.00  0.00     0.267 C 
HETATM    8  N3  UNL     1      22.210   5.539  51.940  1.00  0.00    -0.394 N 
HETATM    9  C8  UNL     1      22.901   4.432  52.442  1.00  0.00     0.041 A 
HETATM   10  C9  UNL     1      23.819   4.875  53.476  1.00  0.00     0.039 C 
HETATM   11  C10 UNL     1      22.806   3.145  52.217  1.00  0.00     0.006 A 
HETATM   12  C11 UNL     1      21.819   3.838  51.439  1.00  0.00     0.064 A 
HETATM   13  C16 UNL     1      23.390   1.749  52.340  1.00  0.00     0.018 C 
HETATM   14  C17 UNL     1      24.852   1.947  52.675  1.00  0.00     0.035 C 
HETATM   15  H11 UNL     1      21.415   5.390  52.585  1.00  0.00     0.155 HD
ENDROOT
BRANCH  12  16
HETATM   16  C12 UNL     1      20.833   4.035  50.609  1.00  0.00     0.067 C 
BRANCH  16  17
HETATM   17  N4  UNL     1      19.635   3.952  49.863  1.00  0.00    -0.380 N 
HETATM   18  C13 UNL     1      18.515   4.871  49.960  1.00  0.00     0.150 C 
HETATM   19  C14 UNL     1      17.230   4.169  50.243  1.00  0.00     0.205 C 
HETATM   20  O1  UNL     1      17.369   2.939  50.855  1.00  0.00    -0.317 OA
HETATM   21  S1  UNL     1      18.039   1.887  49.649  1.00  0.00     0.008 SA
HETATM   22  C15 UNL     1      19.380   2.877  48.882  1.00  0.00     0.227 C 
ENDBRANCH  16  17
ENDBRANCH  12  16
BRANCH   1  23
HETATM   23  C2  UNL     1      25.740  -0.379  53.095  1.00  0.00     0.029 C 
HETATM   24  C1  UNL     1      26.773  -1.368  52.672  1.00  0.00     0.010 C 
ENDBRANCH   1  23
TORSDOF 3
ENDMDL
MODEL 8
REMARK VINA RESULT:      -6.6      6.680      8.653
REMARK  3 active torsions:
REMARK  status: ('A' for Active; 'I' for Inactive)
REMARK    1  A    between atoms: C2_2  and  C3_3 
REMARK    2  A    between atoms: C11_14  and  C12_15 
REMARK    3  A    between atoms: C12_15  and  N4_16 
ROOT
HETATM    1  C3  UNL     1      32.926   3.042  46.720  1.00  0.00    -0.079 C 
HETATM    2  C4  UNL     1      32.913   3.628  45.504  1.00  0.00     0.022 C 
HETATM    3  C5  UNL     1      33.102   4.950  44.883  1.00  0.00     0.118 C 
HETATM    4  N1  UNL     1      33.324   5.946  45.588  1.00  0.00    -0.255 NA
HETATM    5  C6  UNL     1      33.527   7.251  45.227  1.00  0.00     0.228 C 
HETATM    6  N2  UNL     1      33.609   7.483  46.485  1.00  0.00    -0.264 NA
HETATM    7  C7  UNL     1      33.833   8.665  47.212  1.00  0.00     0.267 C 
HETATM    8  N3  UNL     1      33.882   8.491  48.671  1.00  0.00    -0.394 N 
HETATM    9  C8  UNL     1      33.880   7.095  48.579  1.00  0.00     0.041 A 
HETATM   10  C9  UNL     1      35.244   6.631  48.397  1.00  0.00     0.039 C 
HETATM   11  C10 UNL     1      32.937   6.196  48.709  1.00  0.00     0.006 A 
HETATM   12  C11 UNL     1      32.383   7.499  48.933  1.00  0.00     0.064 A 
HETATM   13  C16 UNL     1      32.458   4.767  48.520  1.00  0.00     0.018 C 
HETATM   14  C17 UNL     1      33.415   4.144  47.528  1.00  0.00     0.035 C 
HETATM   15  H11 UNL     1      33.917   8.466  49.705  1.00  0.00     0.155 HD
ENDROOT
BRANCH  12  16
HETATM   16  C12 UNL     1      31.505   8.427  49.197  1.00  0.00     0.067 C 
BRANCH  16  17
HETATM   17  N4  UNL     1      30.513   9.431  49.126  1.00  0.00    -0.380 N 
HETATM   18  C13 UNL     1      29.096   9.237  49.376  1.00  0.00     0.150 C 
HETATM   19  C14 UNL     1      28.252   9.703  48.238  1.00  0.00     0.205 C 
HETATM   20  O1  UNL     1      28.897   9.737  47.017  1.00  0.00    -0.317 OA
HETATM   21  S1  UNL     1      30.030  11.046  47.122  1.00  0.00     0.008 SA
HETATM   22  C15 UNL     1      30.819  10.830  48.764  1.00  0.00     0.227 C 
ENDBRANCH  16  17
ENDBRANCH  12  16
BRANCH   1  23
HETATM   23  C2  UNL     1      32.732   1.716  47.409  1.00  0.00     0.029 C 
HETATM   24  C1  UNL     1      31.999   0.722  46.572  1.00  0.00     0.010 C 
ENDBRANCH   1  23
TORSDOF 3
ENDMDL
MODEL 9
REMARK VINA RESULT:      -6.5      4.465      7.619
REMARK  3 active torsions:
REMARK  status: ('A' for Active; 'I' for Inactive)
REMARK    1  A    between atoms: C2_2  and  C3_3 
REMARK    2  A    between atoms: C11_14  and  C12_15 
REMARK    3  A    between atoms: C12_15  and  N4_16 
ROOT
HETATM    1  C3  UNL     1      33.233   4.631  46.208  1.00  0.00    -0.079 C 
HETATM    2  C4  UNL     1      33.228   5.599  45.267  1.00  0.00     0.022 C 
HETATM    3  C5  UNL     1      32.645   6.928  45.013  1.00  0.00     0.118 C 
HETATM    4  N1  UNL     1      31.866   7.436  45.833  1.00  0.00    -0.255 NA
HETATM    5  C6  UNL     1      31.217   8.641  45.799  1.00  0.00     0.228 C 
HETATM    6  N2  UNL     1      30.690   8.276  46.909  1.00  0.00    -0.264 NA
HETATM    7  C7  UNL     1      29.775   8.908  47.770  1.00  0.00     0.267 C 
HETATM    8  N3  UNL     1      29.439   8.144  48.979  1.00  0.00    -0.394 N 
HETATM    9  C8  UNL     1      30.430   7.187  48.741  1.00  0.00     0.041 A 
HETATM   10  C9  UNL     1      31.688   7.660  49.291  1.00  0.00     0.039 C 
HETATM   11  C10 UNL     1      30.402   5.985  48.221  1.00  0.00     0.006 A 
HETATM   12  C11 UNL     1      29.072   6.522  48.250  1.00  0.00     0.064 A 
HETATM   13  C16 UNL     1      31.142   4.796  47.634  1.00  0.00     0.018 C 
HETATM   14  C17 UNL     1      32.519   5.310  47.274  1.00  0.00     0.035 C 
HETATM   15  H11 UNL     1      29.133   7.673  49.849  1.00  0.00     0.155 HD
ENDROOT
BRANCH  12  16
HETATM   16  C12 UNL     1      27.780   6.600  48.089  1.00  0.00     0.067 C 
BRANCH  16  17
HETATM   17  N4  UNL     1      26.380   6.668  48.274  1.00  0.00    -0.380 N 
HETATM   18  C13 UNL     1      25.481   7.575  47.583  1.00  0.00     0.150 C 
HETATM   19  C14 UNL     1      24.654   8.380  48.528  1.00  0.00     0.205 C 
HETATM   20  O1  UNL     1      25.199   8.527  49.789  1.00  0.00    -0.317 OA
HETATM   21  S1  UNL     1      25.090   6.964  50.533  1.00  0.00     0.008 SA
HETATM   22  C15 UNL     1      25.659   5.804  49.231  1.00  0.00     0.227 C 
ENDBRANCH  16  17
ENDBRANCH  12  16
BRANCH   1  23
HETATM   23  C2  UNL     1      33.793   3.267  46.515  1.00  0.00     0.029 C 
HETATM   24  C1  UNL     1      34.733   3.265  47.674  1.00  0.00     0.010 C 
ENDBRANCH   1  23
TORSDOF 3
ENDMDL
