MODEL 1
REMARK VINA RESULT:      -8.4      0.000      0.000
REMARK  5 active torsions:
REMARK  status: ('A' for Active; 'I' for Inactive)
REMARK    1  A    between atoms: N1_4  and  N2_5 
REMARK    2  A    between atoms: C8_12  and  N4_13 
REMARK    3  A    between atoms: N4_13  and  P1_14 
REMARK    4  A    between atoms: P1_14  and  C9_15 
REMARK    5  A    between atoms: C9_15  and  N5_16 
ROOT
HETATM    1  N2  UNL     1      24.408  -0.509  54.089  1.00  0.00    -0.246 N 
HETATM    2  C3  UNL     1      23.898  -1.313  55.175  1.00  0.00     0.232 A 
HETATM    3  N3  UNL     1      22.650  -1.306  55.469  1.00  0.00    -0.253 NA
HETATM    4  C4  UNL     1      21.662  -0.531  54.782  1.00  0.00     0.131 A 
HETATM    5  C5  UNL     1      22.028   0.227  53.787  1.00  0.00     0.011 A 
HETATM    6  C6  UNL     1      20.854   0.931  53.231  1.00  0.00     0.013 C 
HETATM    7  C7  UNL     1      20.718   1.991  52.422  1.00  0.00    -0.005 C 
HETATM    8  C8  UNL     1      21.661   2.913  51.737  1.00  0.00     0.100 C 
HETATM    9  C15 UNL     1      22.625   2.193  50.818  1.00  0.00     0.142 C 
HETATM   10  N6  UNL     1      23.849   1.789  51.477  1.00  0.00    -0.395 N 
HETATM   11  C16 UNL     1      24.179   0.866  52.501  1.00  0.00     0.115 C 
HETATM   12  C17 UNL     1      23.434   0.265  53.400  1.00  0.00     0.084 A 
HETATM   13  H23 UNL     1      24.708   2.286  51.130  1.00  0.00     0.159 HD
ENDROOT
BRANCH   8  14
HETATM   14  N4  UNL     1      20.853   3.792  50.888  1.00  0.00    -0.291 NA
HETATM   15  H7  UNL     1      20.275   4.387  51.519  1.00  0.00     0.127 HD
BRANCH  14  16
HETATM   16  P1  UNL     1      21.828   4.691  49.707  1.00  0.00    -0.027 P 
HETATM   17  H8  UNL     1      22.677   3.715  49.004  1.00  0.00     0.075 HD
BRANCH  16  18
HETATM   18  C9  UNL     1      23.004   5.792  50.637  1.00  0.00     0.318 C 
BRANCH  18  19
HETATM   19  N5  UNL     1      24.380   5.502  50.303  1.00  0.00     0.093 N 
HETATM   20  C10 UNL     1      25.187   6.684  50.146  1.00  0.00     0.273 C 
HETATM   21  C11 UNL     1      26.121   6.545  48.971  1.00  0.00     0.030 C 
HETATM   22  C12 UNL     1      26.851   5.223  48.952  1.00  0.00     0.003 C 
HETATM   23  C13 UNL     1      25.965   4.053  49.278  1.00  0.00     0.030 C 
HETATM   24  C14 UNL     1      24.528   4.542  49.253  1.00  0.00     0.273 C 
ENDBRANCH  18  19
ENDBRANCH  16  18
ENDBRANCH  14  16
ENDBRANCH   8  14
BRANCH   1  25
HETATM   25  N1  UNL     1      25.782  -0.580  53.841  1.00  0.00    -0.291 N 
HETATM   26  C2  UNL     1      26.793   0.355  54.274  1.00  0.00     0.130 A 
HETATM   27  C1  UNL     1      28.059   0.145  53.952  1.00  0.00     0.027 A 
HETATM   28 BR1  UNL     1      29.326   1.440  54.570  1.00  0.00    -0.050 Br
HETATM   29  C20 UNL     1      28.523  -0.996  53.173  1.00  0.00     0.018 A 
HETATM   30  C19 UNL     1      27.591  -1.848  52.784  1.00  0.00    -0.004 A 
HETATM   31  C18 UNL     1      26.135  -1.770  53.053  1.00  0.00     0.176 A 
ENDBRANCH   1  25
TORSDOF 5
ENDMDL
MODEL 2
REMARK VINA RESULT:      -7.9      1.471      2.049
REMARK  5 active torsions:
REMARK  status: ('A' for Active; 'I' for Inactive)
REMARK    1  A    between atoms: N1_4  and  N2_5 
REMARK    2  A    between atoms: C8_12  and  N4_13 
REMARK    3  A    between atoms: N4_13  and  P1_14 
REMARK    4  A    between atoms: P1_14  and  C9_15 
REMARK    5  A    between atoms: C9_15  and  N5_16 
ROOT
HETATM    1  N2  UNL     1      24.380   0.403  53.330  1.00  0.00    -0.246 N 
HETATM    2  C3  UNL     1      23.520  -0.633  53.851  1.00  0.00     0.232 A 
HETATM    3  N3  UNL     1      22.246  -0.489  53.858  1.00  0.00    -0.253 NA
HETATM    4  C4  UNL     1      21.561   0.670  53.372  1.00  0.00     0.131 A 
HETATM    5  C5  UNL     1      22.254   1.660  52.883  1.00  0.00     0.011 A 
HETATM    6  C6  UNL     1      21.349   2.743  52.445  1.00  0.00     0.013 C 
HETATM    7  C7  UNL     1      21.541   4.034  52.144  1.00  0.00    -0.005 C 
HETATM    8  C8  UNL     1      22.721   4.939  52.117  1.00  0.00     0.100 C 
HETATM    9  C15 UNL     1      23.820   4.444  51.199  1.00  0.00     0.142 C 
HETATM   10  N6  UNL     1      24.775   3.583  51.865  1.00  0.00    -0.395 N 
HETATM   11  C16 UNL     1      24.724   2.295  52.453  1.00  0.00     0.115 C 
HETATM   12  C17 UNL     1      23.709   1.560  52.845  1.00  0.00     0.084 A 
HETATM   13  H23 UNL     1      25.741   3.992  51.941  1.00  0.00     0.159 HD
ENDROOT
BRANCH   8  14
HETATM   14  N4  UNL     1      22.263   6.216  51.568  1.00  0.00    -0.291 NA
HETATM   15  H7  UNL     1      22.432   6.945  52.294  1.00  0.00     0.127 HD
BRANCH  14  16
HETATM   16  P1  UNL     1      22.970   6.573  49.978  1.00  0.00    -0.027 P 
HETATM   17  H8  UNL     1      23.672   5.361  49.526  1.00  0.00     0.075 HD
BRANCH  16  18
HETATM   18  C9  UNL     1      24.295   7.860  50.205  1.00  0.00     0.318 C 
BRANCH  18  19
HETATM   19  N5  UNL     1      25.399   7.650  49.295  1.00  0.00     0.093 N 
HETATM   20  C10 UNL     1      25.448   6.313  48.761  1.00  0.00     0.273 C 
HETATM   21  C11 UNL     1      26.868   5.807  48.711  1.00  0.00     0.030 C 
HETATM   22  C12 UNL     1      27.829   6.807  48.114  1.00  0.00     0.003 C 
HETATM   23  C13 UNL     1      27.608   8.209  48.611  1.00  0.00     0.030 C 
HETATM   24  C14 UNL     1      26.651   8.136  49.787  1.00  0.00     0.273 C 
ENDBRANCH  18  19
ENDBRANCH  16  18
ENDBRANCH  14  16
ENDBRANCH   8  14
BRANCH   1  25
HETATM   25  N1  UNL     1      25.756   0.158  53.363  1.00  0.00    -0.291 N 
HETATM   26  C2  UNL     1      26.786   1.042  53.854  1.00  0.00     0.130 A 
HETATM   27  C1  UNL     1      28.052   0.661  53.812  1.00  0.00     0.027 A 
HETATM   28 BR1  UNL     1      29.344   1.902  54.486  1.00  0.00    -0.050 Br
HETATM   29  C20 UNL     1      28.496  -0.627  53.294  1.00  0.00     0.018 A 
HETATM   30  C19 UNL     1      27.547  -1.431  52.850  1.00  0.00    -0.004 A 
HETATM   31  C18 UNL     1      26.088  -1.168  52.822  1.00  0.00     0.176 A 
ENDBRANCH   1  25
TORSDOF 5
ENDMDL
MODEL 3
REMARK VINA RESULT:      -7.9      1.351      2.009
REMARK  5 active torsions:
REMARK  status: ('A' for Active; 'I' for Inactive)
REMARK    1  A    between atoms: N1_4  and  N2_5 
REMARK    2  A    between atoms: C8_12  and  N4_13 
REMARK    3  A    between atoms: N4_13  and  P1_14 
REMARK    4  A    between atoms: P1_14  and  C9_15 
REMARK    5  A    between atoms: C9_15  and  N5_16 
ROOT
HETATM    1  N2  UNL     1      24.622  -0.165  54.115  1.00  0.00    -0.246 N 
HETATM    2  C3  UNL     1      24.349  -0.996  55.264  1.00  0.00     0.232 A 
HETATM    3  N3  UNL     1      23.164  -1.430  55.495  1.00  0.00    -0.253 NA
HETATM    4  C4  UNL     1      22.026  -1.149  54.674  1.00  0.00     0.131 A 
HETATM    5  C5  UNL     1      22.175  -0.405  53.614  1.00  0.00     0.011 A 
HETATM    6  C6  UNL     1      20.879  -0.248  52.922  1.00  0.00     0.013 C 
HETATM    7  C7  UNL     1      20.436   0.603  51.986  1.00  0.00    -0.005 C 
HETATM    8  C8  UNL     1      21.032   1.743  51.241  1.00  0.00     0.100 C 
HETATM    9  C15 UNL     1      22.271   1.353  50.462  1.00  0.00     0.142 C 
HETATM   10  N6  UNL     1      23.494   1.501  51.223  1.00  0.00    -0.395 N 
HETATM   11  C16 UNL     1      24.046   0.869  52.365  1.00  0.00     0.115 C 
HETATM   12  C17 UNL     1      23.497   0.120  53.293  1.00  0.00     0.084 A 
HETATM   13  H23 UNL     1      24.138   2.249  50.860  1.00  0.00     0.159 HD
ENDROOT
BRANCH   8  14
HETATM   14  N4  UNL     1      20.037   2.171  50.255  1.00  0.00    -0.291 NA
HETATM   15  H7  UNL     1      19.220   2.547  50.782  1.00  0.00     0.127 HD
BRANCH  14  16
HETATM   16  P1  UNL     1      20.708   3.277  49.038  1.00  0.00    -0.027 P 
HETATM   17  H8  UNL     1      22.076   2.822  48.737  1.00  0.00     0.075 HD
BRANCH  16  18
HETATM   18  C9  UNL     1      20.904   4.954  49.818  1.00  0.00     0.318 C 
BRANCH  18  19
HETATM   19  N5  UNL     1      22.292   5.359  49.866  1.00  0.00     0.093 N 
HETATM   20  C10 UNL     1      23.083   4.797  48.802  1.00  0.00     0.273 C 
HETATM   21  C11 UNL     1      24.433   4.358  49.311  1.00  0.00     0.030 C 
HETATM   22  C12 UNL     1      25.105   5.399  50.174  1.00  0.00     0.003 C 
HETATM   23  C13 UNL     1      24.169   6.047  51.156  1.00  0.00     0.030 C 
HETATM   24  C14 UNL     1      22.881   5.244  51.165  1.00  0.00     0.273 C 
ENDBRANCH  18  19
ENDBRANCH  16  18
ENDBRANCH  14  16
ENDBRANCH   8  14
BRANCH   1  25
HETATM   25  N1  UNL     1      25.942   0.262  53.944  1.00  0.00    -0.291 N 
HETATM   26  C2  UNL     1      27.113  -0.570  53.796  1.00  0.00     0.130 A 
HETATM   27  C1  UNL     1      28.301  -0.007  53.645  1.00  0.00     0.027 A 
HETATM   28 BR1  UNL     1      29.793  -1.192  53.457  1.00  0.00    -0.050 Br
HETATM   29  C20 UNL     1      28.521   1.433  53.610  1.00  0.00     0.018 A 
HETATM   30  C19 UNL     1      27.444   2.186  53.742  1.00  0.00    -0.004 A 
HETATM   31  C18 UNL     1      26.045   1.728  53.920  1.00  0.00     0.176 A 
ENDBRANCH   1  25
TORSDOF 5
ENDMDL
MODEL 4
REMARK VINA RESULT:      -7.8      2.857      7.092
REMARK  5 active torsions:
REMARK  status: ('A' for Active; 'I' for Inactive)
REMARK    1  A    between atoms: N1_4  and  N2_5 
REMARK    2  A    between atoms: C8_12  and  N4_13 
REMARK    3  A    between atoms: N4_13  and  P1_14 
REMARK    4  A    between atoms: P1_14  and  C9_15 
REMARK    5  A    between atoms: C9_15  and  N5_16 
ROOT
HETATM    1  N2  UNL     1      23.659   5.004  49.007  1.00  0.00    -0.246 N 
HETATM    2  C3  UNL     1      22.840   5.052  47.819  1.00  0.00     0.232 A 
HETATM    3  N3  UNL     1      21.920   4.182  47.619  1.00  0.00    -0.253 NA
HETATM    4  C4  UNL     1      21.614   3.107  48.514  1.00  0.00     0.131 A 
HETATM    5  C5  UNL     1      22.302   2.983  49.615  1.00  0.00     0.011 A 
HETATM    6  C6  UNL     1      21.820   1.815  50.381  1.00  0.00     0.013 C 
HETATM    7  C7  UNL     1      22.335   1.107  51.395  1.00  0.00    -0.005 C 
HETATM    8  C8  UNL     1      23.593   1.173  52.186  1.00  0.00     0.100 C 
HETATM    9  C15 UNL     1      23.786   2.509  52.872  1.00  0.00     0.142 C 
HETATM   10  N6  UNL     1      24.508   3.467  52.062  1.00  0.00    -0.395 N 
HETATM   11  C16 UNL     1      24.245   4.158  50.852  1.00  0.00     0.115 C 
HETATM   12  C17 UNL     1      23.364   3.940  49.904  1.00  0.00     0.084 A 
HETATM   13  H23 UNL     1      25.454   3.725  52.443  1.00  0.00     0.159 HD
ENDROOT
BRANCH   8  14
HETATM   14  N4  UNL     1      23.478   0.171  53.249  1.00  0.00    -0.291 NA
HETATM   15  H7  UNL     1      22.779  -0.535  52.935  1.00  0.00     0.127 HD
BRANCH  14  16
HETATM   16  P1  UNL     1      25.049  -0.502  53.730  1.00  0.00    -0.027 P 
HETATM   17  H8  UNL     1      25.560   0.322  54.838  1.00  0.00     0.075 HD
BRANCH  16  18
HETATM   18  C9  UNL     1      26.247  -0.246  52.329  1.00  0.00     0.318 C 
BRANCH  18  19
HETATM   19  N5  UNL     1      27.453   0.414  52.776  1.00  0.00     0.093 N 
HETATM   20  C10 UNL     1      28.346  -0.460  53.493  1.00  0.00     0.273 C 
HETATM   21  C11 UNL     1      28.945   0.244  54.684  1.00  0.00     0.030 C 
HETATM   22  C12 UNL     1      29.470   1.621  54.353  1.00  0.00     0.003 C 
HETATM   23  C13 UNL     1      28.543   2.412  53.471  1.00  0.00     0.030 C 
HETATM   24  C14 UNL     1      27.218   1.672  53.415  1.00  0.00     0.273 C 
ENDBRANCH  18  19
ENDBRANCH  16  18
ENDBRANCH  14  16
ENDBRANCH   8  14
BRANCH   1  25
HETATM   25  N1  UNL     1      24.637   5.994  49.140  1.00  0.00    -0.291 N 
HETATM   26  C2  UNL     1      26.003   5.936  48.676  1.00  0.00     0.130 A 
HETATM   27  C1  UNL     1      26.810   6.963  48.885  1.00  0.00     0.027 A 
HETATM   28 BR1  UNL     1      28.602   6.792  48.231  1.00  0.00    -0.050 Br
HETATM   29  C20 UNL     1      26.410   8.187  49.566  1.00  0.00     0.018 A 
HETATM   30  C19 UNL     1      25.158   8.233  49.985  1.00  0.00    -0.004 A 
HETATM   31  C18 UNL     1      24.123   7.182  49.838  1.00  0.00     0.176 A 
ENDBRANCH   1  25
TORSDOF 5
ENDMDL
MODEL 5
REMARK VINA RESULT:      -7.7      2.663      5.155
REMARK  5 active torsions:
REMARK  status: ('A' for Active; 'I' for Inactive)
REMARK    1  A    between atoms: N1_4  and  N2_5 
REMARK    2  A    between atoms: C8_12  and  N4_13 
REMARK    3  A    between atoms: N4_13  and  P1_14 
REMARK    4  A    between atoms: P1_14  and  C9_15 
REMARK    5  A    between atoms: C9_15  and  N5_16 
ROOT
HETATM    1  N2  UNL     1      24.256  -0.371  54.088  1.00  0.00    -0.246 N 
HETATM    2  C3  UNL     1      23.799  -1.297  55.098  1.00  0.00     0.232 A 
HETATM    3  N3  UNL     1      22.557  -1.374  55.405  1.00  0.00    -0.253 NA
HETATM    4  C4  UNL     1      21.525  -0.582  54.808  1.00  0.00     0.131 A 
HETATM    5  C5  UNL     1      21.842   0.284  53.887  1.00  0.00     0.011 A 
HETATM    6  C6  UNL     1      20.630   0.985  53.415  1.00  0.00     0.013 C 
HETATM    7  C7  UNL     1      20.435   2.110  52.713  1.00  0.00    -0.005 C 
HETATM    8  C8  UNL     1      21.327   3.135  52.109  1.00  0.00     0.100 C 
HETATM    9  C15 UNL     1      22.306   2.549  51.113  1.00  0.00     0.142 C 
HETATM   10  N6  UNL     1      23.557   2.139  51.717  1.00  0.00    -0.395 N 
HETATM   11  C16 UNL     1      23.942   1.138  52.643  1.00  0.00     0.115 C 
HETATM   12  C17 UNL     1      23.239   0.422  53.489  1.00  0.00     0.084 A 
HETATM   13  H23 UNL     1      24.388   2.705  51.408  1.00  0.00     0.159 HD
ENDROOT
BRANCH   8  14
HETATM   14  N4  UNL     1      20.468   4.054  51.358  1.00  0.00    -0.291 NA
HETATM   15  H7  UNL     1      21.092   4.705  50.836  1.00  0.00     0.127 HD
BRANCH  14  16
HETATM   16  P1  UNL     1      19.270   3.208  50.356  1.00  0.00    -0.027 P 
HETATM   17  H8  UNL     1      19.679   3.370  48.951  1.00  0.00     0.075 HD
BRANCH  16  18
HETATM   18  C9  UNL     1      17.647   4.105  50.507  1.00  0.00     0.318 C 
BRANCH  18  19
HETATM   19  N5  UNL     1      16.798   3.501  51.511  1.00  0.00     0.093 N 
HETATM   20  C10 UNL     1      16.765   2.064  51.435  1.00  0.00     0.273 C 
HETATM   21  C11 UNL     1      15.366   1.546  51.655  1.00  0.00     0.030 C 
HETATM   22  C12 UNL     1      14.686   2.175  52.848  1.00  0.00     0.003 C 
HETATM   23  C13 UNL     1      14.900   3.661  52.936  1.00  0.00     0.030 C 
HETATM   24  C14 UNL     1      15.512   4.117  51.624  1.00  0.00     0.273 C 
ENDBRANCH  18  19
ENDBRANCH  16  18
ENDBRANCH  14  16
ENDBRANCH   8  14
BRANCH   1  25
HETATM   25  N1  UNL     1      25.628  -0.356  53.819  1.00  0.00    -0.291 N 
HETATM   26  C2  UNL     1      26.577   0.665  54.192  1.00  0.00     0.130 A 
HETATM   27  C1  UNL     1      27.849   0.531  53.856  1.00  0.00     0.027 A 
HETATM   28 BR1  UNL     1      29.031   1.938  54.395  1.00  0.00    -0.050 Br
HETATM   29  C20 UNL     1      28.381  -0.608  53.119  1.00  0.00     0.018 A 
HETATM   30  C19 UNL     1      27.506  -1.540  52.785  1.00  0.00    -0.004 A 
HETATM   31  C18 UNL     1      26.053  -1.552  53.077  1.00  0.00     0.176 A 
ENDBRANCH   1  25
TORSDOF 5
ENDMDL
MODEL 6
REMARK VINA RESULT:      -7.6      3.748      5.655
REMARK  5 active torsions:
REMARK  status: ('A' for Active; 'I' for Inactive)
REMARK    1  A    between atoms: N1_4  and  N2_5 
REMARK    2  A    between atoms: C8_12  and  N4_13 
REMARK    3  A    between atoms: N4_13  and  P1_14 
REMARK    4  A    between atoms: P1_14  and  C9_15 
REMARK    5  A    between atoms: C9_15  and  N5_16 
ROOT
HETATM    1  N2  UNL     1      21.638   1.529  50.300  1.00  0.00    -0.246 N 
HETATM    2  C3  UNL     1      21.543   0.935  48.988  1.00  0.00     0.232 A 
HETATM    3  N3  UNL     1      22.017   1.535  47.958  1.00  0.00    -0.253 NA
HETATM    4  C4  UNL     1      22.666   2.811  47.993  1.00  0.00     0.131 A 
HETATM    5  C5  UNL     1      22.797   3.426  49.135  1.00  0.00     0.011 A 
HETATM    6  C6  UNL     1      23.490   4.715  48.937  1.00  0.00     0.013 C 
HETATM    7  C7  UNL     1      23.625   5.811  49.697  1.00  0.00    -0.005 C 
HETATM    8  C8  UNL     1      23.149   6.214  51.047  1.00  0.00     0.100 C 
HETATM    9  C15 UNL     1      23.601   5.265  52.137  1.00  0.00     0.142 C 
HETATM   10  N6  UNL     1      22.667   4.184  52.376  1.00  0.00    -0.395 N 
HETATM   11  C16 UNL     1      22.214   3.068  51.629  1.00  0.00     0.115 C 
HETATM   12  C17 UNL     1      22.281   2.797  50.346  1.00  0.00     0.084 A 
HETATM   13  H23 UNL     1      22.205   4.217  53.319  1.00  0.00     0.159 HD
ENDROOT
BRANCH   8  14
HETATM   14  N4  UNL     1      23.763   7.511  51.342  1.00  0.00    -0.291 NA
HETATM   15  H7  UNL     1      24.370   7.383  52.180  1.00  0.00     0.127 HD
BRANCH  14  16
HETATM   16  P1  UNL     1      24.579   8.220  49.934  1.00  0.00    -0.027 P 
HETATM   17  H8  UNL     1      24.356   7.315  48.794  1.00  0.00     0.075 HD
BRANCH  16  18
HETATM   18  C9  UNL     1      26.414   8.184  50.243  1.00  0.00     0.318 C 
BRANCH  18  19
HETATM   19  N5  UNL     1      27.153   7.935  49.025  1.00  0.00     0.093 N 
HETATM   20  C10 UNL     1      27.147   6.549  48.632  1.00  0.00     0.273 C 
HETATM   21  C11 UNL     1      28.506   6.128  48.131  1.00  0.00     0.030 C 
HETATM   22  C12 UNL     1      29.100   7.106  47.146  1.00  0.00     0.003 C 
HETATM   23  C13 UNL     1      28.926   8.542  47.559  1.00  0.00     0.030 C 
HETATM   24  C14 UNL     1      28.443   8.551  48.998  1.00  0.00     0.273 C 
ENDBRANCH  18  19
ENDBRANCH  16  18
ENDBRANCH  14  16
ENDBRANCH   8  14
BRANCH   1  25
HETATM   25  N1  UNL     1      21.094   0.803  51.363  1.00  0.00    -0.291 N 
HETATM   26  C2  UNL     1      21.810   0.194  52.458  1.00  0.00     0.130 A 
HETATM   27  C1  UNL     1      21.143  -0.467  53.390  1.00  0.00     0.027 A 
HETATM   28 BR1  UNL     1      22.181  -1.239  54.802  1.00  0.00    -0.050 Br
HETATM   29  C20 UNL     1      19.695  -0.628  53.395  1.00  0.00     0.018 A 
HETATM   30  C19 UNL     1      19.047  -0.065  52.392  1.00  0.00    -0.004 A 
HETATM   31  C18 UNL     1      19.629   0.708  51.268  1.00  0.00     0.176 A 
ENDBRANCH   1  25
TORSDOF 5
ENDMDL
MODEL 7
REMARK VINA RESULT:      -7.5      4.510      6.941
REMARK  5 active torsions:
REMARK  status: ('A' for Active; 'I' for Inactive)
REMARK    1  A    between atoms: N1_4  and  N2_5 
REMARK    2  A    between atoms: C8_12  and  N4_13 
REMARK    3  A    between atoms: N4_13  and  P1_14 
REMARK    4  A    between atoms: P1_14  and  C9_15 
REMARK    5  A    between atoms: C9_15  and  N5_16 
ROOT
HETATM    1  N2  UNL     1      23.128  -0.148  53.259  1.00  0.00    -0.246 N 
HETATM    2  C3  UNL     1      23.294  -0.869  54.499  1.00  0.00     0.232 A 
HETATM    3  N3  UNL     1      22.291  -1.417  55.080  1.00  0.00    -0.253 NA
HETATM    4  C4  UNL     1      20.948  -1.377  54.586  1.00  0.00     0.131 A 
HETATM    5  C5  UNL     1      20.700  -0.747  53.471  1.00  0.00     0.011 A 
HETATM    6  C6  UNL     1      19.260  -0.833  53.153  1.00  0.00     0.013 C 
HETATM    7  C7  UNL     1      18.464  -0.157  52.313  1.00  0.00    -0.005 C 
HETATM    8  C8  UNL     1      18.665   0.955  51.347  1.00  0.00     0.100 C 
HETATM    9  C15 UNL     1      19.700   0.636  50.290  1.00  0.00     0.142 C 
HETATM   10  N6  UNL     1      21.043   1.022  50.671  1.00  0.00    -0.395 N 
HETATM   11  C16 UNL     1      21.964   0.599  51.661  1.00  0.00     0.115 C 
HETATM   12  C17 UNL     1      21.797  -0.101  52.759  1.00  0.00     0.084 A 
HETATM   13  H23 UNL     1      21.448   1.797  50.088  1.00  0.00     0.159 HD
ENDROOT
BRANCH   8  14
HETATM   14  N4  UNL     1      17.393   1.140  50.644  1.00  0.00    -0.291 NA
HETATM   15  H7  UNL     1      16.951   0.201  50.550  1.00  0.00     0.127 HD
BRANCH  14  16
HETATM   16  P1  UNL     1      16.364   2.373  51.401  1.00  0.00    -0.027 P 
HETATM   17  H8  UNL     1      17.112   2.933  52.539  1.00  0.00     0.075 HD
BRANCH  16  18
HETATM   18  C9  UNL     1      14.887   1.523  52.147  1.00  0.00     0.318 C 
BRANCH  18  19
HETATM   19  N5  UNL     1      13.879   2.474  52.560  1.00  0.00     0.093 N 
HETATM   20  C10 UNL     1      14.393   3.809  52.724  1.00  0.00     0.273 C 
HETATM   21  C11 UNL     1      13.806   4.464  53.949  1.00  0.00     0.030 C 
HETATM   22  C12 UNL     1      12.308   4.301  54.044  1.00  0.00     0.003 C 
HETATM   23  C13 UNL     1      11.840   2.912  53.706  1.00  0.00     0.030 C 
HETATM   24  C14 UNL     1      13.065   2.017  53.644  1.00  0.00     0.273 C 
ENDBRANCH  18  19
ENDBRANCH  16  18
ENDBRANCH  14  16
ENDBRANCH   8  14
BRANCH   1  25
HETATM   25  N1  UNL     1      24.277   0.417  52.698  1.00  0.00    -0.291 N 
HETATM   26  C2  UNL     1      24.365   1.649  51.951  1.00  0.00     0.130 A 
HETATM   27  C1  UNL     1      25.535   2.048  51.481  1.00  0.00     0.027 A 
HETATM   28 BR1  UNL     1      25.551   3.693  50.502  1.00  0.00    -0.050 Br
HETATM   29  C20 UNL     1      26.781   1.315  51.671  1.00  0.00     0.018 A 
HETATM   30  C19 UNL     1      26.692   0.191  52.359  1.00  0.00    -0.004 A 
HETATM   31  C18 UNL     1      25.471  -0.402  52.955  1.00  0.00     0.176 A 
ENDBRANCH   1  25
TORSDOF 5
ENDMDL
MODEL 8
REMARK VINA RESULT:      -7.4      3.069      5.105
REMARK  5 active torsions:
REMARK  status: ('A' for Active; 'I' for Inactive)
REMARK    1  A    between atoms: N1_4  and  N2_5 
REMARK    2  A    between atoms: C8_12  and  N4_13 
REMARK    3  A    between atoms: N4_13  and  P1_14 
REMARK    4  A    between atoms: P1_14  and  C9_15 
REMARK    5  A    between atoms: C9_15  and  N5_16 
ROOT
HETATM    1  N2  UNL     1      24.225   0.574  52.474  1.00  0.00    -0.246 N 
HETATM    2  C3  UNL     1      25.318  -0.322  52.768  1.00  0.00     0.232 A 
HETATM    3  N3  UNL     1      26.516  -0.037  52.410  1.00  0.00    -0.253 NA
HETATM    4  C4  UNL     1      26.889   1.153  51.706  1.00  0.00     0.131 A 
HETATM    5  C5  UNL     1      25.968   2.022  51.396  1.00  0.00     0.011 A 
HETATM    6  C6  UNL     1      26.573   3.163  50.678  1.00  0.00     0.013 C 
HETATM    7  C7  UNL     1      26.064   4.148  49.926  1.00  0.00    -0.005 C 
HETATM    8  C8  UNL     1      24.695   4.529  49.486  1.00  0.00     0.100 C 
HETATM    9  C15 UNL     1      23.751   4.770  50.644  1.00  0.00     0.142 C 
HETATM   10  N6  UNL     1      23.043   3.578  51.061  1.00  0.00    -0.395 N 
HETATM   11  C16 UNL     1      23.416   2.348  51.659  1.00  0.00     0.115 C 
HETATM   12  C17 UNL     1      24.584   1.760  51.775  1.00  0.00     0.084 A 
HETATM   13  H23 UNL     1      22.006   3.612  50.890  1.00  0.00     0.159 HD
ENDROOT
BRANCH   8  14
HETATM   14  N4  UNL     1      24.819   5.803  48.775  1.00  0.00    -0.291 NA
HETATM   15  H7  UNL     1      23.903   5.991  48.313  1.00  0.00     0.127 HD
BRANCH  14  16
HETATM   16  P1  UNL     1      25.408   7.115  49.816  1.00  0.00    -0.027 P 
HETATM   17  H8  UNL     1      24.270   8.011  50.084  1.00  0.00     0.075 HD
BRANCH  16  18
HETATM   18  C9  UNL     1      26.622   8.134  48.841  1.00  0.00     0.318 C 
BRANCH  18  19
HETATM   19  N5  UNL     1      27.937   7.533  48.838  1.00  0.00     0.093 N 
HETATM   20  C10 UNL     1      29.002   8.502  48.881  1.00  0.00     0.273 C 
HETATM   21  C11 UNL     1      30.127   8.106  47.958  1.00  0.00     0.030 C 
HETATM   22  C12 UNL     1      30.526   6.657  48.103  1.00  0.00     0.003 C 
HETATM   23  C13 UNL     1      29.349   5.726  48.206  1.00  0.00     0.030 C 
HETATM   24  C14 UNL     1      28.104   6.516  47.847  1.00  0.00     0.273 C 
ENDBRANCH  18  19
ENDBRANCH  16  18
ENDBRANCH  14  16
ENDBRANCH   8  14
BRANCH   1  25
HETATM   25  N1  UNL     1      22.954   0.182  52.903  1.00  0.00    -0.291 N 
HETATM   26  C2  UNL     1      21.709   0.331  52.187  1.00  0.00     0.130 A 
HETATM   27  C1  UNL     1      20.583  -0.093  52.736  1.00  0.00     0.027 A 
HETATM   28 BR1  UNL     1      18.984   0.150  51.709  1.00  0.00    -0.050 Br
HETATM   29  C20 UNL     1      20.503  -0.723  54.047  1.00  0.00     0.018 A 
HETATM   30  C19 UNL     1      21.647  -0.859  54.694  1.00  0.00    -0.004 A 
HETATM   31  C18 UNL     1      22.993  -0.444  54.233  1.00  0.00     0.176 A 
ENDBRANCH   1  25
TORSDOF 5
ENDMDL
MODEL 9
REMARK VINA RESULT:      -7.4      4.015      7.449
REMARK  5 active torsions:
REMARK  status: ('A' for Active; 'I' for Inactive)
REMARK    1  A    between atoms: N1_4  and  N2_5 
REMARK    2  A    between atoms: C8_12  and  N4_13 
REMARK    3  A    between atoms: N4_13  and  P1_14 
REMARK    4  A    between atoms: P1_14  and  C9_15 
REMARK    5  A    between atoms: C9_15  and  N5_16 
ROOT
HETATM    1  N2  UNL     1      18.971   0.118  52.338  1.00  0.00    -0.246 N 
HETATM    2  C3  UNL     1      18.525  -1.017  53.112  1.00  0.00     0.232 A 
HETATM    3  N3  UNL     1      19.338  -1.653  53.873  1.00  0.00    -0.253 NA
HETATM    4  C4  UNL     1      20.722  -1.324  54.034  1.00  0.00     0.131 A 
HETATM    5  C5  UNL     1      21.215  -0.314  53.374  1.00  0.00     0.011 A 
HETATM    6  C6  UNL     1      22.650  -0.158  53.689  1.00  0.00     0.013 C 
HETATM    7  C7  UNL     1      23.651   0.513  53.102  1.00  0.00    -0.005 C 
HETATM    8  C8  UNL     1      23.767   1.380  51.900  1.00  0.00     0.100 C 
HETATM    9  C15 UNL     1      22.841   2.577  51.947  1.00  0.00     0.142 C 
HETATM   10  N6  UNL     1      21.543   2.318  51.360  1.00  0.00    -0.395 N 
HETATM   11  C16 UNL     1      20.442   1.488  51.688  1.00  0.00     0.115 C 
HETATM   12  C17 UNL     1      20.345   0.453  52.490  1.00  0.00     0.084 A 
HETATM   13  H23 UNL     1      21.353   2.865  50.482  1.00  0.00     0.159 HD
ENDROOT
BRANCH   8  14
HETATM   14  N4  UNL     1      25.133   1.909  51.890  1.00  0.00    -0.291 NA
HETATM   15  H7  UNL     1      25.128   2.770  51.303  1.00  0.00     0.127 HD
BRANCH  14  16
HETATM   16  P1  UNL     1      25.796   2.127  53.523  1.00  0.00    -0.027 P 
HETATM   17  H8  UNL     1      25.840   3.574  53.791  1.00  0.00     0.075 HD
BRANCH  16  18
HETATM   18  C9  UNL     1      27.571   1.571  53.510  1.00  0.00     0.318 C 
BRANCH  18  19
HETATM   19  N5  UNL     1      27.677   0.130  53.569  1.00  0.00     0.093 N 
HETATM   20  C10 UNL     1      28.939  -0.325  54.092  1.00  0.00     0.273 C 
HETATM   21  C11 UNL     1      29.447  -1.513  53.314  1.00  0.00     0.030 C 
HETATM   22  C12 UNL     1      28.389  -2.567  53.091  1.00  0.00     0.003 C 
HETATM   23  C13 UNL     1      27.056  -1.995  52.695  1.00  0.00     0.030 C 
HETATM   24  C14 UNL     1      27.265  -0.527  52.367  1.00  0.00     0.273 C 
ENDBRANCH  18  19
ENDBRANCH  16  18
ENDBRANCH  14  16
ENDBRANCH   8  14
BRANCH   1  25
HETATM   25  N1  UNL     1      18.016   0.750  51.536  1.00  0.00    -0.291 N 
HETATM   26  C2  UNL     1      17.301   1.969  51.830  1.00  0.00     0.130 A 
HETATM   27  C1  UNL     1      16.420   2.438  50.962  1.00  0.00     0.027 A 
HETATM   28 BR1  UNL     1      15.523   4.060  51.441  1.00  0.00    -0.050 Br
HETATM   29  C20 UNL     1      16.112   1.797  49.689  1.00  0.00     0.018 A 
HETATM   30  C19 UNL     1      16.772   0.685  49.427  1.00  0.00    -0.004 A 
HETATM   31  C18 UNL     1      17.788   0.021  50.279  1.00  0.00     0.176 A 
ENDBRANCH   1  25
TORSDOF 5
ENDMDL
