MODEL 1
REMARK VINA RESULT:      -8.9      0.000      0.000
REMARK  0 active torsions:
REMARK  status: ('A' for Active; 'I' for Inactive)
ROOT
HETATM    1  O1  UNL     1      21.479   2.021  47.951  1.00  0.00    -0.271 OA
HETATM    2  C1  UNL     1      22.281   2.383  48.836  1.00  0.00     0.248 C 
HETATM    3  C2  UNL     1      23.244   3.509  48.750  1.00  0.00     0.279 C 
HETATM    4  O2  UNL     1      24.357   3.392  49.598  1.00  0.00    -0.340 OA
HETATM    5  C3  UNL     1      24.518   2.547  50.661  1.00  0.00     0.092 C 
HETATM    6  C4  UNL     1      23.426   1.827  50.802  1.00  0.00     0.048 C 
HETATM    7  C5  UNL     1      23.401   1.097  52.096  1.00  0.00     0.064 C 
HETATM    8  C6  UNL     1      24.334   1.740  53.135  1.00  0.00     0.040 C 
HETATM    9  C7  UNL     1      25.681   1.509  52.562  1.00  0.00    -0.075 C 
HETATM   10  C8  UNL     1      25.687   2.403  51.549  1.00  0.00     0.041 C 
HETATM   11  C9  UNL     1      26.719   0.522  52.973  1.00  0.00     0.053 C 
HETATM   12  C10 UNL     1      26.129  -0.788  53.429  1.00  0.00     0.124 C 
HETATM   13  N1  UNL     1      25.399  -0.667  54.657  1.00  0.00    -0.384 N 
HETATM   14  C11 UNL     1      24.493  -1.373  55.491  1.00  0.00     0.202 C 
HETATM   15  N2  UNL     1      23.253  -1.581  55.687  1.00  0.00    -0.257 NA
HETATM   16  C12 UNL     1      22.213  -1.027  54.940  1.00  0.00     0.114 C 
HETATM   17  C13 UNL     1      21.283  -0.066  54.950  1.00  0.00    -0.007 C 
HETATM   18  C14 UNL     1      20.194   0.441  54.058  1.00  0.00     0.028 C 
HETATM   19  C15 UNL     1      20.058  -0.489  52.878  1.00  0.00     0.004 C 
HETATM   20  C16 UNL     1      19.255   0.165  51.803  1.00  0.00     0.002 C 
HETATM   21  C17 UNL     1      20.087   1.300  51.185  1.00  0.00     0.020 C 
HETATM   22  C18 UNL     1      21.259   0.656  50.506  1.00  0.00     0.132 C 
HETATM   23  N3  UNL     1      22.220   1.604  50.024  1.00  0.00    -0.317 N 
HETATM   24  H12 UNL     1      25.393   0.089  55.394  1.00  0.00     0.160 HD
ENDROOT
TORSDOF 0
ENDMDL
MODEL 2
REMARK VINA RESULT:      -8.8      2.479      5.076
REMARK  0 active torsions:
REMARK  status: ('A' for Active; 'I' for Inactive)
ROOT
HETATM    1  O1  UNL     1      25.665  -1.286  54.826  1.00  0.00    -0.271 OA
HETATM    2  C1  UNL     1      25.662  -0.666  53.743  1.00  0.00     0.248 C 
HETATM    3  C2  UNL     1      26.777  -0.586  52.767  1.00  0.00     0.279 C 
HETATM    4  O2  UNL     1      26.748   0.545  51.936  1.00  0.00    -0.340 OA
HETATM    5  C3  UNL     1      25.705   1.405  51.725  1.00  0.00     0.092 C 
HETATM    6  C4  UNL     1      24.670   1.001  52.431  1.00  0.00     0.048 C 
HETATM    7  C5  UNL     1      23.420   1.701  52.040  1.00  0.00     0.064 C 
HETATM    8  C6  UNL     1      23.513   2.295  50.625  1.00  0.00     0.040 C 
HETATM    9  C7  UNL     1      24.543   3.351  50.774  1.00  0.00    -0.075 C 
HETATM   10  C8  UNL     1      25.666   2.605  50.869  1.00  0.00     0.041 C 
HETATM   11  C9  UNL     1      24.367   4.829  50.845  1.00  0.00     0.053 C 
HETATM   12  C10 UNL     1      23.115   5.232  51.580  1.00  0.00     0.124 C 
HETATM   13  N1  UNL     1      21.920   4.873  50.875  1.00  0.00    -0.384 N 
HETATM   14  C11 UNL     1      20.514   4.765  51.042  1.00  0.00     0.202 C 
HETATM   15  N2  UNL     1      19.600   3.961  51.413  1.00  0.00    -0.257 NA
HETATM   16  C12 UNL     1      19.804   2.656  51.860  1.00  0.00     0.114 C 
HETATM   17  C13 UNL     1      19.736   1.373  51.487  1.00  0.00    -0.007 C 
HETATM   18  C14 UNL     1      19.992   0.024  52.080  1.00  0.00     0.028 C 
HETATM   19  C15 UNL     1      20.299   0.187  53.548  1.00  0.00     0.004 C 
HETATM   20  C16 UNL     1      20.908  -1.065  54.084  1.00  0.00     0.002 C 
HETATM   21  C17 UNL     1      22.323  -1.216  53.505  1.00  0.00     0.020 C 
HETATM   22  C18 UNL     1      23.137  -0.081  54.053  1.00  0.00     0.132 C 
HETATM   23  N3  UNL     1      24.442   0.010  53.468  1.00  0.00    -0.317 N 
HETATM   24  H12 UNL     1      21.760   4.597  49.869  1.00  0.00     0.160 HD
ENDROOT
TORSDOF 0
ENDMDL
MODEL 3
REMARK VINA RESULT:      -8.7      2.410      4.865
REMARK  0 active torsions:
REMARK  status: ('A' for Active; 'I' for Inactive)
ROOT
HETATM    1  O1  UNL     1      19.507   3.251  52.361  1.00  0.00    -0.271 OA
HETATM    2  C1  UNL     1      20.171   2.195  52.409  1.00  0.00     0.248 C 
HETATM    3  C2  UNL     1      19.635   0.819  52.553  1.00  0.00     0.279 C 
HETATM    4  O2  UNL     1      20.538  -0.105  53.102  1.00  0.00    -0.340 OA
HETATM    5  C3  UNL     1      21.891   0.029  53.250  1.00  0.00     0.092 C 
HETATM    6  C4  UNL     1      22.259   1.197  52.769  1.00  0.00     0.048 C 
HETATM    7  C5  UNL     1      23.733   1.303  52.624  1.00  0.00     0.064 C 
HETATM    8  C6  UNL     1      24.404  -0.079  52.555  1.00  0.00     0.040 C 
HETATM    9  C7  UNL     1      24.165  -0.633  53.909  1.00  0.00    -0.075 C 
HETATM   10  C8  UNL     1      22.848  -0.926  53.840  1.00  0.00     0.041 C 
HETATM   11  C9  UNL     1      25.119  -0.778  55.045  1.00  0.00     0.053 C 
HETATM   12  C10 UNL     1      26.103   0.360  55.128  1.00  0.00     0.124 C 
HETATM   13  N1  UNL     1      27.024   0.374  54.029  1.00  0.00    -0.384 N 
HETATM   14  C11 UNL     1      28.000   1.192  53.401  1.00  0.00     0.202 C 
HETATM   15  N2  UNL     1      28.144   2.093  52.514  1.00  0.00    -0.257 NA
HETATM   16  C12 UNL     1      27.118   2.639  51.743  1.00  0.00     0.114 C 
HETATM   17  C13 UNL     1      26.550   2.598  50.532  1.00  0.00    -0.007 C 
HETATM   18  C14 UNL     1      25.416   3.254  49.809  1.00  0.00     0.028 C 
HETATM   19  C15 UNL     1      24.852   4.349  50.680  1.00  0.00     0.004 C 
HETATM   20  C16 UNL     1      23.517   4.774  50.164  1.00  0.00     0.002 C 
HETATM   21  C17 UNL     1      22.505   3.645  50.419  1.00  0.00     0.020 C 
HETATM   22  C18 UNL     1      22.364   3.521  51.907  1.00  0.00     0.132 C 
HETATM   23  N3  UNL     1      21.576   2.392  52.305  1.00  0.00    -0.317 N 
HETATM   24  H12 UNL     1      27.280  -0.367  53.323  1.00  0.00     0.160 HD
ENDROOT
TORSDOF 0
ENDMDL
MODEL 4
REMARK VINA RESULT:      -8.6      1.174      4.398
REMARK  0 active torsions:
REMARK  status: ('A' for Active; 'I' for Inactive)
ROOT
HETATM    1  O1  UNL     1      23.320   4.892  49.409  1.00  0.00    -0.271 OA
HETATM    2  C1  UNL     1      22.746   3.797  49.579  1.00  0.00     0.248 C 
HETATM    3  C2  UNL     1      21.568   3.291  48.831  1.00  0.00     0.279 C 
HETATM    4  O2  UNL     1      20.803   2.337  49.520  1.00  0.00    -0.340 OA
HETATM    5  C3  UNL     1      21.152   1.629  50.638  1.00  0.00     0.092 C 
HETATM    6  C4  UNL     1      22.373   1.967  50.992  1.00  0.00     0.048 C 
HETATM    7  C5  UNL     1      22.935   1.044  52.011  1.00  0.00     0.064 C 
HETATM    8  C6  UNL     1      22.219  -0.317  52.010  1.00  0.00     0.040 C 
HETATM    9  C7  UNL     1      20.854   0.024  52.476  1.00  0.00    -0.075 C 
HETATM   10  C8  UNL     1      20.353   0.637  51.381  1.00  0.00     0.041 C 
HETATM   11  C9  UNL     1      20.233  -0.210  53.810  1.00  0.00     0.053 C 
HETATM   12  C10 UNL     1      21.212  -0.051  54.945  1.00  0.00     0.124 C 
HETATM   13  N1  UNL     1      22.216  -1.075  54.954  1.00  0.00    -0.384 N 
HETATM   14  C11 UNL     1      23.461  -1.412  55.549  1.00  0.00     0.202 C 
HETATM   15  N2  UNL     1      24.718  -1.274  55.408  1.00  0.00    -0.257 NA
HETATM   16  C12 UNL     1      25.344  -0.581  54.372  1.00  0.00     0.114 C 
HETATM   17  C13 UNL     1      25.992  -0.744  53.213  1.00  0.00    -0.007 C 
HETATM   18  C14 UNL     1      26.632   0.109  52.164  1.00  0.00     0.028 C 
HETATM   19  C15 UNL     1      26.633   1.542  52.635  1.00  0.00     0.004 C 
HETATM   20  C16 UNL     1      26.920   2.454  51.489  1.00  0.00     0.002 C 
HETATM   21  C17 UNL     1      25.710   2.458  50.542  1.00  0.00     0.020 C 
HETATM   22  C18 UNL     1      24.571   3.075  51.299  1.00  0.00     0.132 C 
HETATM   23  N3  UNL     1      23.323   2.995  50.601  1.00  0.00    -0.317 N 
HETATM   24  H12 UNL     1      22.262  -2.013  54.473  1.00  0.00     0.160 HD
ENDROOT
TORSDOF 0
ENDMDL
MODEL 5
REMARK VINA RESULT:      -8.4      2.112      3.152
REMARK  0 active torsions:
REMARK  status: ('A' for Active; 'I' for Inactive)
ROOT
HETATM    1  O1  UNL     1      18.683   1.692  51.332  1.00  0.00    -0.271 OA
HETATM    2  C1  UNL     1      19.681   2.361  51.671  1.00  0.00     0.248 C 
HETATM    3  C2  UNL     1      19.801   3.840  51.657  1.00  0.00     0.279 C 
HETATM    4  O2  UNL     1      21.117   4.319  51.562  1.00  0.00    -0.340 OA
HETATM    5  C3  UNL     1      22.280   3.626  51.762  1.00  0.00     0.092 C 
HETATM    6  C4  UNL     1      21.986   2.386  52.088  1.00  0.00     0.048 C 
HETATM    7  C5  UNL     1      23.168   1.648  52.602  1.00  0.00     0.064 C 
HETATM    8  C6  UNL     1      24.260   2.601  53.116  1.00  0.00     0.040 C 
HETATM    9  C7  UNL     1      24.711   3.287  51.882  1.00  0.00    -0.075 C 
HETATM   10  C8  UNL     1      23.667   4.113  51.649  1.00  0.00     0.041 C 
HETATM   11  C9  UNL     1      25.960   3.078  51.097  1.00  0.00     0.053 C 
HETATM   12  C10 UNL     1      26.394   1.636  51.063  1.00  0.00     0.124 C 
HETATM   13  N1  UNL     1      26.823   1.159  52.346  1.00  0.00    -0.384 N 
HETATM   14  C11 UNL     1      27.142  -0.036  53.043  1.00  0.00     0.202 C 
HETATM   15  N2  UNL     1      26.626  -0.965  53.744  1.00  0.00    -0.257 NA
HETATM   16  C12 UNL     1      25.278  -1.064  54.088  1.00  0.00     0.114 C 
HETATM   17  C13 UNL     1      24.410  -0.858  55.084  1.00  0.00    -0.007 C 
HETATM   18  C14 UNL     1      22.942  -1.008  55.333  1.00  0.00     0.028 C 
HETATM   19  C15 UNL     1      22.314  -1.697  54.147  1.00  0.00     0.004 C 
HETATM   20  C16 UNL     1      20.831  -1.539  54.191  1.00  0.00     0.002 C 
HETATM   21  C17 UNL     1      20.480  -0.072  53.896  1.00  0.00     0.020 C 
HETATM   22  C18 UNL     1      20.892   0.194  52.479  1.00  0.00     0.132 C 
HETATM   23  N3  UNL     1      20.781   1.574  52.110  1.00  0.00    -0.317 N 
HETATM   24  H12 UNL     1      27.101   1.673  53.224  1.00  0.00     0.160 HD
ENDROOT
TORSDOF 0
ENDMDL
MODEL 6
REMARK VINA RESULT:      -8.2      2.673      6.508
REMARK  0 active torsions:
REMARK  status: ('A' for Active; 'I' for Inactive)
ROOT
HETATM    1  O1  UNL     1      26.008  -1.239  54.128  1.00  0.00    -0.271 OA
HETATM    2  C1  UNL     1      24.843  -0.891  54.410  1.00  0.00     0.248 C 
HETATM    3  C2  UNL     1      24.065  -1.295  55.607  1.00  0.00     0.279 C 
HETATM    4  O2  UNL     1      22.671  -1.230  55.448  1.00  0.00    -0.340 OA
HETATM    5  C3  UNL     1      21.967  -0.592  54.464  1.00  0.00     0.092 C 
HETATM    6  C4  UNL     1      22.815  -0.002  53.648  1.00  0.00     0.048 C 
HETATM    7  C5  UNL     1      22.136   0.946  52.728  1.00  0.00     0.064 C 
HETATM    8  C6  UNL     1      20.771   1.397  53.273  1.00  0.00     0.040 C 
HETATM    9  C7  UNL     1      19.970   0.151  53.239  1.00  0.00    -0.075 C 
HETATM   10  C8  UNL     1      20.506  -0.529  54.276  1.00  0.00     0.041 C 
HETATM   11  C9  UNL     1      18.898  -0.249  52.284  1.00  0.00     0.053 C 
HETATM   12  C10 UNL     1      19.165   0.222  50.878  1.00  0.00     0.124 C 
HETATM   13  N1  UNL     1      19.092   1.649  50.751  1.00  0.00    -0.384 N 
HETATM   14  C11 UNL     1      19.402   2.707  49.856  1.00  0.00     0.202 C 
HETATM   15  N2  UNL     1      20.332   3.510  49.524  1.00  0.00    -0.257 NA
HETATM   16  C12 UNL     1      21.599   3.563  50.105  1.00  0.00     0.114 C 
HETATM   17  C13 UNL     1      22.349   4.244  50.978  1.00  0.00    -0.007 C 
HETATM   18  C14 UNL     1      23.739   4.196  51.530  1.00  0.00     0.028 C 
HETATM   19  C15 UNL     1      24.523   3.145  50.785  1.00  0.00     0.004 C 
HETATM   20  C16 UNL     1      25.772   2.815  51.532  1.00  0.00     0.002 C 
HETATM   21  C17 UNL     1      25.397   2.049  52.810  1.00  0.00     0.020 C 
HETATM   22  C18 UNL     1      24.808   0.741  52.372  1.00  0.00     0.132 C 
HETATM   23  N3  UNL     1      24.254  -0.018  53.454  1.00  0.00    -0.317 N 
HETATM   24  H12 UNL     1      18.676   2.386  51.381  1.00  0.00     0.160 HD
ENDROOT
TORSDOF 0
ENDMDL
MODEL 7
REMARK VINA RESULT:      -7.5      2.591      4.411
REMARK  0 active torsions:
REMARK  status: ('A' for Active; 'I' for Inactive)
ROOT
HETATM    1  O1  UNL     1      18.174   0.784  51.343  1.00  0.00    -0.271 OA
HETATM    2  C1  UNL     1      18.884   1.780  51.596  1.00  0.00     0.248 C 
HETATM    3  C2  UNL     1      18.416   3.179  51.761  1.00  0.00     0.279 C 
HETATM    4  O2  UNL     1      19.394   4.155  51.511  1.00  0.00    -0.340 OA
HETATM    5  C3  UNL     1      20.748   3.983  51.416  1.00  0.00     0.092 C 
HETATM    6  C4  UNL     1      21.031   2.713  51.617  1.00  0.00     0.048 C 
HETATM    7  C5  UNL     1      22.486   2.491  51.820  1.00  0.00     0.064 C 
HETATM    8  C6  UNL     1      23.206   3.774  52.266  1.00  0.00     0.040 C 
HETATM    9  C7  UNL     1      23.089   4.652  51.077  1.00  0.00    -0.075 C 
HETATM   10  C8  UNL     1      21.783   4.995  51.137  1.00  0.00     0.041 C 
HETATM   11  C9  UNL     1      24.128   5.012  50.071  1.00  0.00     0.053 C 
HETATM   12  C10 UNL     1      25.068   3.873  49.771  1.00  0.00     0.124 C 
HETATM   13  N1  UNL     1      25.905   3.540  50.886  1.00  0.00    -0.384 N 
HETATM   14  C11 UNL     1      26.799   2.539  51.352  1.00  0.00     0.202 C 
HETATM   15  N2  UNL     1      26.840   1.444  51.998  1.00  0.00    -0.257 NA
HETATM   16  C12 UNL     1      25.739   0.788  52.548  1.00  0.00     0.114 C 
HETATM   17  C13 UNL     1      25.088   0.568  53.696  1.00  0.00    -0.007 C 
HETATM   18  C14 UNL     1      23.879  -0.177  54.166  1.00  0.00     0.028 C 
HETATM   19  C15 UNL     1      23.334  -0.994  53.021  1.00  0.00     0.004 C 
HETATM   20  C16 UNL     1      21.949  -1.453  53.336  1.00  0.00     0.002 C 
HETATM   21  C17 UNL     1      21.006  -0.240  53.305  1.00  0.00     0.020 C 
HETATM   22  C18 UNL     1      20.977   0.248  51.888  1.00  0.00     0.132 C 
HETATM   23  N3  UNL     1      20.267   1.483  51.732  1.00  0.00    -0.317 N 
HETATM   24  H12 UNL     1      26.140   4.073  51.767  1.00  0.00     0.160 HD
ENDROOT
TORSDOF 0
ENDMDL
MODEL 8
REMARK VINA RESULT:      -7.4      9.627     12.585
REMARK  0 active torsions:
REMARK  status: ('A' for Active; 'I' for Inactive)
ROOT
HETATM    1  O1  UNL     1      26.884   9.607  50.382  1.00  0.00    -0.271 OA
HETATM    2  C1  UNL     1      27.374   8.799  49.566  1.00  0.00     0.248 C 
HETATM    3  C2  UNL     1      26.701   7.609  48.989  1.00  0.00     0.279 C 
HETATM    4  O2  UNL     1      27.574   6.602  48.547  1.00  0.00    -0.340 OA
HETATM    5  C3  UNL     1      28.921   6.695  48.326  1.00  0.00     0.092 C 
HETATM    6  C4  UNL     1      29.310   7.925  48.582  1.00  0.00     0.048 C 
HETATM    7  C5  UNL     1      30.688   8.188  48.093  1.00  0.00     0.064 C 
HETATM    8  C6  UNL     1      31.104   7.200  46.991  1.00  0.00     0.040 C 
HETATM    9  C7  UNL     1      31.165   5.905  47.709  1.00  0.00    -0.075 C 
HETATM   10  C8  UNL     1      29.851   5.641  47.879  1.00  0.00     0.041 C 
HETATM   11  C9  UNL     1      32.361   5.137  48.157  1.00  0.00     0.053 C 
HETATM   12  C10 UNL     1      33.486   6.027  48.617  1.00  0.00     0.124 C 
HETATM   13  N1  UNL     1      34.064   6.784  47.546  1.00  0.00    -0.384 N 
HETATM   14  C11 UNL     1      34.941   7.873  47.294  1.00  0.00     0.202 C 
HETATM   15  N2  UNL     1      34.968   9.138  47.157  1.00  0.00    -0.257 NA
HETATM   16  C12 UNL     1      33.862   9.983  47.243  1.00  0.00     0.114 C 
HETATM   17  C13 UNL     1      32.985  10.677  46.508  1.00  0.00    -0.007 C 
HETATM   18  C14 UNL     1      31.807  11.572  46.729  1.00  0.00     0.028 C 
HETATM   19  C15 UNL     1      31.668  11.839  48.207  1.00  0.00     0.004 C 
HETATM   20  C16 UNL     1      30.321  12.412  48.497  1.00  0.00     0.002 C 
HETATM   21  C17 UNL     1      29.263  11.315  48.298  1.00  0.00     0.020 C 
HETATM   22  C18 UNL     1      29.516  10.275  49.349  1.00  0.00     0.132 C 
HETATM   23  N3  UNL     1      28.709   9.102  49.185  1.00  0.00    -0.317 N 
HETATM   24  H12 UNL     1      34.006   6.669  46.499  1.00  0.00     0.160 HD
ENDROOT
TORSDOF 0
ENDMDL
MODEL 9
REMARK VINA RESULT:      -7.2      3.126      5.437
REMARK  0 active torsions:
REMARK  status: ('A' for Active; 'I' for Inactive)
ROOT
HETATM    1  O1  UNL     1      18.218  -0.809  53.679  1.00  0.00    -0.271 OA
HETATM    2  C1  UNL     1      19.447  -0.784  53.456  1.00  0.00     0.248 C 
HETATM    3  C2  UNL     1      20.456  -1.747  53.961  1.00  0.00     0.279 C 
HETATM    4  O2  UNL     1      21.763  -1.239  54.034  1.00  0.00    -0.340 OA
HETATM    5  C3  UNL     1      22.257  -0.104  53.451  1.00  0.00     0.092 C 
HETATM    6  C4  UNL     1      21.296   0.474  52.762  1.00  0.00     0.048 C 
HETATM    7  C5  UNL     1      21.813   1.542  51.869  1.00  0.00     0.064 C 
HETATM    8  C6  UNL     1      23.310   1.364  51.569  1.00  0.00     0.040 C 
HETATM    9  C7  UNL     1      23.945   1.593  52.889  1.00  0.00    -0.075 C 
HETATM   10  C8  UNL     1      23.621   0.450  53.533  1.00  0.00     0.041 C 
HETATM   11  C9  UNL     1      24.692   2.786  53.376  1.00  0.00     0.053 C 
HETATM   12  C10 UNL     1      24.128   4.082  52.852  1.00  0.00     0.124 C 
HETATM   13  N1  UNL     1      24.312   4.232  51.438  1.00  0.00    -0.384 N 
HETATM   14  C11 UNL     1      23.897   5.025  50.336  1.00  0.00     0.202 C 
HETATM   15  N2  UNL     1      23.001   5.115  49.437  1.00  0.00    -0.257 NA
HETATM   16  C12 UNL     1      21.935   4.232  49.268  1.00  0.00     0.114 C 
HETATM   17  C13 UNL     1      21.505   3.201  48.532  1.00  0.00    -0.007 C 
HETATM   18  C14 UNL     1      20.303   2.314  48.450  1.00  0.00     0.028 C 
HETATM   19  C15 UNL     1      19.251   2.829  49.402  1.00  0.00     0.004 C 
HETATM   20  C16 UNL     1      18.205   1.787  49.618  1.00  0.00     0.002 C 
HETATM   21  C17 UNL     1      18.811   0.641  50.444  1.00  0.00     0.020 C 
HETATM   22  C18 UNL     1      19.132   1.206  51.796  1.00  0.00     0.132 C 
HETATM   23  N3  UNL     1      19.861   0.295  52.628  1.00  0.00    -0.317 N 
HETATM   24  H12 UNL     1      24.949   3.733  50.760  1.00  0.00     0.160 HD
ENDROOT
TORSDOF 0
ENDMDL
