MODEL 1
REMARK VINA RESULT:      -8.2      0.000      0.000
REMARK  4 active torsions:
REMARK  status: ('A' for Active; 'I' for Inactive)
REMARK    1  A    between atoms: O1_2  and  C2_3 
REMARK    2  A    between atoms: C2_3  and  C3_4 
REMARK    3  A    between atoms: C3_4  and  C4_5 
REMARK    4  A    between atoms: C5_7  and  C6_8 
ROOT
HETATM    1  C6  UNL     1      24.971   1.357  52.327  1.00  0.00     0.009 A 
HETATM    2  C7  UNL     1      24.769   2.697  52.020  1.00  0.00     0.150 A 
HETATM    3  N1  UNL     1      23.580   3.349  51.945  1.00  0.00    -0.073 NA
HETATM    4  C8  UNL     1      22.389   2.906  52.130  1.00  0.00     0.744 A 
HETATM    5  N2  UNL     1      22.559   1.739  52.397  1.00  0.00    -0.064 NA
HETATM    6  C9  UNL     1      23.657   1.098  52.476  1.00  0.00     0.074 A 
HETATM    7  C10 UNL     1      22.759   0.042  52.848  1.00  0.00     0.019 A 
HETATM    8  C11 UNL     1      23.613  -0.464  53.951  1.00  0.00    -0.015 A 
HETATM    9  C12 UNL     1      22.710  -1.183  54.804  1.00  0.00    -0.006 A 
HETATM   10  C13 UNL     1      21.319  -1.269  54.489  1.00  0.00    -0.014 A 
HETATM   11  C14 UNL     1      21.217  -0.544  53.277  1.00  0.00     0.021 A 
HETATM   12  C15 UNL     1      20.073   0.360  52.992  1.00  0.00     0.150 A 
HETATM   13  N3  UNL     1      20.181   1.758  52.945  1.00  0.00    -0.194 NA
HETATM   14  N4  UNL     1      21.131   2.437  52.325  1.00  0.00    -0.106 N 
HETATM   15  C16 UNL     1      20.745   3.160  51.103  1.00  0.00     0.199 C 
HETATM   16  C17 UNL     1      21.463   0.186  52.162  1.00  0.00     0.091 A 
ENDROOT
BRANCH   1  17
HETATM   17  C5  UNL     1      25.731   0.216  52.553  1.00  0.00     0.027 C 
HETATM   18  C3  UNL     1      27.068   0.366  52.793  1.00  0.00     0.004 C 
BRANCH  18  19
HETATM   19  C2  UNL     1      27.850   1.618  52.856  1.00  0.00     0.208 C 
BRANCH  19  20
HETATM   20  O1  UNL     1      28.159   2.092  54.083  1.00  0.00    -0.391 OA
HETATM   21  C1  UNL     1      29.424   1.984  54.542  1.00  0.00     0.201 C 
ENDBRANCH  19  20
ENDBRANCH  18  19
BRANCH  18  22
HETATM   22  C4  UNL     1      27.775  -0.886  53.041  1.00  0.00     0.267 C 
HETATM   23  O2  UNL     1      26.894  -1.756  53.353  1.00  0.00    -0.302 OA
ENDBRANCH  18  22
ENDBRANCH   1  17
TORSDOF 4
ENDMDL
MODEL 2
REMARK VINA RESULT:      -7.7      2.960      5.427
REMARK  4 active torsions:
REMARK  status: ('A' for Active; 'I' for Inactive)
REMARK    1  A    between atoms: O1_2  and  C2_3 
REMARK    2  A    between atoms: C2_3  and  C3_4 
REMARK    3  A    between atoms: C3_4  and  C4_5 
REMARK    4  A    between atoms: C5_7  and  C6_8 
ROOT
HETATM    1  C6  UNL     1      24.750   2.904  50.837  1.00  0.00     0.009 A 
HETATM    2  C7  UNL     1      23.419   2.824  51.228  1.00  0.00     0.150 A 
HETATM    3  N1  UNL     1      22.882   1.960  52.129  1.00  0.00    -0.073 NA
HETATM    4  C8  UNL     1      23.448   1.035  52.816  1.00  0.00     0.744 A 
HETATM    5  N2  UNL     1      24.607   1.101  52.479  1.00  0.00    -0.064 NA
HETATM    6  C9  UNL     1      25.143   1.896  51.641  1.00  0.00     0.074 A 
HETATM    7  C10 UNL     1      26.322   1.194  52.061  1.00  0.00     0.019 A 
HETATM    8  C11 UNL     1      27.167   2.411  52.146  1.00  0.00    -0.015 A 
HETATM    9  C12 UNL     1      28.233   2.047  53.034  1.00  0.00    -0.006 A 
HETATM   10  C13 UNL     1      28.286   0.743  53.617  1.00  0.00    -0.014 A 
HETATM   11  C14 UNL     1      27.143   0.103  53.081  1.00  0.00     0.021 A 
HETATM   12  C15 UNL     1      26.288  -0.797  53.897  1.00  0.00     0.150 A 
HETATM   13  N3  UNL     1      24.987  -0.470  54.307  1.00  0.00    -0.194 NA
HETATM   14  N4  UNL     1      24.047   0.058  53.542  1.00  0.00    -0.106 N 
HETATM   15  C16 UNL     1      22.922  -0.814  53.170  1.00  0.00     0.199 C 
HETATM   16  C17 UNL     1      26.008  -0.204  52.407  1.00  0.00     0.091 A 
ENDROOT
BRANCH   1  17
HETATM   17  C5  UNL     1      25.826   3.420  50.125  1.00  0.00     0.027 C 
HETATM   18  C3  UNL     1      25.694   4.657  49.560  1.00  0.00     0.004 C 
BRANCH  18  19
HETATM   19  C2  UNL     1      24.529   5.564  49.607  1.00  0.00     0.208 C 
BRANCH  19  20
HETATM   20  O1  UNL     1      23.844   5.750  48.457  1.00  0.00    -0.391 OA
HETATM   21  C1  UNL     1      22.862   4.889  48.117  1.00  0.00     0.201 C 
ENDBRANCH  19  20
ENDBRANCH  18  19
BRANCH  18  22
HETATM   22  C4  UNL     1      26.883   5.122  48.853  1.00  0.00     0.267 C 
HETATM   23  O2  UNL     1      27.713   4.151  48.844  1.00  0.00    -0.302 OA
ENDBRANCH  18  22
ENDBRANCH   1  17
TORSDOF 4
ENDMDL
MODEL 3
REMARK VINA RESULT:      -7.5      8.301     10.219
REMARK  4 active torsions:
REMARK  status: ('A' for Active; 'I' for Inactive)
REMARK    1  A    between atoms: O1_2  and  C2_3 
REMARK    2  A    between atoms: C2_3  and  C3_4 
REMARK    3  A    between atoms: C3_4  and  C4_5 
REMARK    4  A    between atoms: C5_7  and  C6_8 
ROOT
HETATM    1  C6  UNL     1      31.592   5.798  48.112  1.00  0.00     0.009 A 
HETATM    2  C7  UNL     1      32.421   6.695  48.774  1.00  0.00     0.150 A 
HETATM    3  N1  UNL     1      32.071   7.898  49.299  1.00  0.00    -0.073 NA
HETATM    4  C8  UNL     1      30.930   8.487  49.312  1.00  0.00     0.744 A 
HETATM    5  N2  UNL     1      30.204   7.709  48.735  1.00  0.00    -0.064 NA
HETATM    6  C9  UNL     1      30.499   6.577  48.234  1.00  0.00     0.074 A 
HETATM    7  C10 UNL     1      29.092   6.583  47.951  1.00  0.00     0.019 A 
HETATM    8  C11 UNL     1      28.882   5.165  48.338  1.00  0.00    -0.015 A 
HETATM    9  C12 UNL     1      27.481   5.078  48.636  1.00  0.00    -0.006 A 
HETATM   10  C13 UNL     1      26.638   6.227  48.531  1.00  0.00    -0.014 A 
HETATM   11  C14 UNL     1      27.527   7.242  48.101  1.00  0.00     0.021 A 
HETATM   12  C15 UNL     1      27.452   8.630  48.625  1.00  0.00     0.150 A 
HETATM   13  N3  UNL     1      28.413   9.191  49.479  1.00  0.00    -0.194 NA
HETATM   14  N4  UNL     1      29.724   9.107  49.324  1.00  0.00    -0.106 N 
HETATM   15  C16 UNL     1      30.428  10.336  48.925  1.00  0.00     0.199 C 
HETATM   16  C17 UNL     1      28.610   7.953  47.703  1.00  0.00     0.091 A 
ENDROOT
BRANCH   1  17
HETATM   17  C5  UNL     1      31.290   4.618  47.443  1.00  0.00     0.027 C 
HETATM   18  C3  UNL     1      32.310   3.752  47.167  1.00  0.00     0.004 C 
BRANCH  18  19
HETATM   19  C2  UNL     1      33.743   3.892  47.498  1.00  0.00     0.208 C 
BRANCH  19  20
HETATM   20  O1  UNL     1      34.528   4.515  46.592  1.00  0.00    -0.391 OA
HETATM   21  C1  UNL     1      35.147   3.793  45.635  1.00  0.00     0.201 C 
ENDBRANCH  19  20
ENDBRANCH  18  19
BRANCH  18  22
HETATM   22  C4  UNL     1      31.890   2.533  46.483  1.00  0.00     0.267 C 
HETATM   23  O2  UNL     1      32.631   1.588  46.919  1.00  0.00    -0.302 OA
ENDBRANCH  18  22
ENDBRANCH   1  17
TORSDOF 4
ENDMDL
MODEL 4
REMARK VINA RESULT:      -7.5      1.460      3.534
REMARK  4 active torsions:
REMARK  status: ('A' for Active; 'I' for Inactive)
REMARK    1  A    between atoms: O1_2  and  C2_3 
REMARK    2  A    between atoms: C2_3  and  C3_4 
REMARK    3  A    between atoms: C3_4  and  C4_5 
REMARK    4  A    between atoms: C5_7  and  C6_8 
ROOT
HETATM    1  C6  UNL     1      25.220   0.585  53.750  1.00  0.00     0.009 A 
HETATM    2  C7  UNL     1      24.562  -0.585  54.111  1.00  0.00     0.150 A 
HETATM    3  N1  UNL     1      23.303  -0.957  53.761  1.00  0.00    -0.073 NA
HETATM    4  C8  UNL     1      22.438  -0.342  53.038  1.00  0.00     0.744 A 
HETATM    5  N2  UNL     1      23.007   0.677  52.721  1.00  0.00    -0.064 NA
HETATM    6  C9  UNL     1      24.183   1.055  53.031  1.00  0.00     0.074 A 
HETATM    7  C10 UNL     1      23.814   2.155  52.185  1.00  0.00     0.019 A 
HETATM    8  C11 UNL     1      25.123   2.220  51.489  1.00  0.00    -0.015 A 
HETATM    9  C12 UNL     1      24.839   2.891  50.253  1.00  0.00    -0.006 A 
HETATM   10  C13 UNL     1      23.512   3.317  49.939  1.00  0.00    -0.014 A 
HETATM   11  C14 UNL     1      22.768   2.920  51.078  1.00  0.00     0.021 A 
HETATM   12  C15 UNL     1      21.402   2.346  50.967  1.00  0.00     0.150 A 
HETATM   13  N3  UNL     1      21.101   1.002  51.231  1.00  0.00    -0.194 NA
HETATM   14  N4  UNL     1      21.525   0.308  52.274  1.00  0.00    -0.106 N 
HETATM   15  C16 UNL     1      20.527  -0.029  53.301  1.00  0.00     0.199 C 
HETATM   16  C17 UNL     1      22.368   2.427  52.275  1.00  0.00     0.091 A 
ENDROOT
BRANCH   1  17
HETATM   17  C5  UNL     1      26.288   1.473  53.722  1.00  0.00     0.027 C 
HETATM   18  C3  UNL     1      27.518   0.995  53.366  1.00  0.00     0.004 C 
BRANCH  18  19
HETATM   19  C2  UNL     1      27.887  -0.384  52.984  1.00  0.00     0.208 C 
BRANCH  19  20
HETATM   20  O1  UNL     1      28.555  -1.120  53.899  1.00  0.00    -0.391 OA
HETATM   21  C1  UNL     1      29.797  -1.568  53.619  1.00  0.00     0.201 C 
ENDBRANCH  19  20
ENDBRANCH  18  19
BRANCH  18  22
HETATM   22  C4  UNL     1      28.570   2.006  53.344  1.00  0.00     0.267 C 
HETATM   23  O2  UNL     1      28.362   2.780  54.338  1.00  0.00    -0.302 OA
ENDBRANCH  18  22
ENDBRANCH   1  17
TORSDOF 4
ENDMDL
MODEL 5
REMARK VINA RESULT:      -7.4      3.235      5.244
REMARK  4 active torsions:
REMARK  status: ('A' for Active; 'I' for Inactive)
REMARK    1  A    between atoms: O1_2  and  C2_3 
REMARK    2  A    between atoms: C2_3  and  C3_4 
REMARK    3  A    between atoms: C3_4  and  C4_5 
REMARK    4  A    between atoms: C5_7  and  C6_8 
ROOT
HETATM    1  C6  UNL     1      24.512   3.354  50.397  1.00  0.00     0.009 A 
HETATM    2  C7  UNL     1      25.874   3.255  50.139  1.00  0.00     0.150 A 
HETATM    3  N1  UNL     1      26.748   2.371  50.686  1.00  0.00    -0.073 NA
HETATM    4  C8  UNL     1      26.543   1.441  51.548  1.00  0.00     0.744 A 
HETATM    5  N2  UNL     1      25.358   1.524  51.777  1.00  0.00    -0.064 NA
HETATM    6  C9  UNL     1      24.513   2.338  51.282  1.00  0.00     0.074 A 
HETATM    7  C10 UNL     1      23.622   1.567  52.102  1.00  0.00     0.019 A 
HETATM    8  C11 UNL     1      22.549   1.489  51.079  1.00  0.00    -0.015 A 
HETATM    9  C12 UNL     1      21.772   0.345  51.460  1.00  0.00    -0.006 A 
HETATM   10  C13 UNL     1      22.125  -0.430  52.607  1.00  0.00    -0.014 A 
HETATM   11  C14 UNL     1      23.270   0.236  53.107  1.00  0.00     0.021 A 
HETATM   12  C15 UNL     1      24.441  -0.503  53.645  1.00  0.00     0.150 A 
HETATM   13  N3  UNL     1      25.685  -0.564  52.997  1.00  0.00    -0.194 NA
HETATM   14  N4  UNL     1      26.325   0.461  52.459  1.00  0.00    -0.106 N 
HETATM   15  C16 UNL     1      27.534   0.929  53.153  1.00  0.00     0.199 C 
HETATM   16  C17 UNL     1      24.305   1.086  53.316  1.00  0.00     0.091 A 
ENDROOT
BRANCH   1  17
HETATM   17  C5  UNL     1      23.237   3.886  50.251  1.00  0.00     0.027 C 
HETATM   18  C3  UNL     1      22.965   5.088  50.842  1.00  0.00     0.004 C 
BRANCH  18  19
HETATM   19  C2  UNL     1      23.872   5.940  51.639  1.00  0.00     0.208 C 
BRANCH  19  20
HETATM   20  O1  UNL     1      24.304   7.085  51.067  1.00  0.00    -0.391 OA
HETATM   21  C1  UNL     1      25.452   7.086  50.357  1.00  0.00     0.201 C 
ENDBRANCH  19  20
ENDBRANCH  18  19
BRANCH  18  22
HETATM   22  C4  UNL     1      21.608   5.573  50.614  1.00  0.00     0.267 C 
HETATM   23  O2  UNL     1      20.824   4.808  51.270  1.00  0.00    -0.302 OA
ENDBRANCH  18  22
ENDBRANCH   1  17
TORSDOF 4
ENDMDL
MODEL 6
REMARK VINA RESULT:      -7.2      2.342      3.982
REMARK  4 active torsions:
REMARK  status: ('A' for Active; 'I' for Inactive)
REMARK    1  A    between atoms: O1_2  and  C2_3 
REMARK    2  A    between atoms: C2_3  and  C3_4 
REMARK    3  A    between atoms: C3_4  and  C4_5 
REMARK    4  A    between atoms: C5_7  and  C6_8 
ROOT
HETATM    1  C6  UNL     1      23.286   2.510  51.329  1.00  0.00     0.009 A 
HETATM    2  C7  UNL     1      21.970   2.941  51.455  1.00  0.00     0.150 A 
HETATM    3  N1  UNL     1      21.007   2.407  52.249  1.00  0.00    -0.073 NA
HETATM    4  C8  UNL     1      21.066   1.405  53.050  1.00  0.00     0.744 A 
HETATM    5  N2  UNL     1      22.210   1.026  52.944  1.00  0.00    -0.064 NA
HETATM    6  C9  UNL     1      23.136   1.503  52.212  1.00  0.00     0.074 A 
HETATM    7  C10 UNL     1      23.885   0.468  52.867  1.00  0.00     0.019 A 
HETATM    8  C11 UNL     1      25.087   1.309  53.092  1.00  0.00    -0.015 A 
HETATM    9  C12 UNL     1      25.775   0.669  54.177  1.00  0.00    -0.006 A 
HETATM   10  C13 UNL     1      25.245  -0.512  54.783  1.00  0.00    -0.014 A 
HETATM   11  C14 UNL     1      24.060  -0.749  54.046  1.00  0.00     0.021 A 
HETATM   12  C15 UNL     1      22.807  -1.212  54.696  1.00  0.00     0.150 A 
HETATM   13  N3  UNL     1      21.664  -0.411  54.840  1.00  0.00    -0.194 NA
HETATM   14  N4  UNL     1      21.131   0.347  53.896  1.00  0.00    -0.106 N 
HETATM   15  C16 UNL     1      19.849  -0.098  53.328  1.00  0.00     0.199 C 
HETATM   16  C17 UNL     1      23.028  -0.691  53.170  1.00  0.00     0.091 A 
ENDROOT
BRANCH   1  17
HETATM   17  C5  UNL     1      24.582   2.546  50.830  1.00  0.00     0.027 C 
HETATM   18  C3  UNL     1      24.991   3.672  50.172  1.00  0.00     0.004 C 
BRANCH  18  19
HETATM   19  C2  UNL     1      24.224   4.908  49.912  1.00  0.00     0.208 C 
BRANCH  19  20
HETATM   20  O1  UNL     1      24.323   5.900  50.823  1.00  0.00    -0.391 OA
HETATM   21  C1  UNL     1      23.396   6.881  50.848  1.00  0.00     0.201 C 
ENDBRANCH  19  20
ENDBRANCH  18  19
BRANCH  18  22
HETATM   22  C4  UNL     1      26.373   3.623  49.707  1.00  0.00     0.267 C 
HETATM   23  O2  UNL     1      27.009   2.858  50.507  1.00  0.00    -0.302 OA
ENDBRANCH  18  22
ENDBRANCH   1  17
TORSDOF 4
ENDMDL
MODEL 7
REMARK VINA RESULT:      -7.0      7.239      9.207
REMARK  4 active torsions:
REMARK  status: ('A' for Active; 'I' for Inactive)
REMARK    1  A    between atoms: O1_2  and  C2_3 
REMARK    2  A    between atoms: C2_3  and  C3_4 
REMARK    3  A    between atoms: C3_4  and  C4_5 
REMARK    4  A    between atoms: C5_7  and  C6_8 
ROOT
HETATM    1  C6  UNL     1      30.332   7.090  48.115  1.00  0.00     0.009 A 
HETATM    2  C7  UNL     1      30.667   8.305  48.702  1.00  0.00     0.150 A 
HETATM    3  N1  UNL     1      29.817   9.206  49.259  1.00  0.00    -0.073 NA
HETATM    4  C8  UNL     1      28.539   9.164  49.377  1.00  0.00     0.744 A 
HETATM    5  N2  UNL     1      28.242   8.108  48.867  1.00  0.00    -0.064 NA
HETATM    6  C9  UNL     1      29.012   7.242  48.337  1.00  0.00     0.074 A 
HETATM    7  C10 UNL     1      27.764   6.551  48.183  1.00  0.00     0.019 A 
HETATM    8  C11 UNL     1      28.305   5.228  48.584  1.00  0.00    -0.015 A 
HETATM    9  C12 UNL     1      27.155   4.482  49.007  1.00  0.00    -0.006 A 
HETATM   10  C13 UNL     1      25.852   5.069  48.981  1.00  0.00    -0.014 A 
HETATM   11  C14 UNL     1      26.094   6.370  48.476  1.00  0.00     0.021 A 
HETATM   12  C15 UNL     1      25.392   7.566  49.008  1.00  0.00     0.150 A 
HETATM   13  N3  UNL     1      26.022   8.560  49.773  1.00  0.00    -0.194 NA
HETATM   14  N4  UNL     1      27.189   9.119  49.500  1.00  0.00    -0.106 N 
HETATM   15  C16 UNL     1      27.168  10.516  49.042  1.00  0.00     0.199 C 
HETATM   16  C17 UNL     1      26.655   7.501  47.983  1.00  0.00     0.091 A 
ENDROOT
BRANCH   1  17
HETATM   17  C5  UNL     1      30.593   5.886  47.473  1.00  0.00     0.027 C 
HETATM   18  C3  UNL     1      31.735   5.211  47.802  1.00  0.00     0.004 C 
BRANCH  18  19
HETATM   19  C2  UNL     1      32.769   5.590  48.788  1.00  0.00     0.208 C 
BRANCH  19  20
HETATM   20  O1  UNL     1      33.750   6.417  48.366  1.00  0.00    -0.391 OA
HETATM   21  C1  UNL     1      35.039   6.029  48.465  1.00  0.00     0.201 C 
ENDBRANCH  19  20
ENDBRANCH  18  19
BRANCH  18  22
HETATM   22  C4  UNL     1      31.909   3.949  47.092  1.00  0.00     0.267 C 
HETATM   23  O2  UNL     1      32.749   3.258  47.762  1.00  0.00    -0.302 OA
ENDBRANCH  18  22
ENDBRANCH   1  17
TORSDOF 4
ENDMDL
MODEL 8
REMARK VINA RESULT:      -6.9      2.729      5.274
REMARK  4 active torsions:
REMARK  status: ('A' for Active; 'I' for Inactive)
REMARK    1  A    between atoms: O1_2  and  C2_3 
REMARK    2  A    between atoms: C2_3  and  C3_4 
REMARK    3  A    between atoms: C3_4  and  C4_5 
REMARK    4  A    between atoms: C5_7  and  C6_8 
ROOT
HETATM    1  C6  UNL     1      23.577   1.622  51.389  1.00  0.00     0.009 A 
HETATM    2  C7  UNL     1      22.331   1.304  50.863  1.00  0.00     0.150 A 
HETATM    3  N1  UNL     1      21.632   2.006  49.933  1.00  0.00    -0.073 NA
HETATM    4  C8  UNL     1      21.937   3.099  49.331  1.00  0.00     0.744 A 
HETATM    5  N2  UNL     1      23.022   3.379  49.786  1.00  0.00    -0.064 NA
HETATM    6  C9  UNL     1      23.703   2.745  50.656  1.00  0.00     0.074 A 
HETATM    7  C10 UNL     1      24.632   3.803  50.378  1.00  0.00     0.019 A 
HETATM    8  C11 UNL     1      25.823   2.917  50.352  1.00  0.00    -0.015 A 
HETATM    9  C12 UNL     1      26.796   3.646  49.590  1.00  0.00    -0.006 A 
HETATM   10  C13 UNL     1      26.487   4.931  49.047  1.00  0.00    -0.014 A 
HETATM   11  C14 UNL     1      25.156   5.151  49.476  1.00  0.00     0.021 A 
HETATM   12  C15 UNL     1      24.138   5.783  48.598  1.00  0.00     0.150 A 
HETATM   13  N3  UNL     1      23.050   5.090  48.046  1.00  0.00    -0.194 NA
HETATM   14  N4  UNL     1      22.260   4.253  48.696  1.00  0.00    -0.106 N 
HETATM   15  C16 UNL     1      20.888   4.707  48.970  1.00  0.00     0.199 C 
HETATM   16  C17 UNL     1      23.925   5.050  50.036  1.00  0.00     0.091 A 
ENDROOT
BRANCH   1  17
HETATM   17  C5  UNL     1      24.691   1.429  52.197  1.00  0.00     0.027 C 
HETATM   18  C3  UNL     1      24.666   0.402  53.099  1.00  0.00     0.004 C 
BRANCH  18  19
HETATM   19  C2  UNL     1      23.584  -0.574  53.343  1.00  0.00     0.208 C 
BRANCH  19  20
HETATM   20  O1  UNL     1      22.586  -0.197  54.171  1.00  0.00    -0.391 OA
HETATM   21  C1  UNL     1      21.362  -0.750  54.038  1.00  0.00     0.201 C 
ENDBRANCH  19  20
ENDBRANCH  18  19
BRANCH  18  22
HETATM   22  C4  UNL     1      25.888   0.267  53.885  1.00  0.00     0.267 C 
HETATM   23  O2  UNL     1      25.859  -0.892  54.422  1.00  0.00    -0.302 OA
ENDBRANCH  18  22
ENDBRANCH   1  17
TORSDOF 4
ENDMDL
MODEL 9
REMARK VINA RESULT:      -6.9      7.426     10.469
REMARK  4 active torsions:
REMARK  status: ('A' for Active; 'I' for Inactive)
REMARK    1  A    between atoms: O1_2  and  C2_3 
REMARK    2  A    between atoms: C2_3  and  C3_4 
REMARK    3  A    between atoms: C3_4  and  C4_5 
REMARK    4  A    between atoms: C5_7  and  C6_8 
ROOT
HETATM    1  C6  UNL     1      27.966   6.552  48.160  1.00  0.00     0.009 A 
HETATM    2  C7  UNL     1      27.505   7.774  47.685  1.00  0.00     0.150 A 
HETATM    3  N1  UNL     1      28.237   8.899  47.476  1.00  0.00    -0.073 NA
HETATM    4  C8  UNL     1      29.491   9.108  47.660  1.00  0.00     0.744 A 
HETATM    5  N2  UNL     1      29.896   8.046  48.074  1.00  0.00    -0.064 NA
HETATM    6  C9  UNL     1      29.239   6.975  48.281  1.00  0.00     0.074 A 
HETATM    7  C10 UNL     1      30.549   6.501  48.629  1.00  0.00     0.019 A 
HETATM    8  C11 UNL     1      30.398   5.199  47.931  1.00  0.00    -0.015 A 
HETATM    9  C12 UNL     1      31.743   4.761  47.694  1.00  0.00    -0.006 A 
HETATM   10  C13 UNL     1      32.856   5.556  48.109  1.00  0.00    -0.014 A 
HETATM   11  C14 UNL     1      32.241   6.677  48.718  1.00  0.00     0.021 A 
HETATM   12  C15 UNL     1      32.763   8.057  48.539  1.00  0.00     0.150 A 
HETATM   13  N3  UNL     1      32.105   9.046  47.793  1.00  0.00    -0.194 NA
HETATM   14  N4  UNL     1      30.814   9.327  47.856  1.00  0.00    -0.106 N 
HETATM   15  C16 UNL     1      30.440  10.598  48.495  1.00  0.00     0.199 C 
HETATM   16  C17 UNL     1      31.362   7.580  49.216  1.00  0.00     0.091 A 
ENDROOT
BRANCH   1  17
HETATM   17  C5  UNL     1      27.844   5.224  48.548  1.00  0.00     0.027 C 
HETATM   18  C3  UNL     1      26.642   4.801  49.041  1.00  0.00     0.004 C 
BRANCH  18  19
HETATM   19  C2  UNL     1      25.401   5.583  49.220  1.00  0.00     0.208 C 
BRANCH  19  20
HETATM   20  O1  UNL     1      25.032   5.874  50.486  1.00  0.00    -0.391 OA
HETATM   21  C1  UNL     1      24.617   7.122  50.791  1.00  0.00     0.201 C 
ENDBRANCH  19  20
ENDBRANCH  18  19
BRANCH  18  22
HETATM   22  C4  UNL     1      26.606   3.387  49.400  1.00  0.00     0.267 C 
HETATM   23  O2  UNL     1      27.051   3.295  50.594  1.00  0.00    -0.302 OA
ENDBRANCH  18  22
ENDBRANCH   1  17
TORSDOF 4
ENDMDL
