MODEL 1
REMARK VINA RESULT:      -8.5      0.000      0.000
REMARK  6 active torsions:
REMARK  status: ('A' for Active; 'I' for Inactive)
REMARK    1  A    between atoms: C5_5  and  N1_6 
REMARK    2  A    between atoms: N1_6  and  C6_7 
REMARK    3  A    between atoms: C6_7  and  O1_9 
REMARK    4  A    between atoms: C9_11  and  N2_12 
REMARK    5  A    between atoms: N2_12  and  C10_13 
REMARK    6  A    between atoms: C13_17  and  C14_18 
ROOT
HETATM    1  N2  UNL     1      23.680   3.047  52.670  1.00  0.00    -0.188 N 
HETATM    2  H13 UNL     1      23.145   3.563  53.431  1.00  0.00     0.184 HD
ENDROOT
BRANCH   1   3
HETATM    3  C9  UNL     1      24.412   1.928  53.126  1.00  0.00     0.057 A 
HETATM    4  C2  UNL     1      23.885   0.635  53.018  1.00  0.00    -0.035 A 
HETATM    5  C1  UNL     1      22.529   0.450  52.413  1.00  0.00     0.050 C 
HETATM    6  C3  UNL     1      24.580  -0.469  53.455  1.00  0.00     0.011 A 
HETATM    7  C4  UNL     1      25.831  -0.365  54.021  1.00  0.00     0.030 A 
HETATM    8  C5  UNL     1      26.392   0.886  54.148  1.00  0.00     0.032 A 
HETATM    9  C8  UNL     1      25.664   1.961  53.699  1.00  0.00     0.059 A 
BRANCH   8  10
HETATM   10  N1  UNL     1      27.677   1.053  54.726  1.00  0.00    -0.364 N 
HETATM   11  H6  UNL     1      27.802   0.917  55.753  1.00  0.00     0.162 HD
BRANCH  10  12
HETATM   12  C6  UNL     1      28.828   1.411  53.931  1.00  0.00     0.213 C 
HETATM   13  C7  UNL     1      29.689   0.218  53.626  1.00  0.00     0.063 C 
BRANCH  12  14
HETATM   14  O1  UNL     1      29.566   2.433  54.485  1.00  0.00    -0.377 OA
HETATM   15  H11 UNL     1      29.041   3.221  54.727  1.00  0.00     0.212 HD
ENDBRANCH  12  14
ENDBRANCH  10  12
ENDBRANCH   8  10
ENDBRANCH   1   3
BRANCH   1  16
HETATM   16  C10 UNL     1      23.578   3.552  51.348  1.00  0.00     0.727 A 
HETATM   17  N3  UNL     1      22.481   3.574  50.584  1.00  0.00    -0.075 NA
HETATM   18  C11 UNL     1      22.429   4.061  49.339  1.00  0.00     0.139 A 
HETATM   19  C12 UNL     1      23.589   4.575  48.811  1.00  0.00     0.053 A 
HETATM   20  C13 UNL     1      24.749   4.579  49.551  1.00  0.00     0.089 A 
HETATM   21  N5  UNL     1      24.685   4.066  50.785  1.00  0.00    -0.062 NA
BRANCH  20  22
HETATM   22  C14 UNL     1      26.027   5.100  49.083  1.00  0.00     0.011 A 
HETATM   23  C15 UNL     1      26.086   6.419  48.690  1.00  0.00     0.017 A 
HETATM   24  C16 UNL     1      27.319   6.877  48.251  1.00  0.00     0.020 A 
HETATM   25  C17 UNL     1      28.479   6.118  48.180  1.00  0.00     0.116 A 
HETATM   26  N4  UNL     1      28.360   4.825  48.581  1.00  0.00    -0.272 NA
HETATM   27  C18 UNL     1      27.176   4.342  49.014  1.00  0.00     0.130 A 
ENDBRANCH  20  22
ENDBRANCH   1  16
TORSDOF 6
ENDMDL
MODEL 2
REMARK VINA RESULT:      -8.3      2.056      6.659
REMARK  6 active torsions:
REMARK  status: ('A' for Active; 'I' for Inactive)
REMARK    1  A    between atoms: C5_5  and  N1_6 
REMARK    2  A    between atoms: N1_6  and  C6_7 
REMARK    3  A    between atoms: C6_7  and  O1_9 
REMARK    4  A    between atoms: C9_11  and  N2_12 
REMARK    5  A    between atoms: N2_12  and  C10_13 
REMARK    6  A    between atoms: C13_17  and  C14_18 
ROOT
HETATM    1  N2  UNL     1      25.647   3.761  49.435  1.00  0.00    -0.188 N 
HETATM    2  H13 UNL     1      25.079   3.297  48.666  1.00  0.00     0.184 HD
ENDROOT
BRANCH   1   3
HETATM    3  C9  UNL     1      26.507   4.790  48.988  1.00  0.00     0.057 A 
HETATM    4  C2  UNL     1      26.033   6.096  48.817  1.00  0.00    -0.035 A 
HETATM    5  C1  UNL     1      24.597   6.394  49.114  1.00  0.00     0.050 C 
HETATM    6  C3  UNL     1      26.851   7.113  48.383  1.00  0.00     0.011 A 
HETATM    7  C4  UNL     1      28.181   6.904  48.093  1.00  0.00     0.030 A 
HETATM    8  C5  UNL     1      28.695   5.635  48.246  1.00  0.00     0.032 A 
HETATM    9  C8  UNL     1      27.842   4.650  48.681  1.00  0.00     0.059 A 
BRANCH   8  10
HETATM   10  N1  UNL     1      30.057   5.360  47.959  1.00  0.00    -0.364 N 
HETATM   11  H6  UNL     1      30.300   4.762  47.140  1.00  0.00     0.162 HD
BRANCH  10  12
HETATM   12  C6  UNL     1      31.126   5.887  48.774  1.00  0.00     0.213 C 
HETATM   13  C7  UNL     1      32.476   5.468  48.263  1.00  0.00     0.063 C 
BRANCH  12  14
HETATM   14  O1  UNL     1      30.980   5.586  50.110  1.00  0.00    -0.377 OA
HETATM   15  H11 UNL     1      31.787   5.725  50.642  1.00  0.00     0.212 HD
ENDBRANCH  12  14
ENDBRANCH  10  12
ENDBRANCH   8  10
ENDBRANCH   1   3
BRANCH   1  16
HETATM   16  C10 UNL     1      25.459   3.287  50.760  1.00  0.00     0.727 A 
HETATM   17  N3  UNL     1      24.454   3.600  51.584  1.00  0.00    -0.075 NA
HETATM   18  C11 UNL     1      24.315   3.128  52.828  1.00  0.00     0.139 A 
HETATM   19  C12 UNL     1      25.275   2.259  53.288  1.00  0.00     0.053 A 
HETATM   20  C13 UNL     1      26.332   1.902  52.484  1.00  0.00     0.089 A 
HETATM   21  N5  UNL     1      26.371   2.435  51.256  1.00  0.00    -0.062 NA
BRANCH  20  22
HETATM   22  C14 UNL     1      27.400   0.990  52.877  1.00  0.00     0.011 A 
HETATM   23  C15 UNL     1      27.186  -0.363  52.728  1.00  0.00     0.017 A 
HETATM   24  C16 UNL     1      28.225  -1.197  53.113  1.00  0.00     0.020 A 
HETATM   25  C17 UNL     1      29.444  -0.777  53.627  1.00  0.00     0.116 A 
HETATM   26  N4  UNL     1      29.597   0.568  53.750  1.00  0.00    -0.272 NA
HETATM   27  C18 UNL     1      28.609   1.413  53.387  1.00  0.00     0.130 A 
ENDBRANCH  20  22
ENDBRANCH   1  16
TORSDOF 6
ENDMDL
MODEL 3
REMARK VINA RESULT:      -8.2      2.195      6.326
REMARK  6 active torsions:
REMARK  status: ('A' for Active; 'I' for Inactive)
REMARK    1  A    between atoms: C5_5  and  N1_6 
REMARK    2  A    between atoms: N1_6  and  C6_7 
REMARK    3  A    between atoms: C6_7  and  O1_9 
REMARK    4  A    between atoms: C9_11  and  N2_12 
REMARK    5  A    between atoms: N2_12  and  C10_13 
REMARK    6  A    between atoms: C13_17  and  C14_18 
ROOT
HETATM    1  N2  UNL     1      22.221   2.056  52.265  1.00  0.00    -0.188 N 
HETATM    2  H13 UNL     1      21.290   2.518  52.489  1.00  0.00     0.184 HD
ENDROOT
BRANCH   1   3
HETATM    3  C9  UNL     1      22.903   2.620  51.164  1.00  0.00     0.057 A 
HETATM    4  C2  UNL     1      22.484   2.364  49.853  1.00  0.00    -0.035 A 
HETATM    5  C1  UNL     1      21.299   1.477  49.628  1.00  0.00     0.050 C 
HETATM    6  C3  UNL     1      23.133   2.902  48.766  1.00  0.00     0.011 A 
HETATM    7  C4  UNL     1      24.229   3.724  48.906  1.00  0.00     0.030 A 
HETATM    8  C5  UNL     1      24.679   4.008  50.176  1.00  0.00     0.032 A 
HETATM    9  C8  UNL     1      24.002   3.449  51.233  1.00  0.00     0.059 A 
BRANCH   8  10
HETATM   10  N1  UNL     1      25.805   4.846  50.381  1.00  0.00    -0.364 N 
HETATM   11  H6  UNL     1      26.194   4.961  51.341  1.00  0.00     0.162 HD
BRANCH  10  12
HETATM   12  C6  UNL     1      26.435   5.553  49.290  1.00  0.00     0.213 C 
HETATM   13  C7  UNL     1      27.603   4.790  48.731  1.00  0.00     0.063 C 
BRANCH  12  14
HETATM   14  O1  UNL     1      26.788   6.842  49.620  1.00  0.00    -0.377 OA
HETATM   15  H11 UNL     1      27.565   6.906  50.210  1.00  0.00     0.212 HD
ENDBRANCH  12  14
ENDBRANCH  10  12
ENDBRANCH   8  10
ENDBRANCH   1   3
BRANCH   1  16
HETATM   16  C10 UNL     1      22.623   0.969  53.085  1.00  0.00     0.727 A 
HETATM   17  N3  UNL     1      21.822   0.160  53.787  1.00  0.00    -0.075 NA
HETATM   18  C11 UNL     1      22.245  -0.855  54.548  1.00  0.00     0.139 A 
HETATM   19  C12 UNL     1      23.599  -1.080  54.611  1.00  0.00     0.053 A 
HETATM   20  C13 UNL     1      24.471  -0.279  53.909  1.00  0.00     0.089 A 
HETATM   21  N5  UNL     1      23.937   0.708  53.179  1.00  0.00    -0.062 NA
BRANCH  20  22
HETATM   22  C14 UNL     1      25.920  -0.435  53.910  1.00  0.00     0.011 A 
HETATM   23  C15 UNL     1      26.496  -1.160  52.889  1.00  0.00     0.017 A 
HETATM   24  C16 UNL     1      27.876  -1.286  52.924  1.00  0.00     0.020 A 
HETATM   25  C17 UNL     1      28.707  -0.743  53.895  1.00  0.00     0.116 A 
HETATM   26  N4  UNL     1      28.083  -0.038  54.875  1.00  0.00    -0.272 NA
HETATM   27  C18 UNL     1      26.741   0.106  54.876  1.00  0.00     0.130 A 
ENDBRANCH  20  22
ENDBRANCH   1  16
TORSDOF 6
ENDMDL
MODEL 4
REMARK VINA RESULT:      -8.0      2.289      6.814
REMARK  6 active torsions:
REMARK  status: ('A' for Active; 'I' for Inactive)
REMARK    1  A    between atoms: C5_5  and  N1_6 
REMARK    2  A    between atoms: N1_6  and  C6_7 
REMARK    3  A    between atoms: C6_7  and  O1_9 
REMARK    4  A    between atoms: C9_11  and  N2_12 
REMARK    5  A    between atoms: N2_12  and  C10_13 
REMARK    6  A    between atoms: C13_17  and  C14_18 
ROOT
HETATM    1  N2  UNL     1      25.035   3.697  49.466  1.00  0.00    -0.188 N 
HETATM    2  H13 UNL     1      25.198   3.029  48.656  1.00  0.00     0.184 HD
ENDROOT
BRANCH   1   3
HETATM    3  C9  UNL     1      25.233   5.060  49.150  1.00  0.00     0.057 A 
HETATM    4  C2  UNL     1      24.245   5.791  48.479  1.00  0.00    -0.035 A 
HETATM    5  C1  UNL     1      22.969   5.109  48.097  1.00  0.00     0.050 C 
HETATM    6  C3  UNL     1      24.416   7.118  48.160  1.00  0.00     0.011 A 
HETATM    7  C4  UNL     1      25.567   7.802  48.483  1.00  0.00     0.030 A 
HETATM    8  C5  UNL     1      26.569   7.126  49.145  1.00  0.00     0.032 A 
HETATM    9  C8  UNL     1      26.356   5.802  49.443  1.00  0.00     0.059 A 
BRANCH   8  10
HETATM   10  N1  UNL     1      27.777   7.779  49.501  1.00  0.00    -0.364 N 
HETATM   11  H6  UNL     1      28.662   7.230  49.556  1.00  0.00     0.162 HD
BRANCH  10  12
HETATM   12  C6  UNL     1      27.820   9.192  49.792  1.00  0.00     0.213 C 
HETATM   13  C7  UNL     1      29.105   9.819  49.330  1.00  0.00     0.063 C 
BRANCH  12  14
HETATM   14  O1  UNL     1      27.573   9.473  51.117  1.00  0.00    -0.377 OA
HETATM   15  H11 UNL     1      28.181   9.031  51.741  1.00  0.00     0.212 HD
ENDBRANCH  12  14
ENDBRANCH  10  12
ENDBRANCH   8  10
ENDBRANCH   1   3
BRANCH   1  16
HETATM   16  C10 UNL     1      24.653   3.131  50.710  1.00  0.00     0.727 A 
HETATM   17  N3  UNL     1      23.415   3.066  51.212  1.00  0.00    -0.075 NA
HETATM   18  C11 UNL     1      23.100   2.521  52.393  1.00  0.00     0.139 A 
HETATM   19  C12 UNL     1      24.124   1.990  53.139  1.00  0.00     0.053 A 
HETATM   20  C13 UNL     1      25.418   2.027  52.673  1.00  0.00     0.089 A 
HETATM   21  N5  UNL     1      25.618   2.597  51.479  1.00  0.00    -0.062 NA
BRANCH  20  22
HETATM   22  C14 UNL     1      26.570   1.493  53.388  1.00  0.00     0.011 A 
HETATM   23  C15 UNL     1      27.783   2.130  53.233  1.00  0.00     0.017 A 
HETATM   24  C16 UNL     1      28.855   1.593  53.928  1.00  0.00     0.020 A 
HETATM   25  C17 UNL     1      28.798   0.479  54.755  1.00  0.00     0.116 A 
HETATM   26  N4  UNL     1      27.577  -0.107  54.869  1.00  0.00    -0.272 NA
HETATM   27  C18 UNL     1      26.509   0.387  54.208  1.00  0.00     0.130 A 
ENDBRANCH  20  22
ENDBRANCH   1  16
TORSDOF 6
ENDMDL
MODEL 5
REMARK VINA RESULT:      -7.9      3.296      7.192
REMARK  6 active torsions:
REMARK  status: ('A' for Active; 'I' for Inactive)
REMARK    1  A    between atoms: C5_5  and  N1_6 
REMARK    2  A    between atoms: N1_6  and  C6_7 
REMARK    3  A    between atoms: C6_7  and  O1_9 
REMARK    4  A    between atoms: C9_11  and  N2_12 
REMARK    5  A    between atoms: N2_12  and  C10_13 
REMARK    6  A    between atoms: C13_17  and  C14_18 
ROOT
HETATM    1  N2  UNL     1      22.799   1.874  52.773  1.00  0.00    -0.188 N 
HETATM    2  H13 UNL     1      22.216   2.740  52.574  1.00  0.00     0.184 HD
ENDROOT
BRANCH   1   3
HETATM    3  C9  UNL     1      24.178   2.021  52.499  1.00  0.00     0.057 A 
HETATM    4  C2  UNL     1      24.621   2.367  51.217  1.00  0.00    -0.035 A 
HETATM    5  C1  UNL     1      23.612   2.579  50.131  1.00  0.00     0.050 C 
HETATM    6  C3  UNL     1      25.957   2.516  50.927  1.00  0.00     0.011 A 
HETATM    7  C4  UNL     1      26.934   2.336  51.882  1.00  0.00     0.030 A 
HETATM    8  C5  UNL     1      26.548   1.995  53.159  1.00  0.00     0.032 A 
HETATM    9  C8  UNL     1      25.203   1.856  53.404  1.00  0.00     0.059 A 
BRANCH   8  10
HETATM   10  N1  UNL     1      27.510   1.793  54.182  1.00  0.00    -0.364 N 
HETATM   11  H6  UNL     1      27.201   1.735  55.176  1.00  0.00     0.162 HD
BRANCH  10  12
HETATM   12  C6  UNL     1      28.918   1.666  53.886  1.00  0.00     0.213 C 
HETATM   13  C7  UNL     1      29.369   0.233  53.922  1.00  0.00     0.063 C 
BRANCH  12  14
HETATM   14  O1  UNL     1      29.707   2.460  54.688  1.00  0.00    -0.377 OA
HETATM   15  H11 UNL     1      30.653   2.214  54.689  1.00  0.00     0.212 HD
ENDBRANCH  12  14
ENDBRANCH  10  12
ENDBRANCH   8  10
ENDBRANCH   1   3
BRANCH   1  16
HETATM   16  C10 UNL     1      22.119   0.731  53.269  1.00  0.00     0.727 A 
HETATM   17  N3  UNL     1      22.598  -0.170  54.133  1.00  0.00    -0.075 NA
HETATM   18  C11 UNL     1      21.920  -1.235  54.576  1.00  0.00     0.139 A 
HETATM   19  C12 UNL     1      20.640  -1.412  54.106  1.00  0.00     0.053 A 
HETATM   20  C13 UNL     1      20.096  -0.517  53.215  1.00  0.00     0.089 A 
HETATM   21  N5  UNL     1      20.865   0.513  52.840  1.00  0.00    -0.062 NA
BRANCH  20  22
HETATM   22  C14 UNL     1      18.752  -0.616  52.659  1.00  0.00     0.011 A 
HETATM   23  C15 UNL     1      17.864  -1.483  53.258  1.00  0.00     0.017 A 
HETATM   24  C16 UNL     1      16.596  -1.550  52.701  1.00  0.00     0.020 A 
HETATM   25  C17 UNL     1      16.163  -0.819  51.603  1.00  0.00     0.116 A 
HETATM   26  N4  UNL     1      17.082   0.018  51.055  1.00  0.00    -0.272 NA
HETATM   27  C18 UNL     1      18.326   0.111  51.568  1.00  0.00     0.130 A 
ENDBRANCH  20  22
ENDBRANCH   1  16
TORSDOF 6
ENDMDL
MODEL 6
REMARK VINA RESULT:      -7.8      1.995      3.276
REMARK  6 active torsions:
REMARK  status: ('A' for Active; 'I' for Inactive)
REMARK    1  A    between atoms: C5_5  and  N1_6 
REMARK    2  A    between atoms: N1_6  and  C6_7 
REMARK    3  A    between atoms: C6_7  and  O1_9 
REMARK    4  A    between atoms: C9_11  and  N2_12 
REMARK    5  A    between atoms: N2_12  and  C10_13 
REMARK    6  A    between atoms: C13_17  and  C14_18 
ROOT
HETATM    1  N2  UNL     1      26.507   2.873  49.868  1.00  0.00    -0.188 N 
HETATM    2  H13 UNL     1      26.632   2.100  49.149  1.00  0.00     0.184 HD
ENDROOT
BRANCH   1   3
HETATM    3  C9  UNL     1      26.269   2.416  51.184  1.00  0.00     0.057 A 
HETATM    4  C2  UNL     1      24.966   2.159  51.629  1.00  0.00    -0.035 A 
HETATM    5  C1  UNL     1      23.821   2.378  50.691  1.00  0.00     0.050 C 
HETATM    6  C3  UNL     1      24.710   1.714  52.905  1.00  0.00     0.011 A 
HETATM    7  C4  UNL     1      25.721   1.493  53.815  1.00  0.00     0.030 A 
HETATM    8  C5  UNL     1      27.020   1.730  53.424  1.00  0.00     0.032 A 
HETATM    9  C8  UNL     1      27.229   2.175  52.141  1.00  0.00     0.059 A 
BRANCH   8  10
HETATM   10  N1  UNL     1      28.100   1.524  54.320  1.00  0.00    -0.364 N 
HETATM   11  H6  UNL     1      28.474   2.328  54.870  1.00  0.00     0.162 HD
BRANCH  10  12
HETATM   12  C6  UNL     1      28.704   0.225  54.496  1.00  0.00     0.213 C 
HETATM   13  C7  UNL     1      29.905   0.042  53.611  1.00  0.00     0.063 C 
BRANCH  12  14
HETATM   14  O1  UNL     1      27.807  -0.808  54.344  1.00  0.00    -0.377 OA
HETATM   15  H11 UNL     1      26.964  -0.681  54.821  1.00  0.00     0.212 HD
ENDBRANCH  12  14
ENDBRANCH  10  12
ENDBRANCH   8  10
ENDBRANCH   1   3
BRANCH   1  16
HETATM   16  C10 UNL     1      26.594   4.212  49.405  1.00  0.00     0.727 A 
HETATM   17  N3  UNL     1      25.633   5.140  49.463  1.00  0.00    -0.075 NA
HETATM   18  C11 UNL     1      25.759   6.395  49.014  1.00  0.00     0.139 A 
HETATM   19  C12 UNL     1      26.963   6.750  48.455  1.00  0.00     0.053 A 
HETATM   20  C13 UNL     1      27.987   5.836  48.369  1.00  0.00     0.089 A 
HETATM   21  N5  UNL     1      27.751   4.610  48.850  1.00  0.00    -0.062 NA
BRANCH  20  22
HETATM   22  C14 UNL     1      29.298   6.114  47.795  1.00  0.00     0.011 A 
HETATM   23  C15 UNL     1      30.302   5.190  47.991  1.00  0.00     0.017 A 
HETATM   24  C16 UNL     1      31.534   5.489  47.430  1.00  0.00     0.020 A 
HETATM   25  C17 UNL     1      31.825   6.631  46.696  1.00  0.00     0.116 A 
HETATM   26  N4  UNL     1      30.797   7.505  46.536  1.00  0.00    -0.272 NA
HETATM   27  C18 UNL     1      29.583   7.249  47.067  1.00  0.00     0.130 A 
ENDBRANCH  20  22
ENDBRANCH   1  16
TORSDOF 6
ENDMDL
MODEL 7
REMARK VINA RESULT:      -7.7      2.406      7.332
REMARK  6 active torsions:
REMARK  status: ('A' for Active; 'I' for Inactive)
REMARK    1  A    between atoms: C5_5  and  N1_6 
REMARK    2  A    between atoms: N1_6  and  C6_7 
REMARK    3  A    between atoms: C6_7  and  O1_9 
REMARK    4  A    between atoms: C9_11  and  N2_12 
REMARK    5  A    between atoms: N2_12  and  C10_13 
REMARK    6  A    between atoms: C13_17  and  C14_18 
ROOT
HETATM    1  N2  UNL     1      26.389   2.852  49.817  1.00  0.00    -0.188 N 
HETATM    2  H13 UNL     1      26.668   2.180  49.042  1.00  0.00     0.184 HD
ENDROOT
BRANCH   1   3
HETATM    3  C9  UNL     1      25.998   4.133  49.367  1.00  0.00     0.057 A 
HETATM    4  C2  UNL     1      24.667   4.397  49.024  1.00  0.00    -0.035 A 
HETATM    5  C1  UNL     1      23.655   3.300  49.139  1.00  0.00     0.050 C 
HETATM    6  C3  UNL     1      24.263   5.636  48.583  1.00  0.00     0.011 A 
HETATM    7  C4  UNL     1      25.146   6.686  48.456  1.00  0.00     0.030 A 
HETATM    8  C5  UNL     1      26.467   6.476  48.783  1.00  0.00     0.032 A 
HETATM    9  C8  UNL     1      26.826   5.224  49.218  1.00  0.00     0.059 A 
BRANCH   8  10
HETATM   10  N1  UNL     1      27.421   7.521  48.668  1.00  0.00    -0.364 N 
HETATM   11  H6  UNL     1      28.191   7.440  47.971  1.00  0.00     0.162 HD
BRANCH  10  12
HETATM   12  C6  UNL     1      27.358   8.702  49.497  1.00  0.00     0.213 C 
HETATM   13  C7  UNL     1      28.654   9.462  49.486  1.00  0.00     0.063 C 
BRANCH  12  14
HETATM   14  O1  UNL     1      26.944   8.433  50.782  1.00  0.00    -0.377 OA
HETATM   15  H11 UNL     1      26.598   7.528  50.911  1.00  0.00     0.212 HD
ENDBRANCH  12  14
ENDBRANCH  10  12
ENDBRANCH   8  10
ENDBRANCH   1   3
BRANCH   1  16
HETATM   16  C10 UNL     1      26.452   2.371  51.151  1.00  0.00     0.727 A 
HETATM   17  N3  UNL     1      27.505   2.433  51.973  1.00  0.00    -0.075 NA
HETATM   18  C11 UNL     1      27.521   1.966  53.227  1.00  0.00     0.139 A 
HETATM   19  C12 UNL     1      26.371   1.381  53.700  1.00  0.00     0.053 A 
HETATM   20  C13 UNL     1      25.256   1.289  52.899  1.00  0.00     0.089 A 
HETATM   21  N5  UNL     1      25.353   1.790  51.661  1.00  0.00    -0.062 NA
BRANCH  20  22
HETATM   22  C14 UNL     1      23.992   0.688  53.306  1.00  0.00     0.011 A 
HETATM   23  C15 UNL     1      24.033  -0.494  54.013  1.00  0.00     0.017 A 
HETATM   24  C16 UNL     1      22.811  -1.034  54.382  1.00  0.00     0.020 A 
HETATM   25  C17 UNL     1      21.570  -0.481  54.097  1.00  0.00     0.116 A 
HETATM   26  N4  UNL     1      21.593   0.684  53.398  1.00  0.00    -0.272 NA
HETATM   27  C18 UNL     1      22.763   1.241  53.020  1.00  0.00     0.130 A 
ENDBRANCH  20  22
ENDBRANCH   1  16
TORSDOF 6
ENDMDL
MODEL 8
REMARK VINA RESULT:      -7.7      2.894      5.616
REMARK  6 active torsions:
REMARK  status: ('A' for Active; 'I' for Inactive)
REMARK    1  A    between atoms: C5_5  and  N1_6 
REMARK    2  A    between atoms: N1_6  and  C6_7 
REMARK    3  A    between atoms: C6_7  and  O1_9 
REMARK    4  A    between atoms: C9_11  and  N2_12 
REMARK    5  A    between atoms: N2_12  and  C10_13 
REMARK    6  A    between atoms: C13_17  and  C14_18 
ROOT
HETATM    1  N2  UNL     1      22.492   3.328  50.922  1.00  0.00    -0.188 N 
HETATM    2  H13 UNL     1      21.988   4.254  50.786  1.00  0.00     0.184 HD
ENDROOT
BRANCH   1   3
HETATM    3  C9  UNL     1      21.661   2.267  51.344  1.00  0.00     0.057 A 
HETATM    4  C2  UNL     1      20.858   1.577  50.428  1.00  0.00    -0.035 A 
HETATM    5  C1  UNL     1      20.888   1.980  48.987  1.00  0.00     0.050 C 
HETATM    6  C3  UNL     1      20.040   0.541  50.816  1.00  0.00     0.011 A 
HETATM    7  C4  UNL     1      19.967   0.123  52.126  1.00  0.00     0.030 A 
HETATM    8  C5  UNL     1      20.740   0.770  53.065  1.00  0.00     0.032 A 
HETATM    9  C8  UNL     1      21.540   1.799  52.634  1.00  0.00     0.059 A 
BRANCH   8  10
HETATM   10  N1  UNL     1      20.702   0.384  54.430  1.00  0.00    -0.364 N 
HETATM   11  H6  UNL     1      20.076   0.891  55.092  1.00  0.00     0.162 HD
BRANCH  10  12
HETATM   12  C6  UNL     1      21.513  -0.698  54.937  1.00  0.00     0.213 C 
HETATM   13  C7  UNL     1      22.850  -0.762  54.253  1.00  0.00     0.063 C 
BRANCH  12  14
HETATM   14  O1  UNL     1      20.870  -1.915  54.895  1.00  0.00    -0.377 OA
HETATM   15  H11 UNL     1      21.470  -2.684  54.845  1.00  0.00     0.212 HD
ENDBRANCH  12  14
ENDBRANCH  10  12
ENDBRANCH   8  10
ENDBRANCH   1   3
BRANCH   1  16
HETATM   16  C10 UNL     1      23.888   3.303  50.666  1.00  0.00     0.727 A 
HETATM   17  N3  UNL     1      24.532   3.950  49.688  1.00  0.00    -0.075 NA
HETATM   18  C11 UNL     1      25.853   3.898  49.483  1.00  0.00     0.139 A 
HETATM   19  C12 UNL     1      26.598   3.124  50.340  1.00  0.00     0.053 A 
HETATM   20  C13 UNL     1      25.989   2.436  51.364  1.00  0.00     0.089 A 
HETATM   21  N5  UNL     1      24.661   2.560  51.476  1.00  0.00    -0.062 NA
BRANCH  20  22
HETATM   22  C14 UNL     1      26.689   1.591  52.324  1.00  0.00     0.011 A 
HETATM   23  C15 UNL     1      26.691   0.229  52.109  1.00  0.00     0.017 A 
HETATM   24  C16 UNL     1      27.366  -0.541  53.043  1.00  0.00     0.020 A 
HETATM   25  C17 UNL     1      28.030  -0.051  54.159  1.00  0.00     0.116 A 
HETATM   26  N4  UNL     1      27.994   1.299  54.318  1.00  0.00    -0.272 NA
HETATM   27  C18 UNL     1      27.346   2.082  53.431  1.00  0.00     0.130 A 
ENDBRANCH  20  22
ENDBRANCH   1  16
TORSDOF 6
ENDMDL
MODEL 9
REMARK VINA RESULT:      -7.6      3.975      7.141
REMARK  6 active torsions:
REMARK  status: ('A' for Active; 'I' for Inactive)
REMARK    1  A    between atoms: C5_5  and  N1_6 
REMARK    2  A    between atoms: N1_6  and  C6_7 
REMARK    3  A    between atoms: C6_7  and  O1_9 
REMARK    4  A    between atoms: C9_11  and  N2_12 
REMARK    5  A    between atoms: N2_12  and  C10_13 
REMARK    6  A    between atoms: C13_17  and  C14_18 
ROOT
HETATM    1  N2  UNL     1      22.701   0.613  53.494  1.00  0.00    -0.188 N 
HETATM    2  H13 UNL     1      22.754   0.414  54.537  1.00  0.00     0.184 HD
ENDROOT
BRANCH   1   3
HETATM    3  C9  UNL     1      21.404   0.505  52.944  1.00  0.00     0.057 A 
HETATM    4  C2  UNL     1      20.531  -0.508  53.360  1.00  0.00    -0.035 A 
HETATM    5  C1  UNL     1      20.990  -1.481  54.400  1.00  0.00     0.050 C 
HETATM    6  C3  UNL     1      19.264  -0.633  52.838  1.00  0.00     0.011 A 
HETATM    7  C4  UNL     1      18.784   0.231  51.879  1.00  0.00     0.030 A 
HETATM    8  C5  UNL     1      19.605   1.245  51.438  1.00  0.00     0.032 A 
HETATM    9  C8  UNL     1      20.862   1.332  51.985  1.00  0.00     0.059 A 
BRANCH   8  10
HETATM   10  N1  UNL     1      19.164   2.162  50.449  1.00  0.00    -0.364 N 
HETATM   11  H6  UNL     1      19.130   1.865  49.450  1.00  0.00     0.162 HD
BRANCH  10  12
HETATM   12  C6  UNL     1      18.758   3.506  50.786  1.00  0.00     0.213 C 
HETATM   13  C7  UNL     1      19.816   4.514  50.435  1.00  0.00     0.063 C 
BRANCH  12  14
HETATM   14  O1  UNL     1      18.360   3.632  52.098  1.00  0.00    -0.377 OA
HETATM   15  H11 UNL     1      19.097   3.737  52.732  1.00  0.00     0.212 HD
ENDBRANCH  12  14
ENDBRANCH  10  12
ENDBRANCH   8  10
ENDBRANCH   1   3
BRANCH   1  16
HETATM   16  C10 UNL     1      23.911   0.947  52.833  1.00  0.00     0.727 A 
HETATM   17  N3  UNL     1      24.121   2.000  52.036  1.00  0.00    -0.075 NA
HETATM   18  C11 UNL     1      25.282   2.279  51.431  1.00  0.00     0.139 A 
HETATM   19  C12 UNL     1      26.331   1.419  51.649  1.00  0.00     0.053 A 
HETATM   20  C13 UNL     1      26.174   0.319  52.460  1.00  0.00     0.089 A 
HETATM   21  N5  UNL     1      24.969   0.138  53.013  1.00  0.00    -0.062 NA
BRANCH  20  22
HETATM   22  C14 UNL     1      27.223  -0.650  52.752  1.00  0.00     0.011 A 
HETATM   23  C15 UNL     1      28.421  -0.181  53.247  1.00  0.00     0.017 A 
HETATM   24  C16 UNL     1      29.393  -1.133  53.513  1.00  0.00     0.020 A 
HETATM   25  C17 UNL     1      29.251  -2.501  53.321  1.00  0.00     0.116 A 
HETATM   26  N4  UNL     1      28.049  -2.904  52.832  1.00  0.00    -0.272 NA
HETATM   27  C18 UNL     1      27.077  -2.007  52.560  1.00  0.00     0.130 A 
ENDBRANCH  20  22
ENDBRANCH   1  16
TORSDOF 6
ENDMDL
