MODEL 1
REMARK VINA RESULT:      -7.8      0.000      0.000
REMARK  7 active torsions:
REMARK  status: ('A' for Active; 'I' for Inactive)
REMARK    1  A    between atoms: O1_2  and  C2_3 
REMARK    2  A    between atoms: C7_10  and  C8_11 
REMARK    3  A    between atoms: C8_11  and  C9_13 
REMARK    4  A    between atoms: C11_16  and  N2_17 
REMARK    5  A    between atoms: N2_17  and  C12_18 
REMARK    6  A    between atoms: N3_21  and  S1_22 
REMARK    7  A    between atoms: C18_29  and  N5_30 
ROOT
HETATM    1  C9  UNL     1      27.745   6.687  48.320  1.00  0.00     0.079 A 
HETATM    2  C10 UNL     1      26.475   6.621  48.819  1.00  0.00     0.155 A 
HETATM    3  N1  UNL     1      25.872   5.528  49.309  1.00  0.00    -0.074 NA
HETATM    4  C11 UNL     1      26.563   4.377  49.317  1.00  0.00     0.724 A 
HETATM    5  N4  UNL     1      27.816   4.371  48.840  1.00  0.00    -0.045 NA
HETATM    6  C18 UNL     1      28.416   5.494  48.345  1.00  0.00     0.156 A 
ENDROOT
BRANCH   1   7
HETATM    7  C8  UNL     1      28.384   7.846  47.759  1.00  0.00     0.203 C 
HETATM    8  O2  UNL     1      28.491   7.716  46.490  1.00  0.00    -0.286 OA
BRANCH   7   9
HETATM    9  C7  UNL     1      28.929   9.094  48.215  1.00  0.00     0.090 A 
HETATM   10  C2  UNL     1      30.263   9.096  48.646  1.00  0.00     0.085 A 
HETATM   11  C3  UNL     1      30.827  10.263  49.126  1.00  0.00     0.041 A 
HETATM   12  C4  UNL     1      30.119  11.431  49.194  1.00  0.00     0.048 A 
HETATM   13  C5  UNL     1      28.815  11.460  48.781  1.00  0.00     0.156 A 
HETATM   14  F1  UNL     1      28.124  12.638  48.857  1.00  0.00    -0.203 F 
HETATM   15  C6  UNL     1      28.263  10.297  48.307  1.00  0.00     0.171 A 
HETATM   16  F2  UNL     1      26.964  10.416  47.966  1.00  0.00    -0.202 F 
BRANCH  10  17
HETATM   17  O1  UNL     1      31.020   7.951  48.599  1.00  0.00    -0.355 OA
HETATM   18  C1  UNL     1      31.995   7.545  49.503  1.00  0.00     0.210 C 
ENDBRANCH  10  17
ENDBRANCH   7   9
ENDBRANCH   1   7
BRANCH   6  19
HETATM   19  N5  UNL     1      29.735   5.293  47.894  1.00  0.00    -0.383 N 
HETATM   20  H20 UNL     1      30.522   4.582  47.946  1.00  0.00     0.157 HD
HETATM   21  H21 UNL     1      29.995   6.146  47.318  1.00  0.00     0.157 HD
ENDBRANCH   6  19
BRANCH   4  22
HETATM   22  N2  UNL     1      26.005   3.177  49.817  1.00  0.00    -0.218 N 
HETATM   23  H7  UNL     1      25.713   2.448  49.103  1.00  0.00     0.178 HD
BRANCH  22  24
HETATM   24  C12 UNL     1      25.837   2.950  51.243  1.00  0.00     0.102 C 
HETATM   25  C13 UNL     1      27.088   2.496  51.928  1.00  0.00     0.046 C 
HETATM   26  C14 UNL     1      26.880   1.665  53.145  1.00  0.00     0.137 C 
HETATM   27  N3  UNL     1      25.591   1.201  53.432  1.00  0.00    -0.311 N 
HETATM   28  C16 UNL     1      24.472   1.877  52.905  1.00  0.00     0.137 C 
HETATM   29  C17 UNL     1      24.669   2.012  51.411  1.00  0.00     0.046 C 
BRANCH  27  30
HETATM   30  S1  UNL     1      25.465  -0.463  53.687  1.00  0.00     0.224 S 
HETATM   31  C15 UNL     1      26.520  -1.481  52.735  1.00  0.00     0.186 C 
HETATM   32  O3  UNL     1      24.018  -0.852  53.447  1.00  0.00    -0.206 OA
HETATM   33  O4  UNL     1      25.776  -0.746  55.149  1.00  0.00    -0.206 OA
ENDBRANCH  27  30
ENDBRANCH  22  24
ENDBRANCH   4  22
TORSDOF 7
ENDMDL
MODEL 2
REMARK VINA RESULT:      -7.6      3.548      4.553
REMARK  7 active torsions:
REMARK  status: ('A' for Active; 'I' for Inactive)
REMARK    1  A    between atoms: O1_2  and  C2_3 
REMARK    2  A    between atoms: C7_10  and  C8_11 
REMARK    3  A    between atoms: C8_11  and  C9_13 
REMARK    4  A    between atoms: C11_16  and  N2_17 
REMARK    5  A    between atoms: N2_17  and  C12_18 
REMARK    6  A    between atoms: N3_21  and  S1_22 
REMARK    7  A    between atoms: C18_29  and  N5_30 
ROOT
HETATM    1  C9  UNL     1      23.629   5.862  49.901  1.00  0.00     0.079 A 
HETATM    2  C10 UNL     1      23.214   4.639  49.454  1.00  0.00     0.155 A 
HETATM    3  N1  UNL     1      23.131   3.516  50.181  1.00  0.00    -0.074 NA
HETATM    4  C11 UNL     1      23.485   3.575  51.474  1.00  0.00     0.724 A 
HETATM    5  N4  UNL     1      23.903   4.746  51.979  1.00  0.00    -0.045 NA
HETATM    6  C18 UNL     1      23.981   5.881  51.223  1.00  0.00     0.156 A 
ENDROOT
BRANCH   1   7
HETATM    7  C8  UNL     1      23.756   7.061  49.117  1.00  0.00     0.203 C 
HETATM    8  O2  UNL     1      22.928   7.945  49.533  1.00  0.00    -0.286 OA
BRANCH   7   9
HETATM    9  C7  UNL     1      24.541   7.541  48.015  1.00  0.00     0.090 A 
HETATM   10  C2  UNL     1      25.824   8.028  48.302  1.00  0.00     0.085 A 
HETATM   11  C3  UNL     1      26.610   8.533  47.283  1.00  0.00     0.041 A 
HETATM   12  C4  UNL     1      26.171   8.575  45.988  1.00  0.00     0.048 A 
HETATM   13  C5  UNL     1      24.923   8.107  45.678  1.00  0.00     0.156 A 
HETATM   14  F1  UNL     1      24.504   8.157  44.377  1.00  0.00    -0.203 F 
HETATM   15  C6  UNL     1      24.151   7.608  46.695  1.00  0.00     0.171 A 
HETATM   16  F2  UNL     1      22.924   7.213  46.298  1.00  0.00    -0.202 F 
BRANCH  10  17
HETATM   17  O1  UNL     1      26.314   8.009  49.585  1.00  0.00    -0.355 OA
HETATM   18  C1  UNL     1      27.068   8.993  50.216  1.00  0.00     0.210 C 
ENDBRANCH  10  17
ENDBRANCH   7   9
ENDBRANCH   1   7
BRANCH   6  19
HETATM   19  N5  UNL     1      24.438   7.013  51.927  1.00  0.00    -0.383 N 
HETATM   20  H20 UNL     1      24.473   8.071  51.848  1.00  0.00     0.157 HD
HETATM   21  H21 UNL     1      24.885   6.657  52.822  1.00  0.00     0.157 HD
ENDBRANCH   6  19
BRANCH   4  22
HETATM   22  N2  UNL     1      23.427   2.439  52.315  1.00  0.00    -0.218 N 
HETATM   23  H7  UNL     1      22.735   2.470  53.119  1.00  0.00     0.178 HD
BRANCH  22  24
HETATM   24  C12 UNL     1      24.275   1.280  52.091  1.00  0.00     0.102 C 
HETATM   25  C13 UNL     1      24.098   0.202  53.115  1.00  0.00     0.046 C 
HETATM   26  C14 UNL     1      25.290  -0.660  53.342  1.00  0.00     0.137 C 
HETATM   27  N3  UNL     1      26.510  -0.287  52.768  1.00  0.00    -0.311 N 
HETATM   28  C16 UNL     1      26.523   0.558  51.640  1.00  0.00     0.137 C 
HETATM   29  C17 UNL     1      25.691   1.780  51.963  1.00  0.00     0.046 C 
BRANCH  27  30
HETATM   30  S1  UNL     1      27.813  -0.200  53.839  1.00  0.00     0.224 S 
HETATM   31  C15 UNL     1      28.863   1.189  53.678  1.00  0.00     0.186 C 
HETATM   32  O3  UNL     1      28.618  -1.477  53.683  1.00  0.00    -0.206 OA
HETATM   33  O4  UNL     1      27.264  -0.179  55.257  1.00  0.00    -0.206 OA
ENDBRANCH  27  30
ENDBRANCH  22  24
ENDBRANCH   4  22
TORSDOF 7
ENDMDL
MODEL 3
REMARK VINA RESULT:      -7.6      2.301      3.171
REMARK  7 active torsions:
REMARK  status: ('A' for Active; 'I' for Inactive)
REMARK    1  A    between atoms: O1_2  and  C2_3 
REMARK    2  A    between atoms: C7_10  and  C8_11 
REMARK    3  A    between atoms: C8_11  and  C9_13 
REMARK    4  A    between atoms: C11_16  and  N2_17 
REMARK    5  A    between atoms: N2_17  and  C12_18 
REMARK    6  A    between atoms: N3_21  and  S1_22 
REMARK    7  A    between atoms: C18_29  and  N5_30 
ROOT
HETATM    1  C9  UNL     1      27.313   6.090  48.743  1.00  0.00     0.079 A 
HETATM    2  C10 UNL     1      27.397   4.727  48.715  1.00  0.00     0.155 A 
HETATM    3  N1  UNL     1      26.569   3.869  49.328  1.00  0.00    -0.074 NA
HETATM    4  C11 UNL     1      25.553   4.377  50.045  1.00  0.00     0.724 A 
HETATM    5  N4  UNL     1      25.413   5.708  50.115  1.00  0.00    -0.045 NA
HETATM    6  C18 UNL     1      26.266   6.568  49.483  1.00  0.00     0.156 A 
ENDROOT
BRANCH   1   7
HETATM    7  C8  UNL     1      28.219   7.015  48.119  1.00  0.00     0.203 C 
HETATM    8  O2  UNL     1      27.651   7.577  47.119  1.00  0.00    -0.286 OA
BRANCH   7   9
HETATM    9  C7  UNL     1      29.565   7.483  48.300  1.00  0.00     0.090 A 
HETATM   10  C2  UNL     1      29.739   8.707  48.961  1.00  0.00     0.085 A 
HETATM   11  C3  UNL     1      31.011   9.220  49.133  1.00  0.00     0.041 A 
HETATM   12  C4  UNL     1      32.120   8.564  48.674  1.00  0.00     0.048 A 
HETATM   13  C5  UNL     1      31.982   7.368  48.024  1.00  0.00     0.156 A 
HETATM   14  F1  UNL     1      33.103   6.729  47.573  1.00  0.00    -0.203 F 
HETATM   15  C6  UNL     1      30.716   6.868  47.858  1.00  0.00     0.171 A 
HETATM   16  F2  UNL     1      30.679   5.708  47.170  1.00  0.00    -0.202 F 
BRANCH  10  17
HETATM   17  O1  UNL     1      28.659   9.406  49.443  1.00  0.00    -0.355 OA
HETATM   18  C1  UNL     1      28.250  10.685  49.079  1.00  0.00     0.210 C 
ENDBRANCH  10  17
ENDBRANCH   7   9
ENDBRANCH   1   7
BRANCH   6  19
HETATM   19  N5  UNL     1      25.956   7.930  49.669  1.00  0.00    -0.383 N 
HETATM   20  H20 UNL     1      25.915   8.844  49.131  1.00  0.00     0.157 HD
HETATM   21  H21 UNL     1      25.676   8.044  50.687  1.00  0.00     0.157 HD
ENDBRANCH   6  19
BRANCH   4  22
HETATM   22  N2  UNL     1      24.631   3.545  50.722  1.00  0.00    -0.218 N 
HETATM   23  H7  UNL     1      23.701   3.978  50.992  1.00  0.00     0.178 HD
BRANCH  22  24
HETATM   24  C12 UNL     1      24.941   2.160  51.036  1.00  0.00     0.102 C 
HETATM   25  C13 UNL     1      23.969   1.529  51.984  1.00  0.00     0.046 C 
HETATM   26  C14 UNL     1      24.520   0.427  52.819  1.00  0.00     0.137 C 
HETATM   27  N3  UNL     1      25.902   0.208  52.818  1.00  0.00    -0.311 N 
HETATM   28  C16 UNL     1      26.679   0.652  51.730  1.00  0.00     0.137 C 
HETATM   29  C17 UNL     1      26.372   2.117  51.504  1.00  0.00     0.046 C 
BRANCH  27  30
HETATM   30  S1  UNL     1      26.625   0.164  54.344  1.00  0.00     0.224 S 
HETATM   31  C15 UNL     1      28.341  -0.168  54.384  1.00  0.00     0.186 C 
HETATM   32  O3  UNL     1      25.879  -0.867  55.172  1.00  0.00    -0.206 OA
HETATM   33  O4  UNL     1      26.419   1.516  55.008  1.00  0.00    -0.206 OA
ENDBRANCH  27  30
ENDBRANCH  22  24
ENDBRANCH   4  22
TORSDOF 7
ENDMDL
MODEL 4
REMARK VINA RESULT:      -7.5      3.301      4.232
REMARK  7 active torsions:
REMARK  status: ('A' for Active; 'I' for Inactive)
REMARK    1  A    between atoms: O1_2  and  C2_3 
REMARK    2  A    between atoms: C7_10  and  C8_11 
REMARK    3  A    between atoms: C8_11  and  C9_13 
REMARK    4  A    between atoms: C11_16  and  N2_17 
REMARK    5  A    between atoms: N2_17  and  C12_18 
REMARK    6  A    between atoms: N3_21  and  S1_22 
REMARK    7  A    between atoms: C18_29  and  N5_30 
ROOT
HETATM    1  C9  UNL     1      27.568   5.964  48.674  1.00  0.00     0.079 A 
HETATM    2  C10 UNL     1      27.240   4.643  48.801  1.00  0.00     0.155 A 
HETATM    3  N1  UNL     1      26.144   4.153  49.397  1.00  0.00    -0.074 NA
HETATM    4  C11 UNL     1      25.272   5.025  49.927  1.00  0.00     0.724 A 
HETATM    5  N4  UNL     1      25.533   6.337  49.838  1.00  0.00    -0.045 NA
HETATM    6  C18 UNL     1      26.655   6.819  49.227  1.00  0.00     0.156 A 
ENDROOT
BRANCH   1   7
HETATM    7  C8  UNL     1      28.760   6.494  48.070  1.00  0.00     0.203 C 
HETATM    8  O2  UNL     1      28.464   7.114  46.989  1.00  0.00    -0.286 OA
BRANCH   7   9
HETATM    9  C7  UNL     1      30.171   6.527  48.334  1.00  0.00     0.090 A 
HETATM   10  C2  UNL     1      30.688   7.683  48.935  1.00  0.00     0.085 A 
HETATM   11  C3  UNL     1      32.044   7.780  49.182  1.00  0.00     0.041 A 
HETATM   12  C4  UNL     1      32.910   6.774  48.854  1.00  0.00     0.048 A 
HETATM   13  C5  UNL     1      32.436   5.634  48.266  1.00  0.00     0.156 A 
HETATM   14  F1  UNL     1      33.318   4.639  47.946  1.00  0.00    -0.203 F 
HETATM   15  C6  UNL     1      31.089   5.546  48.024  1.00  0.00     0.171 A 
HETATM   16  F2  UNL     1      30.724   4.406  47.403  1.00  0.00    -0.202 F 
BRANCH  10  17
HETATM   17  O1  UNL     1      29.862   8.723  49.285  1.00  0.00    -0.355 OA
HETATM   18  C1  UNL     1      29.935  10.043  48.850  1.00  0.00     0.210 C 
ENDBRANCH  10  17
ENDBRANCH   7   9
ENDBRANCH   1   7
BRANCH   6  19
HETATM   19  N5  UNL     1      26.755   8.225  49.229  1.00  0.00    -0.383 N 
HETATM   20  H20 UNL     1      27.397   9.004  48.899  1.00  0.00     0.157 HD
HETATM   21  H21 UNL     1      25.892   8.592  49.727  1.00  0.00     0.157 HD
ENDBRANCH   6  19
BRANCH   4  22
HETATM   22  N2  UNL     1      24.088   4.595  50.572  1.00  0.00    -0.218 N 
HETATM   23  H7  UNL     1      23.362   5.336  50.788  1.00  0.00     0.178 HD
BRANCH  22  24
HETATM   24  C12 UNL     1      23.875   3.200  50.924  1.00  0.00     0.102 C 
HETATM   25  C13 UNL     1      22.919   2.493  50.016  1.00  0.00     0.046 C 
HETATM   26  C14 UNL     1      22.181   1.356  50.631  1.00  0.00     0.137 C 
HETATM   27  N3  UNL     1      22.265   1.169  52.015  1.00  0.00    -0.311 N 
HETATM   28  C16 UNL     1      23.362   1.694  52.726  1.00  0.00     0.137 C 
HETATM   29  C17 UNL     1      23.484   3.162  52.379  1.00  0.00     0.046 C 
BRANCH  27  30
HETATM   30  S1  UNL     1      20.783   1.050  52.817  1.00  0.00     0.224 S 
HETATM   31  C15 UNL     1      20.820   0.364  54.424  1.00  0.00     0.186 C 
HETATM   32  O3  UNL     1      19.849   0.245  51.932  1.00  0.00    -0.206 OA
HETATM   33  O4  UNL     1      20.197   2.448  52.944  1.00  0.00    -0.206 OA
ENDBRANCH  27  30
ENDBRANCH  22  24
ENDBRANCH   4  22
TORSDOF 7
ENDMDL
MODEL 5
REMARK VINA RESULT:      -7.5      4.417      9.528
REMARK  7 active torsions:
REMARK  status: ('A' for Active; 'I' for Inactive)
REMARK    1  A    between atoms: O1_2  and  C2_3 
REMARK    2  A    between atoms: C7_10  and  C8_11 
REMARK    3  A    between atoms: C8_11  and  C9_13 
REMARK    4  A    between atoms: C11_16  and  N2_17 
REMARK    5  A    between atoms: N2_17  and  C12_18 
REMARK    6  A    between atoms: N3_21  and  S1_22 
REMARK    7  A    between atoms: C18_29  and  N5_30 
ROOT
HETATM    1  C9  UNL     1      26.121   2.523  51.927  1.00  0.00     0.079 A 
HETATM    2  C10 UNL     1      26.763   3.010  50.824  1.00  0.00     0.155 A 
HETATM    3  N1  UNL     1      26.216   3.757  49.854  1.00  0.00    -0.074 NA
HETATM    4  C11 UNL     1      24.913   4.066  49.956  1.00  0.00     0.724 A 
HETATM    5  N4  UNL     1      24.223   3.619  51.015  1.00  0.00    -0.045 NA
HETATM    6  C18 UNL     1      24.797   2.859  51.994  1.00  0.00     0.156 A 
ENDROOT
BRANCH   1   7
HETATM    7  C8  UNL     1      26.693   1.691  52.951  1.00  0.00     0.203 C 
HETATM    8  O2  UNL     1      26.538   2.239  54.098  1.00  0.00    -0.286 OA
BRANCH   7   9
HETATM    9  C7  UNL     1      27.378   0.433  53.049  1.00  0.00     0.090 A 
HETATM   10  C2  UNL     1      26.622  -0.731  52.854  1.00  0.00     0.085 A 
HETATM   11  C3  UNL     1      27.224  -1.969  52.970  1.00  0.00     0.041 A 
HETATM   12  C4  UNL     1      28.552  -2.099  53.274  1.00  0.00     0.048 A 
HETATM   13  C5  UNL     1      29.316  -0.981  53.470  1.00  0.00     0.156 A 
HETATM   14  F1  UNL     1      30.641  -1.132  53.772  1.00  0.00    -0.203 F 
HETATM   15  C6  UNL     1      28.709   0.243  53.354  1.00  0.00     0.171 A 
HETATM   16  F2  UNL     1      29.532   1.280  53.608  1.00  0.00    -0.202 F 
BRANCH  10  17
HETATM   17  O1  UNL     1      25.284  -0.658  52.547  1.00  0.00    -0.355 OA
HETATM   18  C1  UNL     1      24.209  -0.819  53.414  1.00  0.00     0.210 C 
ENDBRANCH  10  17
ENDBRANCH   7   9
ENDBRANCH   1   7
BRANCH   6  19
HETATM   19  N5  UNL     1      23.914   2.487  53.028  1.00  0.00    -0.383 N 
HETATM   20  H20 UNL     1      23.923   2.163  54.039  1.00  0.00     0.157 HD
HETATM   21  H21 UNL     1      22.931   2.569  52.635  1.00  0.00     0.157 HD
ENDBRANCH   6  19
BRANCH   4  22
HETATM   22  N2  UNL     1      24.256   4.850  48.979  1.00  0.00    -0.218 N 
HETATM   23  H7  UNL     1      23.924   4.351  48.104  1.00  0.00     0.178 HD
BRANCH  22  24
HETATM   24  C12 UNL     1      24.042   6.276  49.164  1.00  0.00     0.102 C 
HETATM   25  C13 UNL     1      24.087   7.058  47.889  1.00  0.00     0.046 C 
HETATM   26  C14 UNL     1      24.512   8.478  48.029  1.00  0.00     0.137 C 
HETATM   27  N3  UNL     1      25.027   8.909  49.256  1.00  0.00    -0.311 N 
HETATM   28  C16 UNL     1      24.706   8.206  50.435  1.00  0.00     0.137 C 
HETATM   29  C17 UNL     1      25.024   6.743  50.207  1.00  0.00     0.046 C 
BRANCH  27  30
HETATM   30  S1  UNL     1      26.527   9.680  49.177  1.00  0.00     0.224 S 
HETATM   31  C15 UNL     1      27.657   9.068  47.991  1.00  0.00     0.186 C 
HETATM   32  O3  UNL     1      27.146   9.616  50.561  1.00  0.00    -0.206 OA
HETATM   33  O4  UNL     1      26.292  11.147  48.851  1.00  0.00    -0.206 OA
ENDBRANCH  27  30
ENDBRANCH  22  24
ENDBRANCH   4  22
TORSDOF 7
ENDMDL
MODEL 6
REMARK VINA RESULT:      -7.4      4.965      9.989
REMARK  7 active torsions:
REMARK  status: ('A' for Active; 'I' for Inactive)
REMARK    1  A    between atoms: O1_2  and  C2_3 
REMARK    2  A    between atoms: C7_10  and  C8_11 
REMARK    3  A    between atoms: C8_11  and  C9_13 
REMARK    4  A    between atoms: C11_16  and  N2_17 
REMARK    5  A    between atoms: N2_17  and  C12_18 
REMARK    6  A    between atoms: N3_21  and  S1_22 
REMARK    7  A    between atoms: C18_29  and  N5_30 
ROOT
HETATM    1  C9  UNL     1      24.108   4.365  50.762  1.00  0.00     0.079 A 
HETATM    2  C10 UNL     1      23.438   5.401  51.350  1.00  0.00     0.155 A 
HETATM    3  N1  UNL     1      23.800   6.691  51.330  1.00  0.00    -0.074 NA
HETATM    4  C11 UNL     1      24.927   7.019  50.678  1.00  0.00     0.724 A 
HETATM    5  N4  UNL     1      25.634   6.050  50.079  1.00  0.00    -0.045 NA
HETATM    6  C18 UNL     1      25.250   4.740  50.109  1.00  0.00     0.156 A 
ENDROOT
BRANCH   1   7
HETATM    7  C8  UNL     1      23.745   2.975  50.812  1.00  0.00     0.203 C 
HETATM    8  O2  UNL     1      23.436   2.561  49.640  1.00  0.00    -0.286 OA
BRANCH   7   9
HETATM    9  C7  UNL     1      23.634   1.931  51.792  1.00  0.00     0.090 A 
HETATM   10  C2  UNL     1      24.806   1.244  52.138  1.00  0.00     0.085 A 
HETATM   11  C3  UNL     1      24.750   0.209  53.051  1.00  0.00     0.041 A 
HETATM   12  C4  UNL     1      23.575  -0.174  53.636  1.00  0.00     0.048 A 
HETATM   13  C5  UNL     1      22.414   0.477  53.318  1.00  0.00     0.156 A 
HETATM   14  F1  UNL     1      21.250   0.080  53.915  1.00  0.00    -0.203 F 
HETATM   15  C6  UNL     1      22.479   1.503  52.410  1.00  0.00     0.171 A 
HETATM   16  F2  UNL     1      21.280   2.052  52.129  1.00  0.00    -0.202 F 
BRANCH  10  17
HETATM   17  O1  UNL     1      26.013   1.588  51.580  1.00  0.00    -0.355 OA
HETATM   18  C1  UNL     1      27.191   1.909  52.247  1.00  0.00     0.210 C 
ENDBRANCH  10  17
ENDBRANCH   7   9
ENDBRANCH   1   7
BRANCH   6  19
HETATM   19  N5  UNL     1      26.117   3.868  49.421  1.00  0.00    -0.383 N 
HETATM   20  H20 UNL     1      26.735   3.022  49.590  1.00  0.00     0.157 HD
HETATM   21  H21 UNL     1      26.134   4.189  48.409  1.00  0.00     0.157 HD
ENDBRANCH   6  19
BRANCH   4  22
HETATM   22  N2  UNL     1      25.382   8.357  50.605  1.00  0.00    -0.218 N 
HETATM   23  H7  UNL     1      25.030   9.027  51.348  1.00  0.00     0.178 HD
BRANCH  22  24
HETATM   24  C12 UNL     1      26.293   8.797  49.560  1.00  0.00     0.102 C 
HETATM   25  C13 UNL     1      27.608   9.286  50.080  1.00  0.00     0.046 C 
HETATM   26  C14 UNL     1      28.293  10.294  49.226  1.00  0.00     0.137 C 
HETATM   27  N3  UNL     1      27.593  10.854  48.151  1.00  0.00    -0.311 N 
HETATM   28  C16 UNL     1      26.500  10.162  47.593  1.00  0.00     0.137 C 
HETATM   29  C17 UNL     1      25.552   9.802  48.717  1.00  0.00     0.046 C 
BRANCH  27  30
HETATM   30  S1  UNL     1      27.568  12.543  48.109  1.00  0.00     0.224 S 
HETATM   31  C15 UNL     1      25.999  13.296  47.953  1.00  0.00     0.186 C 
HETATM   32  O3  UNL     1      28.469  12.983  46.970  1.00  0.00    -0.206 OA
HETATM   33  O4  UNL     1      28.182  13.060  49.401  1.00  0.00    -0.206 OA
ENDBRANCH  27  30
ENDBRANCH  22  24
ENDBRANCH   4  22
TORSDOF 7
ENDMDL
MODEL 7
REMARK VINA RESULT:      -7.4      4.743     10.089
REMARK  7 active torsions:
REMARK  status: ('A' for Active; 'I' for Inactive)
REMARK    1  A    between atoms: O1_2  and  C2_3 
REMARK    2  A    between atoms: C7_10  and  C8_11 
REMARK    3  A    between atoms: C8_11  and  C9_13 
REMARK    4  A    between atoms: C11_16  and  N2_17 
REMARK    5  A    between atoms: N2_17  and  C12_18 
REMARK    6  A    between atoms: N3_21  and  S1_22 
REMARK    7  A    between atoms: C18_29  and  N5_30 
ROOT
HETATM    1  C9  UNL     1      24.387   4.093  50.920  1.00  0.00     0.079 A 
HETATM    2  C10 UNL     1      23.711   5.070  51.597  1.00  0.00     0.155 A 
HETATM    3  N1  UNL     1      23.958   6.386  51.544  1.00  0.00    -0.074 NA
HETATM    4  C11 UNL     1      24.962   6.808  50.758  1.00  0.00     0.724 A 
HETATM    5  N4  UNL     1      25.667   5.901  50.066  1.00  0.00    -0.045 NA
HETATM    6  C18 UNL     1      25.401   4.563  50.132  1.00  0.00     0.156 A 
ENDROOT
BRANCH   1   7
HETATM    7  C8  UNL     1      24.151   2.677  51.002  1.00  0.00     0.203 C 
HETATM    8  O2  UNL     1      23.425   2.297  50.018  1.00  0.00    -0.286 OA
BRANCH   7   9
HETATM    9  C7  UNL     1      24.498   1.582  51.864  1.00  0.00     0.090 A 
HETATM   10  C2  UNL     1      23.505   1.105  52.731  1.00  0.00     0.085 A 
HETATM   11  C3  UNL     1      23.794   0.075  53.605  1.00  0.00     0.041 A 
HETATM   12  C4  UNL     1      25.033  -0.503  53.653  1.00  0.00     0.048 A 
HETATM   13  C5  UNL     1      26.023  -0.059  52.819  1.00  0.00     0.156 A 
HETATM   14  F1  UNL     1      27.254  -0.650  52.883  1.00  0.00    -0.203 F 
HETATM   15  C6  UNL     1      25.726   0.965  51.956  1.00  0.00     0.171 A 
HETATM   16  F2  UNL     1      26.776   1.361  51.208  1.00  0.00    -0.202 F 
BRANCH  10  17
HETATM   17  O1  UNL     1      22.243   1.650  52.724  1.00  0.00    -0.355 OA
HETATM   18  C1  UNL     1      21.040   0.996  52.966  1.00  0.00     0.210 C 
ENDBRANCH  10  17
ENDBRANCH   7   9
ENDBRANCH   1   7
BRANCH   6  19
HETATM   19  N5  UNL     1      26.246   3.767  49.332  1.00  0.00    -0.383 N 
HETATM   20  H20 UNL     1      26.639   2.782  49.280  1.00  0.00     0.157 HD
HETATM   21  H21 UNL     1      26.577   4.381  48.532  1.00  0.00     0.157 HD
ENDBRANCH   6  19
BRANCH   4  22
HETATM   22  N2  UNL     1      25.290   8.179  50.641  1.00  0.00    -0.218 N 
HETATM   23  H7  UNL     1      24.840   8.843  51.335  1.00  0.00     0.178 HD
BRANCH  22  24
HETATM   24  C12 UNL     1      26.203   8.660  49.616  1.00  0.00     0.102 C 
HETATM   25  C13 UNL     1      27.494   9.184  50.163  1.00  0.00     0.046 C 
HETATM   26  C14 UNL     1      28.161  10.223  49.332  1.00  0.00     0.137 C 
HETATM   27  N3  UNL     1      27.461  10.774  48.254  1.00  0.00    -0.311 N 
HETATM   28  C16 UNL     1      26.398  10.056  47.670  1.00  0.00     0.137 C 
HETATM   29  C17 UNL     1      25.444   9.652  48.773  1.00  0.00     0.046 C 
BRANCH  27  30
HETATM   30  S1  UNL     1      27.384  12.461  48.231  1.00  0.00     0.224 S 
HETATM   31  C15 UNL     1      27.783  13.240  46.718  1.00  0.00     0.186 C 
HETATM   32  O3  UNL     1      28.294  12.974  49.332  1.00  0.00    -0.206 OA
HETATM   33  O4  UNL     1      25.964  12.878  48.583  1.00  0.00    -0.206 OA
ENDBRANCH  27  30
ENDBRANCH  22  24
ENDBRANCH   4  22
TORSDOF 7
ENDMDL
MODEL 8
REMARK VINA RESULT:      -7.4      4.809     10.322
REMARK  7 active torsions:
REMARK  status: ('A' for Active; 'I' for Inactive)
REMARK    1  A    between atoms: O1_2  and  C2_3 
REMARK    2  A    between atoms: C7_10  and  C8_11 
REMARK    3  A    between atoms: C8_11  and  C9_13 
REMARK    4  A    between atoms: C11_16  and  N2_17 
REMARK    5  A    between atoms: N2_17  and  C12_18 
REMARK    6  A    between atoms: N3_21  and  S1_22 
REMARK    7  A    between atoms: C18_29  and  N5_30 
ROOT
HETATM    1  C9  UNL     1      23.645   2.647  51.085  1.00  0.00     0.079 A 
HETATM    2  C10 UNL     1      25.009   2.640  51.006  1.00  0.00     0.155 A 
HETATM    3  N1  UNL     1      25.790   3.681  50.685  1.00  0.00    -0.074 NA
HETATM    4  C11 UNL     1      25.196   4.853  50.410  1.00  0.00     0.724 A 
HETATM    5  N4  UNL     1      23.858   4.930  50.468  1.00  0.00    -0.045 NA
HETATM    6  C18 UNL     1      23.078   3.858  50.797  1.00  0.00     0.156 A 
ENDROOT
BRANCH   1   7
HETATM    7  C8  UNL     1      22.801   1.525  51.391  1.00  0.00     0.203 C 
HETATM    8  O2  UNL     1      22.312   1.038  50.312  1.00  0.00    -0.286 OA
BRANCH   7   9
HETATM    9  C7  UNL     1      22.357   0.803  52.550  1.00  0.00     0.090 A 
HETATM   10  C2  UNL     1      21.067   1.076  53.025  1.00  0.00     0.085 A 
HETATM   11  C3  UNL     1      20.602   0.433  54.157  1.00  0.00     0.041 A 
HETATM   12  C4  UNL     1      21.368  -0.471  54.839  1.00  0.00     0.048 A 
HETATM   13  C5  UNL     1      22.632  -0.757  54.400  1.00  0.00     0.156 A 
HETATM   14  F1  UNL     1      23.382  -1.664  55.095  1.00  0.00    -0.203 F 
HETATM   15  C6  UNL     1      23.085  -0.115  53.276  1.00  0.00     0.171 A 
HETATM   16  F2  UNL     1      24.355  -0.430  52.949  1.00  0.00    -0.202 F 
BRANCH  10  17
HETATM   17  O1  UNL     1      20.254   1.975  52.378  1.00  0.00    -0.355 OA
HETATM   18  C1  UNL     1      19.043   1.716  51.745  1.00  0.00     0.210 C 
ENDBRANCH  10  17
ENDBRANCH   7   9
ENDBRANCH   1   7
BRANCH   6  19
HETATM   19  N5  UNL     1      21.696   4.133  50.810  1.00  0.00    -0.383 N 
HETATM   20  H20 UNL     1      20.917   4.398  51.481  1.00  0.00     0.157 HD
HETATM   21  H21 UNL     1      21.355   4.035  49.809  1.00  0.00     0.157 HD
ENDBRANCH   6  19
BRANCH   4  22
HETATM   22  N2  UNL     1      25.942   6.004  50.064  1.00  0.00    -0.218 N 
HETATM   23  H7  UNL     1      25.918   6.816  50.746  1.00  0.00     0.178 HD
BRANCH  22  24
HETATM   24  C12 UNL     1      26.710   6.073  48.831  1.00  0.00     0.102 C 
HETATM   25  C13 UNL     1      27.878   5.138  48.800  1.00  0.00     0.046 C 
HETATM   26  C14 UNL     1      29.015   5.570  47.943  1.00  0.00     0.137 C 
HETATM   27  N3  UNL     1      29.008   6.868  47.418  1.00  0.00    -0.311 N 
HETATM   28  C16 UNL     1      27.788   7.558  47.279  1.00  0.00     0.137 C 
HETATM   29  C17 UNL     1      27.074   7.519  48.613  1.00  0.00     0.046 C 
BRANCH  27  30
HETATM   30  S1  UNL     1      30.402   7.773  47.717  1.00  0.00     0.224 S 
HETATM   31  C15 UNL     1      31.755   7.499  46.644  1.00  0.00     0.186 C 
HETATM   32  O3  UNL     1      30.819   7.507  49.152  1.00  0.00    -0.206 OA
HETATM   33  O4  UNL     1      30.044   9.247  47.613  1.00  0.00    -0.206 OA
ENDBRANCH  27  30
ENDBRANCH  22  24
ENDBRANCH   4  22
TORSDOF 7
ENDMDL
MODEL 9
REMARK VINA RESULT:      -7.4      1.357      2.201
REMARK  7 active torsions:
REMARK  status: ('A' for Active; 'I' for Inactive)
REMARK    1  A    between atoms: O1_2  and  C2_3 
REMARK    2  A    between atoms: C7_10  and  C8_11 
REMARK    3  A    between atoms: C8_11  and  C9_13 
REMARK    4  A    between atoms: C11_16  and  N2_17 
REMARK    5  A    between atoms: N2_17  and  C12_18 
REMARK    6  A    between atoms: N3_21  and  S1_22 
REMARK    7  A    between atoms: C18_29  and  N5_30 
ROOT
HETATM    1  C9  UNL     1      27.488   6.752  48.225  1.00  0.00     0.079 A 
HETATM    2  C10 UNL     1      26.198   6.558  48.634  1.00  0.00     0.155 A 
HETATM    3  N1  UNL     1      25.689   5.425  49.138  1.00  0.00    -0.074 NA
HETATM    4  C11 UNL     1      26.506   4.366  49.258  1.00  0.00     0.724 A 
HETATM    5  N4  UNL     1      27.785   4.488  48.874  1.00  0.00    -0.045 NA
HETATM    6  C18 UNL     1      28.287   5.651  48.363  1.00  0.00     0.156 A 
ENDROOT
BRANCH   1   7
HETATM    7  C8  UNL     1      28.030   7.953  47.649  1.00  0.00     0.203 C 
HETATM    8  O2  UNL     1      28.317   7.756  46.417  1.00  0.00    -0.286 OA
BRANCH   7   9
HETATM    9  C7  UNL     1      28.336   9.294  48.060  1.00  0.00     0.090 A 
HETATM   10  C2  UNL     1      27.331  10.260  47.909  1.00  0.00     0.085 A 
HETATM   11  C3  UNL     1      27.582  11.573  48.258  1.00  0.00     0.041 A 
HETATM   12  C4  UNL     1      28.795  11.968  48.751  1.00  0.00     0.048 A 
HETATM   13  C5  UNL     1      29.796  11.048  48.909  1.00  0.00     0.156 A 
HETATM   14  F1  UNL     1      31.001  11.463  49.405  1.00  0.00    -0.203 F 
HETATM   15  C6  UNL     1      29.537   9.748  48.560  1.00  0.00     0.171 A 
HETATM   16  F2  UNL     1      30.597   8.927  48.710  1.00  0.00    -0.202 F 
BRANCH  10  17
HETATM   17  O1  UNL     1      26.094   9.917  47.418  1.00  0.00    -0.355 OA
HETATM   18  C1  UNL     1      25.554  10.251  46.181  1.00  0.00     0.210 C 
ENDBRANCH  10  17
ENDBRANCH   7   9
ENDBRANCH   1   7
BRANCH   6  19
HETATM   19  N5  UNL     1      29.652   5.588  48.019  1.00  0.00    -0.383 N 
HETATM   20  H20 UNL     1      30.587   5.283  48.420  1.00  0.00     0.157 HD
HETATM   21  H21 UNL     1      29.738   5.977  47.035  1.00  0.00     0.157 HD
ENDBRANCH   6  19
BRANCH   4  22
HETATM   22  N2  UNL     1      26.053   3.132  49.781  1.00  0.00    -0.218 N 
HETATM   23  H7  UNL     1      25.809   2.373  49.081  1.00  0.00     0.178 HD
BRANCH  22  24
HETATM   24  C12 UNL     1      25.925   2.911  51.212  1.00  0.00     0.102 C 
HETATM   25  C13 UNL     1      27.180   2.408  51.854  1.00  0.00     0.046 C 
HETATM   26  C14 UNL     1      26.982   1.585  53.078  1.00  0.00     0.137 C 
HETATM   27  N3  UNL     1      25.687   1.173  53.410  1.00  0.00    -0.311 N 
HETATM   28  C16 UNL     1      24.578   1.892  52.922  1.00  0.00     0.137 C 
HETATM   29  C17 UNL     1      24.728   2.021  51.422  1.00  0.00     0.046 C 
BRANCH  27  30
HETATM   30  S1  UNL     1      25.503  -0.486  53.671  1.00  0.00     0.224 S 
HETATM   31  C15 UNL     1      26.577  -1.539  52.780  1.00  0.00     0.186 C 
HETATM   32  O3  UNL     1      24.060  -0.839  53.363  1.00  0.00    -0.206 OA
HETATM   33  O4  UNL     1      25.734  -0.764  55.149  1.00  0.00    -0.206 OA
ENDBRANCH  27  30
ENDBRANCH  22  24
ENDBRANCH   4  22
TORSDOF 7
ENDMDL
