MODEL 1
REMARK VINA RESULT:      -7.5      0.000      0.000
REMARK  6 active torsions:
REMARK  status: ('A' for Active; 'I' for Inactive)
REMARK    1  A    between atoms: N1_2  and  C3_4 
REMARK    2  A    between atoms: C6_7  and  N2_8 
REMARK    3  A    between atoms: C9_11  and  C10_12 
REMARK    4  A    between atoms: C10_12  and  C11_13 
REMARK    5  A    between atoms: C11_13  and  C12_14 
REMARK    6  A    between atoms: C12_14  and  O1_15 
ROOT
HETATM    1  N2  UNL     1      24.159  -0.315  53.520  1.00  0.00    -0.296 N 
HETATM    2  C7  UNL     1      24.847   0.297  52.409  1.00  0.00     0.163 A 
HETATM    3  C8  UNL     1      26.313   0.360  52.640  1.00  0.00     0.023 A 
HETATM    4  C9  UNL     1      26.902  -0.095  53.736  1.00  0.00     0.041 A 
HETATM    5  N3  UNL     1      26.175  -0.692  54.803  1.00  0.00    -0.308 N 
HETATM    6  C13 UNL     1      24.755  -0.817  54.713  1.00  0.00     0.327 A 
HETATM    7  O2  UNL     1      24.074  -1.336  55.630  1.00  0.00    -0.246 OA
HETATM    8  H15 UNL     1      26.636  -1.050  55.663  1.00  0.00     0.170 HD
ENDROOT
BRANCH   1   9
HETATM    9  C6  UNL     1      22.745  -0.439  53.427  1.00  0.00     0.039 A 
HETATM   10  C5  UNL     1      21.890  -1.203  54.190  1.00  0.00     0.032 A 
HETATM   11  C4  UNL     1      20.538  -1.186  53.940  1.00  0.00     0.031 A 
HETATM   12  C3  UNL     1      19.994  -0.416  52.931  1.00  0.00     0.029 A 
HETATM   13  C15 UNL     1      20.848   0.355  52.159  1.00  0.00     0.031 A 
HETATM   14  C14 UNL     1      22.203   0.341  52.406  1.00  0.00     0.032 A 
BRANCH  12  15
HETATM   15  N1  UNL     1      18.604  -0.414  52.691  1.00  0.00    -0.390 N 
HETATM   16  C1  UNL     1      17.732  -1.363  53.389  1.00  0.00     0.149 C 
HETATM   17  C2  UNL     1      18.038   0.529  51.753  1.00  0.00     0.149 C 
ENDBRANCH  12  15
ENDBRANCH   1   9
BRANCH   4  18
HETATM   18  C10 UNL     1      28.334  -0.013  53.918  1.00  0.00     0.083 C 
BRANCH  18  19
HETATM   19  C11 UNL     1      29.058  -1.048  53.584  1.00  0.00    -0.118 C 
BRANCH  19  20
HETATM   20  C12 UNL     1      29.604  -2.238  53.379  1.00  0.00     0.228 C 
BRANCH  20  21
HETATM   21  O1  UNL     1      28.768  -3.333  53.446  1.00  0.00    -0.380 OA
HETATM   22  H14 UNL     1      28.791  -3.919  54.283  1.00  0.00     0.211 HD
ENDBRANCH  20  21
ENDBRANCH  19  20
ENDBRANCH  18  19
ENDBRANCH   4  18
TORSDOF 6
ENDMDL
MODEL 2
REMARK VINA RESULT:      -7.3      2.323      7.474
REMARK  6 active torsions:
REMARK  status: ('A' for Active; 'I' for Inactive)
REMARK    1  A    between atoms: N1_2  and  C3_4 
REMARK    2  A    between atoms: C6_7  and  N2_8 
REMARK    3  A    between atoms: C9_11  and  C10_12 
REMARK    4  A    between atoms: C10_12  and  C11_13 
REMARK    5  A    between atoms: C11_13  and  C12_14 
REMARK    6  A    between atoms: C12_14  and  O1_15 
ROOT
HETATM    1  N2  UNL     1      22.452   0.368  52.651  1.00  0.00    -0.296 N 
HETATM    2  C7  UNL     1      22.114   0.739  51.298  1.00  0.00     0.163 A 
HETATM    3  C8  UNL     1      20.652   0.641  51.052  1.00  0.00     0.023 A 
HETATM    4  C9  UNL     1      19.779   0.259  51.972  1.00  0.00     0.041 A 
HETATM    5  N3  UNL     1      20.167  -0.097  53.293  1.00  0.00    -0.308 N 
HETATM    6  C13 UNL     1      21.544  -0.047  53.667  1.00  0.00     0.327 A 
HETATM    7  O2  UNL     1      21.931  -0.352  54.822  1.00  0.00    -0.246 OA
HETATM    8  H15 UNL     1      19.482  -0.397  54.016  1.00  0.00     0.170 HD
ENDROOT
BRANCH   1   9
HETATM    9  C6  UNL     1      23.824   0.419  53.020  1.00  0.00     0.039 A 
HETATM   10  C5  UNL     1      24.684  -0.618  53.310  1.00  0.00     0.032 A 
HETATM   11  C4  UNL     1      25.990  -0.360  53.651  1.00  0.00     0.031 A 
HETATM   12  C3  UNL     1      26.484   0.928  53.716  1.00  0.00     0.029 A 
HETATM   13  C15 UNL     1      25.626   1.978  53.426  1.00  0.00     0.031 A 
HETATM   14  C14 UNL     1      24.316   1.723  53.084  1.00  0.00     0.032 A 
BRANCH  12  15
HETATM   15  N1  UNL     1      27.828   1.172  54.068  1.00  0.00    -0.390 N 
HETATM   16  C1  UNL     1      28.563   0.206  54.890  1.00  0.00     0.149 C 
HETATM   17  C2  UNL     1      28.483   2.378  53.615  1.00  0.00     0.149 C 
ENDBRANCH  12  15
ENDBRANCH   1   9
BRANCH   4  18
HETATM   18  C10 UNL     1      18.364   0.177  51.687  1.00  0.00     0.083 C 
BRANCH  18  19
HETATM   19  C11 UNL     1      17.672  -0.764  52.274  1.00  0.00    -0.118 C 
BRANCH  19  20
HETATM   20  C12 UNL     1      17.192  -1.750  53.017  1.00  0.00     0.228 C 
BRANCH  20  21
HETATM   21  O1  UNL     1      17.874  -2.051  54.177  1.00  0.00    -0.380 OA
HETATM   22  H14 UNL     1      18.083  -3.030  54.387  1.00  0.00     0.211 HD
ENDBRANCH  20  21
ENDBRANCH  19  20
ENDBRANCH  18  19
ENDBRANCH   4  18
TORSDOF 6
ENDMDL
MODEL 3
REMARK VINA RESULT:      -7.2      2.655      7.815
REMARK  6 active torsions:
REMARK  status: ('A' for Active; 'I' for Inactive)
REMARK    1  A    between atoms: N1_2  and  C3_4 
REMARK    2  A    between atoms: C6_7  and  N2_8 
REMARK    3  A    between atoms: C9_11  and  C10_12 
REMARK    4  A    between atoms: C10_12  and  C11_13 
REMARK    5  A    between atoms: C11_13  and  C12_14 
REMARK    6  A    between atoms: C12_14  and  O1_15 
ROOT
HETATM    1  N2  UNL     1      23.350   0.635  52.631  1.00  0.00    -0.296 N 
HETATM    2  C7  UNL     1      22.512  -0.151  53.503  1.00  0.00     0.163 A 
HETATM    3  C8  UNL     1      21.114  -0.218  53.005  1.00  0.00     0.023 A 
HETATM    4  C9  UNL     1      20.702   0.375  51.895  1.00  0.00     0.041 A 
HETATM    5  N3  UNL     1      21.573   1.140  51.069  1.00  0.00    -0.308 N 
HETATM    6  C13 UNL     1      22.947   1.287  51.430  1.00  0.00     0.327 A 
HETATM    7  O2  UNL     1      23.750   1.952  50.732  1.00  0.00    -0.246 OA
HETATM    8  H15 UNL     1      21.251   1.606  50.197  1.00  0.00     0.170 HD
ENDROOT
BRANCH   1   9
HETATM    9  C6  UNL     1      24.718   0.779  52.992  1.00  0.00     0.039 A 
HETATM   10  C5  UNL     1      25.389   1.905  53.416  1.00  0.00     0.032 A 
HETATM   11  C4  UNL     1      26.727   1.840  53.721  1.00  0.00     0.031 A 
HETATM   12  C3  UNL     1      27.441   0.662  53.616  1.00  0.00     0.029 A 
HETATM   13  C15 UNL     1      26.773  -0.476  53.189  1.00  0.00     0.031 A 
HETATM   14  C14 UNL     1      25.432  -0.414  52.883  1.00  0.00     0.032 A 
BRANCH  12  15
HETATM   15  N1  UNL     1      28.815   0.616  53.933  1.00  0.00    -0.390 N 
HETATM   16  C1  UNL     1      29.581  -0.616  53.721  1.00  0.00     0.149 C 
HETATM   17  C2  UNL     1      29.468   1.787  54.471  1.00  0.00     0.149 C 
ENDBRANCH  12  15
ENDBRANCH   1   9
BRANCH   4  18
HETATM   18  C10 UNL     1      19.331   0.284  51.449  1.00  0.00     0.083 C 
BRANCH  18  19
HETATM   19  C11 UNL     1      18.506  -0.456  52.141  1.00  0.00    -0.118 C 
BRANCH  19  20
HETATM   20  C12 UNL     1      17.491  -1.136  52.655  1.00  0.00     0.228 C 
BRANCH  20  21
HETATM   21  O1  UNL     1      17.441  -1.244  54.030  1.00  0.00    -0.380 OA
HETATM   22  H14 UNL     1      16.635  -0.858  54.525  1.00  0.00     0.211 HD
ENDBRANCH  20  21
ENDBRANCH  19  20
ENDBRANCH  18  19
ENDBRANCH   4  18
TORSDOF 6
ENDMDL
MODEL 4
REMARK VINA RESULT:      -7.0      5.300      6.167
REMARK  6 active torsions:
REMARK  status: ('A' for Active; 'I' for Inactive)
REMARK    1  A    between atoms: N1_2  and  C3_4 
REMARK    2  A    between atoms: C6_7  and  N2_8 
REMARK    3  A    between atoms: C9_11  and  C10_12 
REMARK    4  A    between atoms: C10_12  and  C11_13 
REMARK    5  A    between atoms: C11_13  and  C12_14 
REMARK    6  A    between atoms: C12_14  and  O1_15 
ROOT
HETATM    1  N2  UNL     1      24.996   3.780  50.354  1.00  0.00    -0.296 N 
HETATM    2  C7  UNL     1      24.368   4.988  49.878  1.00  0.00     0.163 A 
HETATM    3  C8  UNL     1      25.325   5.847  49.134  1.00  0.00     0.023 A 
HETATM    4  C9  UNL     1      26.596   5.529  48.939  1.00  0.00     0.041 A 
HETATM    5  N3  UNL     1      27.165   4.322  49.431  1.00  0.00    -0.308 N 
HETATM    6  C13 UNL     1      26.357   3.402  50.166  1.00  0.00     0.327 A 
HETATM    7  O2  UNL     1      26.818   2.326  50.619  1.00  0.00    -0.246 OA
HETATM    8  H15 UNL     1      28.163   4.071  49.280  1.00  0.00     0.170 HD
ENDROOT
BRANCH   1   9
HETATM    9  C6  UNL     1      24.188   2.866  51.085  1.00  0.00     0.039 A 
HETATM   10  C5  UNL     1      24.223   2.558  52.427  1.00  0.00     0.032 A 
HETATM   11  C4  UNL     1      23.348   1.636  52.948  1.00  0.00     0.031 A 
HETATM   12  C3  UNL     1      22.414   0.991  52.160  1.00  0.00     0.029 A 
HETATM   13  C15 UNL     1      22.372   1.295  50.808  1.00  0.00     0.031 A 
HETATM   14  C14 UNL     1      23.248   2.219  50.282  1.00  0.00     0.032 A 
BRANCH  12  15
HETATM   15  N1  UNL     1      21.525   0.047  52.716  1.00  0.00    -0.390 N 
HETATM   16  C1  UNL     1      20.084   0.160  52.474  1.00  0.00     0.149 C 
HETATM   17  C2  UNL     1      22.038  -1.035  53.525  1.00  0.00     0.149 C 
ENDBRANCH  12  15
ENDBRANCH   1   9
BRANCH   4  18
HETATM   18  C10 UNL     1      27.492   6.396  48.209  1.00  0.00     0.083 C 
BRANCH  18  19
HETATM   19  C11 UNL     1      28.755   6.065  48.147  1.00  0.00    -0.118 C 
BRANCH  19  20
HETATM   20  C12 UNL     1      30.059   5.887  48.301  1.00  0.00     0.228 C 
BRANCH  20  21
HETATM   21  O1  UNL     1      30.508   5.609  49.575  1.00  0.00    -0.380 OA
HETATM   22  H14 UNL     1      30.721   6.387  50.204  1.00  0.00     0.211 HD
ENDBRANCH  20  21
ENDBRANCH  19  20
ENDBRANCH  18  19
ENDBRANCH   4  18
TORSDOF 6
ENDMDL
MODEL 5
REMARK VINA RESULT:      -7.0      5.847      7.197
REMARK  6 active torsions:
REMARK  status: ('A' for Active; 'I' for Inactive)
REMARK    1  A    between atoms: N1_2  and  C3_4 
REMARK    2  A    between atoms: C6_7  and  N2_8 
REMARK    3  A    between atoms: C9_11  and  C10_12 
REMARK    4  A    between atoms: C10_12  and  C11_13 
REMARK    5  A    between atoms: C11_13  and  C12_14 
REMARK    6  A    between atoms: C12_14  and  O1_15 
ROOT
HETATM    1  N2  UNL     1      25.213   3.946  50.453  1.00  0.00    -0.296 N 
HETATM    2  C7  UNL     1      26.324   3.638  49.586  1.00  0.00     0.163 A 
HETATM    3  C8  UNL     1      26.874   4.861  48.947  1.00  0.00     0.023 A 
HETATM    4  C9  UNL     1      26.394   6.077  49.156  1.00  0.00     0.041 A 
HETATM    5  N3  UNL     1      25.294   6.325  50.023  1.00  0.00    -0.308 N 
HETATM    6  C13 UNL     1      24.668   5.238  50.706  1.00  0.00     0.327 A 
HETATM    7  O2  UNL     1      23.694   5.410  51.479  1.00  0.00    -0.246 OA
HETATM    8  H15 UNL     1      24.916   7.279  50.189  1.00  0.00     0.170 HD
ENDROOT
BRANCH   1   9
HETATM    9  C6  UNL     1      24.591   2.861  51.132  1.00  0.00     0.039 A 
HETATM   10  C5  UNL     1      23.436   2.184  50.809  1.00  0.00     0.032 A 
HETATM   11  C4  UNL     1      22.995   1.152  51.601  1.00  0.00     0.031 A 
HETATM   12  C3  UNL     1      23.680   0.759  52.734  1.00  0.00     0.029 A 
HETATM   13  C15 UNL     1      24.844   1.436  53.066  1.00  0.00     0.031 A 
HETATM   14  C14 UNL     1      25.290   2.471  52.274  1.00  0.00     0.032 A 
BRANCH  12  15
HETATM   15  N1  UNL     1      23.210  -0.304  53.535  1.00  0.00    -0.390 N 
HETATM   16  C1  UNL     1      24.064  -0.873  54.581  1.00  0.00     0.149 C 
HETATM   17  C2  UNL     1      21.882  -0.832  53.321  1.00  0.00     0.149 C 
ENDBRANCH  12  15
ENDBRANCH   1   9
BRANCH   4  18
HETATM   18  C10 UNL     1      26.961   7.239  48.511  1.00  0.00     0.083 C 
BRANCH  18  19
HETATM   19  C11 UNL     1      27.310   8.251  49.261  1.00  0.00    -0.118 C 
BRANCH  19  20
HETATM   20  C12 UNL     1      27.842   9.326  49.825  1.00  0.00     0.228 C 
BRANCH  20  21
HETATM   21  O1  UNL     1      27.637   9.490  51.179  1.00  0.00    -0.380 OA
HETATM   22  H14 UNL     1      26.786   9.111  51.598  1.00  0.00     0.211 HD
ENDBRANCH  20  21
ENDBRANCH  19  20
ENDBRANCH  18  19
ENDBRANCH   4  18
TORSDOF 6
ENDMDL
MODEL 6
REMARK VINA RESULT:      -7.0      1.627      2.039
REMARK  6 active torsions:
REMARK  status: ('A' for Active; 'I' for Inactive)
REMARK    1  A    between atoms: N1_2  and  C3_4 
REMARK    2  A    between atoms: C6_7  and  N2_8 
REMARK    3  A    between atoms: C9_11  and  C10_12 
REMARK    4  A    between atoms: C10_12  and  C11_13 
REMARK    5  A    between atoms: C11_13  and  C12_14 
REMARK    6  A    between atoms: C12_14  and  O1_15 
ROOT
HETATM    1  N2  UNL     1      23.904  -0.066  53.575  1.00  0.00    -0.296 N 
HETATM    2  C7  UNL     1      24.685   0.682  52.619  1.00  0.00     0.163 A 
HETATM    3  C8  UNL     1      26.137   0.607  52.922  1.00  0.00     0.023 A 
HETATM    4  C9  UNL     1      26.639  -0.067  53.945  1.00  0.00     0.041 A 
HETATM    5  N3  UNL     1      25.821  -0.788  54.859  1.00  0.00    -0.308 N 
HETATM    6  C13 UNL     1      24.404  -0.802  54.686  1.00  0.00     0.327 A 
HETATM    7  O2  UNL     1      23.645  -1.425  55.468  1.00  0.00    -0.246 OA
HETATM    8  H15 UNL     1      26.214  -1.318  55.663  1.00  0.00     0.170 HD
ENDROOT
BRANCH   1   9
HETATM    9  C6  UNL     1      22.492  -0.078  53.399  1.00  0.00     0.039 A 
HETATM   10  C5  UNL     1      21.503  -0.245  54.343  1.00  0.00     0.032 A 
HETATM   11  C4  UNL     1      20.180  -0.226  53.970  1.00  0.00     0.031 A 
HETATM   12  C3  UNL     1      19.797  -0.043  52.655  1.00  0.00     0.029 A 
HETATM   13  C15 UNL     1      20.787   0.126  51.699  1.00  0.00     0.031 A 
HETATM   14  C14 UNL     1      22.114   0.108  52.070  1.00  0.00     0.032 A 
BRANCH  12  15
HETATM   15  N1  UNL     1      18.434  -0.027  52.293  1.00  0.00    -0.390 N 
HETATM   16  C1  UNL     1      17.942   0.948  51.315  1.00  0.00     0.149 C 
HETATM   17  C2  UNL     1      17.520  -0.975  52.888  1.00  0.00     0.149 C 
ENDBRANCH  12  15
ENDBRANCH   1   9
BRANCH   4  18
HETATM   18  C10 UNL     1      28.060  -0.111  54.202  1.00  0.00     0.083 C 
BRANCH  18  19
HETATM   19  C11 UNL     1      28.748   0.990  54.049  1.00  0.00    -0.118 C 
BRANCH  19  20
HETATM   20  C12 UNL     1      29.340   2.173  54.132  1.00  0.00     0.228 C 
BRANCH  20  21
HETATM   21  O1  UNL     1      29.257   2.995  53.028  1.00  0.00    -0.380 OA
HETATM   22  H14 UNL     1      29.338   2.581  52.097  1.00  0.00     0.211 HD
ENDBRANCH  20  21
ENDBRANCH  19  20
ENDBRANCH  18  19
ENDBRANCH   4  18
TORSDOF 6
ENDMDL
MODEL 7
REMARK VINA RESULT:      -6.9      5.424      6.446
REMARK  6 active torsions:
REMARK  status: ('A' for Active; 'I' for Inactive)
REMARK    1  A    between atoms: N1_2  and  C3_4 
REMARK    2  A    between atoms: C6_7  and  N2_8 
REMARK    3  A    between atoms: C9_11  and  C10_12 
REMARK    4  A    between atoms: C10_12  and  C11_13 
REMARK    5  A    between atoms: C11_13  and  C12_14 
REMARK    6  A    between atoms: C12_14  and  O1_15 
ROOT
HETATM    1  N2  UNL     1      25.196   3.736  50.326  1.00  0.00    -0.296 N 
HETATM    2  C7  UNL     1      26.372   3.193  49.691  1.00  0.00     0.163 A 
HETATM    3  C8  UNL     1      27.147   4.245  48.983  1.00  0.00     0.023 A 
HETATM    4  C9  UNL     1      26.790   5.520  48.949  1.00  0.00     0.041 A 
HETATM    5  N3  UNL     1      25.618   6.002  49.595  1.00  0.00    -0.308 N 
HETATM    6  C13 UNL     1      24.779   5.097  50.314  1.00  0.00     0.327 A 
HETATM    7  O2  UNL     1      23.736   5.480  50.898  1.00  0.00    -0.246 OA
HETATM    8  H15 UNL     1      25.337   7.003  49.569  1.00  0.00     0.170 HD
ENDROOT
BRANCH   1   9
HETATM    9  C6  UNL     1      24.363   2.832  51.042  1.00  0.00     0.039 A 
HETATM   10  C5  UNL     1      23.229   2.176  50.616  1.00  0.00     0.032 A 
HETATM   11  C4  UNL     1      22.556   1.334  51.469  1.00  0.00     0.031 A 
HETATM   12  C3  UNL     1      22.981   1.117  52.765  1.00  0.00     0.029 A 
HETATM   13  C15 UNL     1      24.122   1.774  53.201  1.00  0.00     0.031 A 
HETATM   14  C14 UNL     1      24.800   2.618  52.349  1.00  0.00     0.032 A 
BRANCH  12  15
HETATM   15  N1  UNL     1      22.276   0.249  53.624  1.00  0.00    -0.390 N 
HETATM   16  C1  UNL     1      22.968  -0.865  54.279  1.00  0.00     0.149 C 
HETATM   17  C2  UNL     1      20.865   0.459  53.858  1.00  0.00     0.149 C 
ENDBRANCH  12  15
ENDBRANCH   1   9
BRANCH   4  18
HETATM   18  C10 UNL     1      27.575   6.509  48.247  1.00  0.00     0.083 C 
BRANCH  18  19
HETATM   19  C11 UNL     1      28.866   6.323  48.159  1.00  0.00    -0.118 C 
BRANCH  19  20
HETATM   20  C12 UNL     1      30.146   6.016  48.310  1.00  0.00     0.228 C 
BRANCH  20  21
HETATM   21  O1  UNL     1      30.557   5.642  49.573  1.00  0.00    -0.380 OA
HETATM   22  H14 UNL     1      29.879   5.213  50.206  1.00  0.00     0.211 HD
ENDBRANCH  20  21
ENDBRANCH  19  20
ENDBRANCH  18  19
ENDBRANCH   4  18
TORSDOF 6
ENDMDL
MODEL 8
REMARK VINA RESULT:      -6.9      5.148      7.826
REMARK  6 active torsions:
REMARK  status: ('A' for Active; 'I' for Inactive)
REMARK    1  A    between atoms: N1_2  and  C3_4 
REMARK    2  A    between atoms: C6_7  and  N2_8 
REMARK    3  A    between atoms: C9_11  and  C10_12 
REMARK    4  A    between atoms: C10_12  and  C11_13 
REMARK    5  A    between atoms: C11_13  and  C12_14 
REMARK    6  A    between atoms: C12_14  and  O1_15 
ROOT
HETATM    1  N2  UNL     1      25.397   2.686  51.065  1.00  0.00    -0.296 N 
HETATM    2  C7  UNL     1      23.999   2.361  50.927  1.00  0.00     0.163 A 
HETATM    3  C8  UNL     1      23.607   1.240  51.820  1.00  0.00     0.023 A 
HETATM    4  C9  UNL     1      24.448   0.625  52.637  1.00  0.00     0.041 A 
HETATM    5  N3  UNL     1      25.820   0.987  52.734  1.00  0.00    -0.308 N 
HETATM    6  C13 UNL     1      26.334   2.051  51.931  1.00  0.00     0.327 A 
HETATM    7  O2  UNL     1      27.537   2.402  51.984  1.00  0.00    -0.246 OA
HETATM    8  H15 UNL     1      26.483   0.505  53.375  1.00  0.00     0.170 HD
ENDROOT
BRANCH   1   9
HETATM    9  C6  UNL     1      25.905   3.746  50.264  1.00  0.00     0.039 A 
HETATM   10  C5  UNL     1      26.949   3.731  49.366  1.00  0.00     0.032 A 
HETATM   11  C4  UNL     1      27.290   4.873  48.682  1.00  0.00     0.031 A 
HETATM   12  C3  UNL     1      26.612   6.062  48.866  1.00  0.00     0.029 A 
HETATM   13  C15 UNL     1      25.559   6.086  49.769  1.00  0.00     0.031 A 
HETATM   14  C14 UNL     1      25.215   4.943  50.456  1.00  0.00     0.032 A 
BRANCH  12  15
HETATM   15  N1  UNL     1      26.978   7.223  48.154  1.00  0.00    -0.390 N 
HETATM   16  C1  UNL     1      25.972   7.970  47.393  1.00  0.00     0.149 C 
HETATM   17  C2  UNL     1      28.349   7.678  48.175  1.00  0.00     0.149 C 
ENDBRANCH  12  15
ENDBRANCH   1   9
BRANCH   4  18
HETATM   18  C10 UNL     1      24.023  -0.463  53.488  1.00  0.00     0.083 C 
BRANCH  18  19
HETATM   19  C11 UNL     1      22.741  -0.617  53.696  1.00  0.00    -0.118 C 
BRANCH  19  20
HETATM   20  C12 UNL     1      21.478  -1.009  53.782  1.00  0.00     0.228 C 
BRANCH  20  21
HETATM   21  O1  UNL     1      21.065  -1.532  54.989  1.00  0.00    -0.380 OA
HETATM   22  H14 UNL     1      21.278  -2.509  55.202  1.00  0.00     0.211 HD
ENDBRANCH  20  21
ENDBRANCH  19  20
ENDBRANCH  18  19
ENDBRANCH   4  18
TORSDOF 6
ENDMDL
MODEL 9
REMARK VINA RESULT:      -6.6      2.511      7.774
REMARK  6 active torsions:
REMARK  status: ('A' for Active; 'I' for Inactive)
REMARK    1  A    between atoms: N1_2  and  C3_4 
REMARK    2  A    between atoms: C6_7  and  N2_8 
REMARK    3  A    between atoms: C9_11  and  C10_12 
REMARK    4  A    between atoms: C10_12  and  C11_13 
REMARK    5  A    between atoms: C11_13  and  C12_14 
REMARK    6  A    between atoms: C12_14  and  O1_15 
ROOT
HETATM    1  N2  UNL     1      23.440   0.281  52.720  1.00  0.00    -0.296 N 
HETATM    2  C7  UNL     1      23.045   1.107  51.606  1.00  0.00     0.163 A 
HETATM    3  C8  UNL     1      21.570   1.109  51.422  1.00  0.00     0.023 A 
HETATM    4  C9  UNL     1      20.735   0.431  52.195  1.00  0.00     0.041 A 
HETATM    5  N3  UNL     1      21.180  -0.369  53.283  1.00  0.00    -0.308 N 
HETATM    6  C13 UNL     1      22.575  -0.461  53.574  1.00  0.00     0.327 A 
HETATM    7  O2  UNL     1      23.012  -1.156  54.524  1.00  0.00    -0.246 OA
HETATM    8  H15 UNL     1      20.525  -0.902  53.891  1.00  0.00     0.170 HD
ENDROOT
BRANCH   1   9
HETATM    9  C6  UNL     1      24.831   0.192  53.008  1.00  0.00     0.039 A 
HETATM   10  C5  UNL     1      25.678  -0.885  52.867  1.00  0.00     0.032 A 
HETATM   11  C4  UNL     1      27.005  -0.769  53.204  1.00  0.00     0.031 A 
HETATM   12  C3  UNL     1      27.533   0.411  53.690  1.00  0.00     0.029 A 
HETATM   13  C15 UNL     1      26.687   1.500  53.835  1.00  0.00     0.031 A 
HETATM   14  C14 UNL     1      25.356   1.388  53.498  1.00  0.00     0.032 A 
BRANCH  12  15
HETATM   15  N1  UNL     1      28.899   0.508  54.030  1.00  0.00    -0.390 N 
HETATM   16  C1  UNL     1      29.793  -0.636  53.831  1.00  0.00     0.149 C 
HETATM   17  C2  UNL     1      29.418   1.741  54.578  1.00  0.00     0.149 C 
ENDBRANCH  12  15
ENDBRANCH   1   9
BRANCH   4  18
HETATM   18  C10 UNL     1      19.306   0.462  51.978  1.00  0.00     0.083 C 
BRANCH  18  19
HETATM   19  C11 UNL     1      18.754   1.606  51.674  1.00  0.00    -0.118 C 
BRANCH  19  20
HETATM   20  C12 UNL     1      18.205   2.674  51.113  1.00  0.00     0.228 C 
BRANCH  20  21
HETATM   21  O1  UNL     1      17.648   3.611  51.958  1.00  0.00    -0.380 OA
HETATM   22  H14 UNL     1      17.868   4.598  51.814  1.00  0.00     0.211 HD
ENDBRANCH  20  21
ENDBRANCH  19  20
ENDBRANCH  18  19
ENDBRANCH   4  18
TORSDOF 6
ENDMDL
