MODEL 1
REMARK VINA RESULT:      -9.0      0.000      0.000
REMARK  4 active torsions:
REMARK  status: ('A' for Active; 'I' for Inactive)
REMARK    1  A    between atoms: C2_2  and  O1_3 
REMARK    2  A    between atoms: C2_2  and  C15_19 
REMARK    3  A    between atoms: O1_3  and  C3_4 
REMARK    4  A    between atoms: C13_15  and  C14_16 
REMARK       I    between atoms: C14_16  and  N2_17 
ROOT
HETATM    1  C3  UNL     1      22.098  -0.524  53.312  1.00  0.00     0.070 A 
HETATM    2  C4  UNL     1      22.091  -1.064  54.582  1.00  0.00     0.039 A 
HETATM    3  C5  UNL     1      23.266  -1.182  55.296  1.00  0.00     0.035 A 
HETATM    4  C6  UNL     1      24.439  -0.753  54.712  1.00  0.00     0.062 A 
HETATM    5  C7  UNL     1      24.479  -0.211  53.444  1.00  0.00    -0.026 A 
HETATM    6  C8  UNL     1      23.294  -0.097  52.739  1.00  0.00     0.046 A 
HETATM    7  C9  UNL     1      25.646   0.283  52.707  1.00  0.00     0.057 A 
HETATM    8  C10 UNL     1      26.915   0.152  53.481  1.00  0.00     0.010 A 
HETATM    9  C11 UNL     1      26.742  -0.441  54.820  1.00  0.00     0.101 A 
HETATM   10  N1  UNL     1      25.679  -0.859  55.418  1.00  0.00    -0.264 NA
HETATM   11  C12 UNL     1      28.051   1.081  53.281  1.00  0.00     0.030 A 
HETATM   12  C13 UNL     1      28.171  -0.300  52.761  1.00  0.00     0.087 A 
ENDROOT
BRANCH   1  13
HETATM   13  O1  UNL     1      20.840  -0.471  52.722  1.00  0.00    -0.342 OA
BRANCH  13  14
HETATM   14  C2  UNL     1      20.323   0.569  51.960  1.00  0.00     0.161 C 
HETATM   15  C1  UNL     1      20.126   1.765  52.886  1.00  0.00     0.045 C 
BRANCH  14  16
HETATM   16  C15 UNL     1      18.954   0.236  51.437  1.00  0.00     0.017 A 
HETATM   17  C16 UNL     1      18.492   0.754  50.235  1.00  0.00     0.044 A 
HETATM   18 CL1  UNL     1      19.554   1.821  49.322  1.00  0.00    -0.084 Cl
HETATM   19  C17 UNL     1      17.238   0.454  49.747  1.00  0.00     0.028 A 
HETATM   20  C18 UNL     1      16.410  -0.382  50.466  1.00  0.00     0.046 A 
HETATM   21  C19 UNL     1      16.862  -0.906  51.671  1.00  0.00     0.138 A 
HETATM   22  F1  UNL     1      16.095  -1.735  52.427  1.00  0.00    -0.204 F 
HETATM   23  C20 UNL     1      18.118  -0.596  52.144  1.00  0.00     0.083 A 
HETATM   24 CL2  UNL     1      18.663  -1.276  53.676  1.00  0.00    -0.080 Cl
ENDBRANCH  14  16
ENDBRANCH  13  14
ENDBRANCH   1  13
BRANCH  12  25
HETATM   25  C14 UNL     1      29.048  -1.314  53.388  1.00  0.00     0.200 C 
HETATM   26  N2  UNL     1      28.810  -2.712  53.199  1.00  0.00    -0.272 NA
HETATM   27  H14 UNL     1      28.386  -3.332  53.926  1.00  0.00     0.127 HD
HETATM   28  H15 UNL     1      28.386  -3.321  53.931  1.00  0.00     0.127 HD
HETATM   29  O2  UNL     1      30.079  -1.385  54.135  1.00  0.00    -0.280 OA
ENDBRANCH  12  25
TORSDOF 4
ENDMDL
MODEL 2
REMARK VINA RESULT:      -8.9      6.540      7.881
REMARK  4 active torsions:
REMARK  status: ('A' for Active; 'I' for Inactive)
REMARK    1  A    between atoms: C2_2  and  O1_3 
REMARK    2  A    between atoms: C2_2  and  C15_19 
REMARK    3  A    between atoms: O1_3  and  C3_4 
REMARK    4  A    between atoms: C13_15  and  C14_16 
REMARK       I    between atoms: C14_16  and  N2_17 
ROOT
HETATM    1  C3  UNL     1      22.771   4.228  51.362  1.00  0.00     0.070 A 
HETATM    2  C4  UNL     1      21.838   5.221  51.584  1.00  0.00     0.039 A 
HETATM    3  C5  UNL     1      22.073   6.509  51.149  1.00  0.00     0.035 A 
HETATM    4  C6  UNL     1      23.256   6.779  50.494  1.00  0.00     0.062 A 
HETATM    5  C7  UNL     1      24.209   5.809  50.258  1.00  0.00    -0.026 A 
HETATM    6  C8  UNL     1      23.961   4.521  50.698  1.00  0.00     0.046 A 
HETATM    7  C9  UNL     1      25.500   5.955  49.578  1.00  0.00     0.057 A 
HETATM    8  C10 UNL     1      25.751   7.349  49.111  1.00  0.00     0.010 A 
HETATM    9  C11 UNL     1      24.662   8.292  49.422  1.00  0.00     0.101 A 
HETATM   10  N1  UNL     1      23.539   8.101  50.028  1.00  0.00    -0.264 NA
HETATM   11  C12 UNL     1      26.592   7.635  47.925  1.00  0.00     0.030 A 
HETATM   12  C13 UNL     1      27.141   7.936  49.267  1.00  0.00     0.087 A 
ENDROOT
BRANCH   1  13
HETATM   13  O1  UNL     1      22.392   2.986  51.857  1.00  0.00    -0.342 OA
BRANCH  13  14
HETATM   14  C2  UNL     1      22.936   1.754  51.517  1.00  0.00     0.161 C 
HETATM   15  C1  UNL     1      22.031   1.126  50.461  1.00  0.00     0.045 C 
BRANCH  14  16
HETATM   16  C15 UNL     1      22.913   0.804  52.681  1.00  0.00     0.017 A 
HETATM   17  C16 UNL     1      21.740   0.531  53.371  1.00  0.00     0.044 A 
HETATM   18 CL1  UNL     1      20.259   1.329  52.849  1.00  0.00    -0.084 Cl
HETATM   19  C17 UNL     1      21.709  -0.339  54.439  1.00  0.00     0.028 A 
HETATM   20  C18 UNL     1      22.871  -0.962  54.844  1.00  0.00     0.046 A 
HETATM   21  C19 UNL     1      24.052  -0.695  54.161  1.00  0.00     0.138 A 
HETATM   22  F1  UNL     1      25.231  -1.276  54.510  1.00  0.00    -0.204 F 
HETATM   23  C20 UNL     1      24.065   0.178  53.095  1.00  0.00     0.083 A 
HETATM   24 CL2  UNL     1      25.577   0.494  52.249  1.00  0.00    -0.080 Cl
ENDBRANCH  14  16
ENDBRANCH  13  14
ENDBRANCH   1  13
BRANCH  12  25
HETATM   25  C14 UNL     1      27.299   9.318  49.772  1.00  0.00     0.200 C 
HETATM   26  N2  UNL     1      27.643   9.568  51.139  1.00  0.00    -0.272 NA
HETATM   27  H14 UNL     1      26.960   9.898  51.858  1.00  0.00     0.127 HD
HETATM   28  H15 UNL     1      26.953   9.897  51.847  1.00  0.00     0.127 HD
HETATM   29  O2  UNL     1      27.226  10.522  49.359  1.00  0.00    -0.280 OA
ENDBRANCH  12  25
TORSDOF 4
ENDMDL
MODEL 3
REMARK VINA RESULT:      -8.8      3.044      3.926
REMARK  4 active torsions:
REMARK  status: ('A' for Active; 'I' for Inactive)
REMARK    1  A    between atoms: C2_2  and  O1_3 
REMARK    2  A    between atoms: C2_2  and  C15_19 
REMARK    3  A    between atoms: O1_3  and  C3_4 
REMARK    4  A    between atoms: C13_15  and  C14_16 
REMARK       I    between atoms: C14_16  and  N2_17 
ROOT
HETATM    1  C3  UNL     1      22.262   0.576  52.682  1.00  0.00     0.070 A 
HETATM    2  C4  UNL     1      21.942  -0.222  53.762  1.00  0.00     0.039 A 
HETATM    3  C5  UNL     1      22.939  -0.777  54.539  1.00  0.00     0.035 A 
HETATM    4  C6  UNL     1      24.253  -0.516  54.212  1.00  0.00     0.062 A 
HETATM    5  C7  UNL     1      24.604   0.276  53.138  1.00  0.00    -0.026 A 
HETATM    6  C8  UNL     1      23.596   0.827  52.367  1.00  0.00     0.046 A 
HETATM    7  C9  UNL     1      25.950   0.635  52.680  1.00  0.00     0.057 A 
HETATM    8  C10 UNL     1      27.025   0.032  53.521  1.00  0.00     0.010 A 
HETATM    9  C11 UNL     1      26.524  -0.793  54.635  1.00  0.00     0.101 A 
HETATM   10  N1  UNL     1      25.316  -1.072  54.991  1.00  0.00    -0.264 NA
HETATM   11  C12 UNL     1      28.344   0.685  53.688  1.00  0.00     0.030 A 
HETATM   12  C13 UNL     1      28.261  -0.527  52.843  1.00  0.00     0.087 A 
ENDROOT
BRANCH   1  13
HETATM   13  O1  UNL     1      21.152   1.060  52.000  1.00  0.00    -0.342 OA
BRANCH  13  14
HETATM   14  C2  UNL     1      20.861   2.390  51.722  1.00  0.00     0.161 C 
HETATM   15  C1  UNL     1      19.447   2.443  51.153  1.00  0.00     0.045 C 
BRANCH  14  16
HETATM   16  C15 UNL     1      21.751   2.931  50.639  1.00  0.00     0.017 A 
HETATM   17  C16 UNL     1      22.444   4.124  50.798  1.00  0.00     0.044 A 
HETATM   18 CL1  UNL     1      22.257   5.002  52.313  1.00  0.00    -0.084 Cl
HETATM   19  C17 UNL     1      23.262   4.627  49.810  1.00  0.00     0.028 A 
HETATM   20  C18 UNL     1      23.405   3.936  48.625  1.00  0.00     0.046 A 
HETATM   21  C19 UNL     1      22.716   2.741  48.455  1.00  0.00     0.138 A 
HETATM   22  F1  UNL     1      22.814   2.012  47.312  1.00  0.00    -0.204 F 
HETATM   23  C20 UNL     1      21.902   2.251  49.453  1.00  0.00     0.083 A 
HETATM   24 CL2  UNL     1      21.043   0.733  49.208  1.00  0.00    -0.080 Cl
ENDBRANCH  14  16
ENDBRANCH  13  14
ENDBRANCH   1  13
BRANCH  12  25
HETATM   25  C14 UNL     1      28.801  -1.837  53.274  1.00  0.00     0.200 C 
HETATM   26  N2  UNL     1      28.236  -3.061  52.795  1.00  0.00    -0.272 NA
HETATM   27  H14 UNL     1      27.612  -3.674  53.366  1.00  0.00     0.127 HD
HETATM   28  H15 UNL     1      27.614  -3.665  53.373  1.00  0.00     0.127 HD
HETATM   29  O2  UNL     1      29.716  -2.317  54.021  1.00  0.00    -0.280 OA
ENDBRANCH  12  25
TORSDOF 4
ENDMDL
MODEL 4
REMARK VINA RESULT:      -8.7      6.779      8.053
REMARK  4 active torsions:
REMARK  status: ('A' for Active; 'I' for Inactive)
REMARK    1  A    between atoms: C2_2  and  O1_3 
REMARK    2  A    between atoms: C2_2  and  C15_19 
REMARK    3  A    between atoms: O1_3  and  C3_4 
REMARK    4  A    between atoms: C13_15  and  C14_16 
REMARK       I    between atoms: C14_16  and  N2_17 
ROOT
HETATM    1  C3  UNL     1      24.602   3.939  49.930  1.00  0.00     0.070 A 
HETATM    2  C4  UNL     1      23.682   4.873  49.496  1.00  0.00     0.039 A 
HETATM    3  C5  UNL     1      24.100   5.999  48.815  1.00  0.00     0.035 A 
HETATM    4  C6  UNL     1      25.448   6.166  48.581  1.00  0.00     0.062 A 
HETATM    5  C7  UNL     1      26.391   5.251  49.002  1.00  0.00    -0.026 A 
HETATM    6  C8  UNL     1      25.960   4.126  49.683  1.00  0.00     0.046 A 
HETATM    7  C9  UNL     1      27.846   5.301  48.821  1.00  0.00     0.057 A 
HETATM    8  C10 UNL     1      28.293   6.519  48.085  1.00  0.00     0.010 A 
HETATM    9  C11 UNL     1      27.195   7.419  47.689  1.00  0.00     0.101 A 
HETATM   10  N1  UNL     1      25.923   7.318  47.878  1.00  0.00    -0.264 NA
HETATM   11  C12 UNL     1      29.519   6.522  47.254  1.00  0.00     0.030 A 
HETATM   12  C13 UNL     1      29.546   7.238  48.549  1.00  0.00     0.087 A 
ENDROOT
BRANCH   1  13
HETATM   13  O1  UNL     1      24.029   2.864  50.599  1.00  0.00    -0.342 OA
BRANCH  13  14
HETATM   14  C2  UNL     1      23.197   2.923  51.709  1.00  0.00     0.161 C 
HETATM   15  C1  UNL     1      23.841   3.867  52.719  1.00  0.00     0.045 C 
BRANCH  14  16
HETATM   16  C15 UNL     1      23.110   1.591  52.401  1.00  0.00     0.017 A 
HETATM   17  C16 UNL     1      21.897   1.080  52.840  1.00  0.00     0.044 A 
HETATM   18 CL1  UNL     1      20.441   2.033  52.567  1.00  0.00    -0.084 Cl
HETATM   19  C17 UNL     1      21.808  -0.140  53.475  1.00  0.00     0.028 A 
HETATM   20  C18 UNL     1      22.951  -0.883  53.687  1.00  0.00     0.046 A 
HETATM   21  C19 UNL     1      24.172  -0.380  53.251  1.00  0.00     0.138 A 
HETATM   22  F1  UNL     1      25.334  -1.062  53.429  1.00  0.00    -0.204 F 
HETATM   23  C20 UNL     1      24.242   0.842  52.618  1.00  0.00     0.083 A 
HETATM   24 CL2  UNL     1      25.804   1.451  52.078  1.00  0.00    -0.080 Cl
ENDBRANCH  14  16
ENDBRANCH  13  14
ENDBRANCH   1  13
BRANCH  12  25
HETATM   25  C14 UNL     1      29.548   8.716  48.644  1.00  0.00     0.200 C 
HETATM   26  N2  UNL     1      29.342   9.374  49.897  1.00  0.00    -0.272 NA
HETATM   27  H14 UNL     1      28.446   9.840  50.167  1.00  0.00     0.127 HD
HETATM   28  H15 UNL     1      28.444   9.835  50.156  1.00  0.00     0.127 HD
HETATM   29  O2  UNL     1      29.690   9.740  47.899  1.00  0.00    -0.280 OA
ENDBRANCH  12  25
TORSDOF 4
ENDMDL
MODEL 5
REMARK VINA RESULT:      -8.7      3.328      4.171
REMARK  4 active torsions:
REMARK  status: ('A' for Active; 'I' for Inactive)
REMARK    1  A    between atoms: C2_2  and  O1_3 
REMARK    2  A    between atoms: C2_2  and  C15_19 
REMARK    3  A    between atoms: O1_3  and  C3_4 
REMARK    4  A    between atoms: C13_15  and  C14_16 
REMARK       I    between atoms: C14_16  and  N2_17 
ROOT
HETATM    1  C3  UNL     1      22.317   0.531  52.378  1.00  0.00     0.070 A 
HETATM    2  C4  UNL     1      22.014  -0.332  53.411  1.00  0.00     0.039 A 
HETATM    3  C5  UNL     1      23.012  -0.806  54.239  1.00  0.00     0.035 A 
HETATM    4  C6  UNL     1      24.309  -0.400  54.009  1.00  0.00     0.062 A 
HETATM    5  C7  UNL     1      24.644   0.461  52.984  1.00  0.00    -0.026 A 
HETATM    6  C8  UNL     1      23.635   0.930  52.161  1.00  0.00     0.046 A 
HETATM    7  C9  UNL     1      25.971   0.973  52.628  1.00  0.00     0.057 A 
HETATM    8  C10 UNL     1      27.046   0.457  53.524  1.00  0.00     0.010 A 
HETATM    9  C11 UNL     1      26.564  -0.453  54.579  1.00  0.00     0.101 A 
HETATM   10  N1  UNL     1      25.372  -0.868  54.843  1.00  0.00    -0.264 NA
HETATM   11  C12 UNL     1      28.275   1.238  53.798  1.00  0.00     0.030 A 
HETATM   12  C13 UNL     1      28.376   0.053  52.917  1.00  0.00     0.087 A 
ENDROOT
BRANCH   1  13
HETATM   13  O1  UNL     1      21.209   0.920  51.634  1.00  0.00    -0.342 OA
BRANCH  13  14
HETATM   14  C2  UNL     1      20.786   2.221  51.391  1.00  0.00     0.161 C 
HETATM   15  C1  UNL     1      19.458   2.141  50.644  1.00  0.00     0.045 C 
BRANCH  14  16
HETATM   16  C15 UNL     1      21.726   2.938  50.464  1.00  0.00     0.017 A 
HETATM   17  C16 UNL     1      22.053   2.419  49.219  1.00  0.00     0.044 A 
HETATM   18 CL1  UNL     1      21.337   0.884  48.740  1.00  0.00    -0.084 Cl
HETATM   19  C17 UNL     1      22.914   3.071  48.361  1.00  0.00     0.028 A 
HETATM   20  C18 UNL     1      23.472   4.274  48.741  1.00  0.00     0.046 A 
HETATM   21  C19 UNL     1      23.151   4.802  49.986  1.00  0.00     0.138 A 
HETATM   22  F1  UNL     1      23.668   5.983  50.419  1.00  0.00    -0.204 F 
HETATM   23  C20 UNL     1      22.289   4.138  50.831  1.00  0.00     0.083 A 
HETATM   24 CL2  UNL     1      21.902   4.834  52.402  1.00  0.00    -0.080 Cl
ENDBRANCH  14  16
ENDBRANCH  13  14
ENDBRANCH   1  13
BRANCH  12  25
HETATM   25  C14 UNL     1      29.023  -1.208  53.348  1.00  0.00     0.200 C 
HETATM   26  N2  UNL     1      30.294  -1.196  54.005  1.00  0.00    -0.272 NA
HETATM   27  H14 UNL     1      31.191  -1.460  53.539  1.00  0.00     0.127 HD
HETATM   28  H15 UNL     1      31.182  -1.461  53.530  1.00  0.00     0.127 HD
HETATM   29  O2  UNL     1      28.814  -2.465  53.335  1.00  0.00    -0.280 OA
ENDBRANCH  12  25
TORSDOF 4
ENDMDL
MODEL 6
REMARK VINA RESULT:      -8.6      6.000      9.631
REMARK  4 active torsions:
REMARK  status: ('A' for Active; 'I' for Inactive)
REMARK    1  A    between atoms: C2_2  and  O1_3 
REMARK    2  A    between atoms: C2_2  and  C15_19 
REMARK    3  A    between atoms: O1_3  and  C3_4 
REMARK    4  A    between atoms: C13_15  and  C14_16 
REMARK       I    between atoms: C14_16  and  N2_17 
ROOT
HETATM    1  C3  UNL     1      26.006   2.817  50.672  1.00  0.00     0.070 A 
HETATM    2  C4  UNL     1      26.586   3.989  50.230  1.00  0.00     0.039 A 
HETATM    3  C5  UNL     1      25.871   4.868  49.442  1.00  0.00     0.035 A 
HETATM    4  C6  UNL     1      24.572   4.548  49.109  1.00  0.00     0.062 A 
HETATM    5  C7  UNL     1      23.964   3.385  49.534  1.00  0.00    -0.026 A 
HETATM    6  C8  UNL     1      24.691   2.512  50.324  1.00  0.00     0.046 A 
HETATM    7  C9  UNL     1      22.600   2.923  49.258  1.00  0.00     0.057 A 
HETATM    8  C10 UNL     1      21.831   3.875  48.405  1.00  0.00     0.010 A 
HETATM    9  C11 UNL     1      22.588   5.079  48.015  1.00  0.00     0.101 A 
HETATM   10  N1  UNL     1      23.797   5.432  48.294  1.00  0.00    -0.264 NA
HETATM   11  C12 UNL     1      20.357   3.989  48.496  1.00  0.00     0.030 A 
HETATM   12  C13 UNL     1      20.939   3.323  47.309  1.00  0.00     0.087 A 
ENDROOT
BRANCH   1  13
HETATM   13  O1  UNL     1      26.850   2.037  51.454  1.00  0.00    -0.342 OA
BRANCH  13  14
HETATM   14  C2  UNL     1      26.472   1.048  52.352  1.00  0.00     0.161 C 
HETATM   15  C1  UNL     1      25.874   1.738  53.574  1.00  0.00     0.045 C 
BRANCH  14  16
HETATM   16  C15 UNL     1      27.663   0.288  52.864  1.00  0.00     0.017 A 
HETATM   17  C16 UNL     1      28.750   0.939  53.431  1.00  0.00     0.044 A 
HETATM   18 CL1  UNL     1      28.706   2.696  53.541  1.00  0.00    -0.084 Cl
HETATM   19  C17 UNL     1      29.846   0.250  53.903  1.00  0.00     0.028 A 
HETATM   20  C18 UNL     1      29.876  -1.126  53.815  1.00  0.00     0.046 A 
HETATM   21  C19 UNL     1      28.793  -1.788  53.248  1.00  0.00     0.138 A 
HETATM   22  F1  UNL     1      28.761  -3.142  53.132  1.00  0.00    -0.204 F 
HETATM   23  C20 UNL     1      27.705  -1.084  52.781  1.00  0.00     0.083 A 
HETATM   24 CL2  UNL     1      26.348  -1.953  52.069  1.00  0.00    -0.080 Cl
ENDBRANCH  14  16
ENDBRANCH  13  14
ENDBRANCH   1  13
BRANCH  12  25
HETATM   25  C14 UNL     1      20.953   3.952  45.969  1.00  0.00     0.200 C 
HETATM   26  N2  UNL     1      21.860   3.508  44.955  1.00  0.00    -0.272 NA
HETATM   27  H14 UNL     1      22.722   4.030  44.678  1.00  0.00     0.127 HD
HETATM   28  H15 UNL     1      22.716   4.036  44.687  1.00  0.00     0.127 HD
HETATM   29  O2  UNL     1      20.359   4.873  45.317  1.00  0.00    -0.280 OA
ENDBRANCH  12  25
TORSDOF 4
ENDMDL
MODEL 7
REMARK VINA RESULT:      -8.5      6.710      8.017
REMARK  4 active torsions:
REMARK  status: ('A' for Active; 'I' for Inactive)
REMARK    1  A    between atoms: C2_2  and  O1_3 
REMARK    2  A    between atoms: C2_2  and  C15_19 
REMARK    3  A    between atoms: O1_3  and  C3_4 
REMARK    4  A    between atoms: C13_15  and  C14_16 
REMARK       I    between atoms: C14_16  and  N2_17 
ROOT
HETATM    1  C3  UNL     1      24.963   3.998  49.649  1.00  0.00     0.070 A 
HETATM    2  C4  UNL     1      24.065   4.955  49.223  1.00  0.00     0.039 A 
HETATM    3  C5  UNL     1      24.510   6.097  48.587  1.00  0.00     0.035 A 
HETATM    4  C6  UNL     1      25.865   6.256  48.391  1.00  0.00     0.062 A 
HETATM    5  C7  UNL     1      26.788   5.318  48.805  1.00  0.00    -0.026 A 
HETATM    6  C8  UNL     1      26.330   4.177  49.440  1.00  0.00     0.046 A 
HETATM    7  C9  UNL     1      28.247   5.358  48.661  1.00  0.00     0.057 A 
HETATM    8  C10 UNL     1      28.725   6.593  47.975  1.00  0.00     0.010 A 
HETATM    9  C11 UNL     1      27.645   7.517  47.581  1.00  0.00     0.101 A 
HETATM   10  N1  UNL     1      26.368   7.424  47.737  1.00  0.00    -0.264 NA
HETATM   11  C12 UNL     1      29.970   6.609  47.173  1.00  0.00     0.030 A 
HETATM   12  C13 UNL     1      29.973   7.283  48.491  1.00  0.00     0.087 A 
ENDROOT
BRANCH   1  13
HETATM   13  O1  UNL     1      24.364   2.908  50.269  1.00  0.00    -0.342 OA
BRANCH  13  14
HETATM   14  C2  UNL     1      23.375   2.947  51.244  1.00  0.00     0.161 C 
HETATM   15  C1  UNL     1      23.814   3.948  52.308  1.00  0.00     0.045 C 
BRANCH  14  16
HETATM   16  C15 UNL     1      23.256   1.629  51.957  1.00  0.00     0.017 A 
HETATM   17  C16 UNL     1      24.372   0.969  52.452  1.00  0.00     0.044 A 
HETATM   18 CL1  UNL     1      25.951   1.715  52.226  1.00  0.00    -0.084 Cl
HETATM   19  C17 UNL     1      24.272  -0.239  53.108  1.00  0.00     0.028 A 
HETATM   20  C18 UNL     1      23.033  -0.819  53.282  1.00  0.00     0.046 A 
HETATM   21  C19 UNL     1      21.908  -0.166  52.790  1.00  0.00     0.138 A 
HETATM   22  F1  UNL     1      20.659  -0.685  52.930  1.00  0.00    -0.204 F 
HETATM   23  C20 UNL     1      22.026   1.041  52.137  1.00  0.00     0.083 A 
HETATM   24 CL2  UNL     1      20.582   1.843  51.525  1.00  0.00    -0.080 Cl
ENDBRANCH  14  16
ENDBRANCH  13  14
ENDBRANCH   1  13
BRANCH  12  25
HETATM   25  C14 UNL     1      29.988   8.757  48.632  1.00  0.00     0.200 C 
HETATM   26  N2  UNL     1      29.734   9.379  49.895  1.00  0.00    -0.272 NA
HETATM   27  H14 UNL     1      28.833   9.848  50.140  1.00  0.00     0.127 HD
HETATM   28  H15 UNL     1      28.831   9.843  50.129  1.00  0.00     0.127 HD
HETATM   29  O2  UNL     1      30.175   9.802  47.927  1.00  0.00    -0.280 OA
ENDBRANCH  12  25
TORSDOF 4
ENDMDL
MODEL 8
REMARK VINA RESULT:      -8.3      3.482      4.304
REMARK  4 active torsions:
REMARK  status: ('A' for Active; 'I' for Inactive)
REMARK    1  A    between atoms: C2_2  and  O1_3 
REMARK    2  A    between atoms: C2_2  and  C15_19 
REMARK    3  A    between atoms: O1_3  and  C3_4 
REMARK    4  A    between atoms: C13_15  and  C14_16 
REMARK       I    between atoms: C14_16  and  N2_17 
ROOT
HETATM    1  C3  UNL     1      23.188   1.225  51.956  1.00  0.00     0.070 A 
HETATM    2  C4  UNL     1      22.612   0.464  52.954  1.00  0.00     0.039 A 
HETATM    3  C5  UNL     1      23.403  -0.230  53.846  1.00  0.00     0.035 A 
HETATM    4  C6  UNL     1      24.773  -0.147  53.716  1.00  0.00     0.062 A 
HETATM    5  C7  UNL     1      25.379   0.603  52.730  1.00  0.00    -0.026 A 
HETATM    6  C8  UNL     1      24.575   1.296  51.842  1.00  0.00     0.046 A 
HETATM    7  C9  UNL     1      26.812   0.781  52.478  1.00  0.00     0.057 A 
HETATM    8  C10 UNL     1      27.664   0.027  53.443  1.00  0.00     0.010 A 
HETATM    9  C11 UNL     1      26.902  -0.736  54.448  1.00  0.00     0.101 A 
HETATM   10  N1  UNL     1      25.629  -0.852  54.620  1.00  0.00    -0.264 NA
HETATM   11  C12 UNL     1      29.020   0.492  53.816  1.00  0.00     0.030 A 
HETATM   12  C13 UNL     1      28.900  -0.687  52.930  1.00  0.00     0.087 A 
ENDROOT
BRANCH   1  13
HETATM   13  O1  UNL     1      22.263   1.864  51.139  1.00  0.00    -0.342 OA
BRANCH  13  14
HETATM   14  C2  UNL     1      22.317   3.178  50.690  1.00  0.00     0.161 C 
HETATM   15  C1  UNL     1      21.404   4.009  51.586  1.00  0.00     0.045 C 
BRANCH  14  16
HETATM   16  C15 UNL     1      21.749   3.308  49.305  1.00  0.00     0.017 A 
HETATM   17  C16 UNL     1      20.583   2.651  48.935  1.00  0.00     0.044 A 
HETATM   18 CL1  UNL     1      19.773   1.649  50.135  1.00  0.00    -0.084 Cl
HETATM   19  C17 UNL     1      20.054   2.766  47.667  1.00  0.00     0.028 A 
HETATM   20  C18 UNL     1      20.693   3.552  46.732  1.00  0.00     0.046 A 
HETATM   21  C19 UNL     1      21.861   4.214  47.092  1.00  0.00     0.138 A 
HETATM   22  F1  UNL     1      22.537   5.004  46.216  1.00  0.00    -0.204 F 
HETATM   23  C20 UNL     1      22.376   4.089  48.363  1.00  0.00     0.083 A 
HETATM   24 CL2  UNL     1      23.858   4.942  48.788  1.00  0.00    -0.080 Cl
ENDBRANCH  14  16
ENDBRANCH  13  14
ENDBRANCH   1  13
BRANCH  12  25
HETATM   25  C14 UNL     1      29.193  -2.063  53.390  1.00  0.00     0.200 C 
HETATM   26  N2  UNL     1      28.455  -3.181  52.888  1.00  0.00    -0.272 NA
HETATM   27  H14 UNL     1      27.711  -3.676  53.429  1.00  0.00     0.127 HD
HETATM   28  H15 UNL     1      27.715  -3.667  53.436  1.00  0.00     0.127 HD
HETATM   29  O2  UNL     1      29.979  -2.680  54.183  1.00  0.00    -0.280 OA
ENDBRANCH  12  25
TORSDOF 4
ENDMDL
MODEL 9
REMARK VINA RESULT:      -8.2      4.526      5.515
REMARK  4 active torsions:
REMARK  status: ('A' for Active; 'I' for Inactive)
REMARK    1  A    between atoms: C2_2  and  O1_3 
REMARK    2  A    between atoms: C2_2  and  C15_19 
REMARK    3  A    between atoms: O1_3  and  C3_4 
REMARK    4  A    between atoms: C13_15  and  C14_16 
REMARK       I    between atoms: C14_16  and  N2_17 
ROOT
HETATM    1  C3  UNL     1      23.181   3.085  52.305  1.00  0.00     0.070 A 
HETATM    2  C4  UNL     1      22.231   2.120  52.574  1.00  0.00     0.039 A 
HETATM    3  C5  UNL     1      22.609   0.889  53.071  1.00  0.00     0.035 A 
HETATM    4  C6  UNL     1      23.949   0.649  53.290  1.00  0.00     0.062 A 
HETATM    5  C7  UNL     1      24.921   1.592  53.030  1.00  0.00    -0.026 A 
HETATM    6  C8  UNL     1      24.530   2.822  52.533  1.00  0.00     0.046 A 
HETATM    7  C9  UNL     1      26.371   1.473  53.216  1.00  0.00     0.057 A 
HETATM    8  C10 UNL     1      26.776   0.141  53.752  1.00  0.00     0.010 A 
HETATM    9  C11 UNL     1      25.648  -0.779  53.987  1.00  0.00     0.101 A 
HETATM   10  N1  UNL     1      24.382  -0.614  53.803  1.00  0.00    -0.264 NA
HETATM   11  C12 UNL     1      27.989  -0.030  54.585  1.00  0.00     0.030 A 
HETATM   12  C13 UNL     1      28.016  -0.530  53.192  1.00  0.00     0.087 A 
ENDROOT
BRANCH   1  13
HETATM   13  O1  UNL     1      22.647   4.269  51.810  1.00  0.00    -0.342 OA
BRANCH  13  14
HETATM   14  C2  UNL     1      21.991   4.443  50.598  1.00  0.00     0.161 C 
HETATM   15  C1  UNL     1      22.887   3.873  49.503  1.00  0.00     0.045 C 
BRANCH  14  16
HETATM   16  C15 UNL     1      21.828   5.900  50.267  1.00  0.00     0.017 A 
HETATM   17  C16 UNL     1      22.906   6.775  50.297  1.00  0.00     0.044 A 
HETATM   18 CL1  UNL     1      24.487   6.137  50.736  1.00  0.00    -0.084 Cl
HETATM   19  C17 UNL     1      22.767   8.112  49.994  1.00  0.00     0.028 A 
HETATM   20  C18 UNL     1      21.526   8.607  49.650  1.00  0.00     0.046 A 
HETATM   21  C19 UNL     1      20.440   7.740  49.617  1.00  0.00     0.138 A 
HETATM   22  F1  UNL     1      19.192   8.165  49.287  1.00  0.00    -0.204 F 
HETATM   23  C20 UNL     1      20.597   6.406  49.923  1.00  0.00     0.083 A 
HETATM   24 CL2  UNL     1      19.201   5.332  49.872  1.00  0.00    -0.080 Cl
ENDBRANCH  14  16
ENDBRANCH  13  14
ENDBRANCH   1  13
BRANCH  12  25
HETATM   25  C14 UNL     1      27.981  -1.973  52.863  1.00  0.00     0.200 C 
HETATM   26  N2  UNL     1      28.987  -2.865  53.352  1.00  0.00    -0.272 NA
HETATM   27  H14 UNL     1      29.764  -3.243  52.763  1.00  0.00     0.127 HD
HETATM   28  H15 UNL     1      29.757  -3.235  52.756  1.00  0.00     0.127 HD
HETATM   29  O2  UNL     1      27.272  -2.807  52.209  1.00  0.00    -0.280 OA
ENDBRANCH  12  25
TORSDOF 4
ENDMDL
