MODEL 1
REMARK VINA RESULT:      -8.3      0.000      0.000
REMARK  2 active torsions:
REMARK  status: ('A' for Active; 'I' for Inactive)
REMARK    1  A    between atoms: C3_3  and  C4_4 
REMARK    2  A    between atoms: C7_7  and  C8_8 
ROOT
HETATM    1  C4  UNL     1      21.744   1.420  50.498  1.00  0.00     0.033 C 
HETATM    2  C5  UNL     1      22.907   2.118  50.792  1.00  0.00     0.030 C 
HETATM    3  C6  UNL     1      23.877   1.687  51.861  1.00  0.00     0.013 C 
HETATM    4  C7  UNL     1      23.774   0.871  52.941  1.00  0.00    -0.009 C 
HETATM    5  C15 UNL     1      22.923   0.301  53.938  1.00  0.00     0.088 C 
HETATM    6  C16 UNL     1      22.804  -1.201  54.082  1.00  0.00     0.105 C 
HETATM    7  N2  UNL     1      22.454  -1.242  52.839  1.00  0.00    -0.247 NA
HETATM    8  C17 UNL     1      21.606  -0.031  52.659  1.00  0.00     0.124 C 
HETATM    9  C18 UNL     1      21.495   0.640  53.843  1.00  0.00     0.038 C 
HETATM   10  N3  UNL     1      21.187   0.253  51.269  1.00  0.00    -0.341 N 
HETATM   11  H15 UNL     1      20.531  -0.433  50.934  1.00  0.00     0.167 HD
ENDROOT
BRANCH   4  12
HETATM   12  C8  UNL     1      25.188   0.396  53.157  1.00  0.00     0.106 A 
HETATM   13  N1  UNL     1      25.786  -0.809  52.725  1.00  0.00    -0.240 NA
HETATM   14  C9  UNL     1      27.059  -0.828  53.133  1.00  0.00     0.075 A 
HETATM   15  C10 UNL     1      27.773  -1.980  52.767  1.00  0.00     0.033 A 
HETATM   16  C14 UNL     1      27.732   0.127  53.854  1.00  0.00     0.035 A 
HETATM   17  C11 UNL     1      29.107  -2.064  53.161  1.00  0.00     0.002 A 
HETATM   18  C12 UNL     1      29.800  -1.115  53.885  1.00  0.00     0.002 A 
HETATM   19  C13 UNL     1      29.023  -0.010  54.208  1.00  0.00     0.021 A 
HETATM   20  S1  UNL     1      26.432   1.288  54.032  1.00  0.00    -0.068 SA
ENDBRANCH   4  12
BRANCH   1  21
HETATM   21  C3  UNL     1      20.942   1.715  49.398  1.00  0.00     0.025 C 
HETATM   22  C2  UNL     1      20.821   2.112  48.164  1.00  0.00    -0.029 C 
HETATM   23  C1  UNL     1      22.023   2.470  47.376  1.00  0.00     0.036 C 
ENDBRANCH   1  21
TORSDOF 2
ENDMDL
MODEL 2
REMARK VINA RESULT:      -8.3      2.448      7.149
REMARK  2 active torsions:
REMARK  status: ('A' for Active; 'I' for Inactive)
REMARK    1  A    between atoms: C3_3  and  C4_4 
REMARK    2  A    between atoms: C7_7  and  C8_8 
ROOT
HETATM    1  C4  UNL     1      26.243  -0.455  53.026  1.00  0.00     0.033 C 
HETATM    2  C5  UNL     1      25.269  -0.839  53.937  1.00  0.00     0.030 C 
HETATM    3  C6  UNL     1      23.853  -0.328  53.890  1.00  0.00     0.013 C 
HETATM    4  C7  UNL     1      23.268   0.753  53.313  1.00  0.00    -0.009 C 
HETATM    5  C15 UNL     1      23.425   2.095  52.845  1.00  0.00     0.088 C 
HETATM    6  C16 UNL     1      23.116   2.449  51.406  1.00  0.00     0.105 C 
HETATM    7  N2  UNL     1      23.966   1.542  51.053  1.00  0.00    -0.247 NA
HETATM    8  C17 UNL     1      25.059   1.655  52.058  1.00  0.00     0.124 C 
HETATM    9  C18 UNL     1      24.779   2.661  52.938  1.00  0.00     0.038 C 
HETATM   10  N3  UNL     1      26.109   0.617  51.978  1.00  0.00    -0.341 N 
HETATM   11  H15 UNL     1      26.667   0.720  51.146  1.00  0.00     0.167 HD
ENDROOT
BRANCH   4  12
HETATM   12  C8  UNL     1      21.841   0.315  53.112  1.00  0.00     0.106 A 
HETATM   13  N1  UNL     1      20.929   0.724  52.114  1.00  0.00    -0.240 NA
HETATM   14  C9  UNL     1      19.768   0.087  52.303  1.00  0.00     0.075 A 
HETATM   15  C10 UNL     1      18.767   0.406  51.373  1.00  0.00     0.033 A 
HETATM   16  C14 UNL     1      19.451  -0.821  53.283  1.00  0.00     0.035 A 
HETATM   17  C11 UNL     1      17.532  -0.223  51.515  1.00  0.00     0.002 A 
HETATM   18  C12 UNL     1      17.194  -1.138  52.490  1.00  0.00     0.002 A 
HETATM   19  C13 UNL     1      18.238  -1.398  53.370  1.00  0.00     0.021 A 
HETATM   20  S1  UNL     1      20.987  -0.848  54.126  1.00  0.00    -0.068 SA
ENDBRANCH   4  12
BRANCH   1  21
HETATM   21  C3  UNL     1      27.497  -1.059  52.961  1.00  0.00     0.025 C 
HETATM   22  C2  UNL     1      28.781  -1.020  53.174  1.00  0.00    -0.029 C 
HETATM   23  C1  UNL     1      29.399   0.180  53.781  1.00  0.00     0.036 C 
ENDBRANCH   1  21
TORSDOF 2
ENDMDL
MODEL 3
REMARK VINA RESULT:      -7.8      3.711      6.281
REMARK  2 active torsions:
REMARK  status: ('A' for Active; 'I' for Inactive)
REMARK    1  A    between atoms: C3_3  and  C4_4 
REMARK    2  A    between atoms: C7_7  and  C8_8 
ROOT
HETATM    1  C4  UNL     1      21.925   1.020  52.862  1.00  0.00     0.033 C 
HETATM    2  C5  UNL     1      23.292   1.227  52.735  1.00  0.00     0.030 C 
HETATM    3  C6  UNL     1      23.897   2.072  51.645  1.00  0.00     0.013 C 
HETATM    4  C7  UNL     1      23.448   2.502  50.437  1.00  0.00    -0.009 C 
HETATM    5  C15 UNL     1      22.580   2.265  49.327  1.00  0.00     0.088 C 
HETATM    6  C16 UNL     1      21.549   3.297  48.923  1.00  0.00     0.105 C 
HETATM    7  N2  UNL     1      21.084   3.230  50.127  1.00  0.00    -0.247 NA
HETATM    8  C17 UNL     1      21.194   1.788  50.481  1.00  0.00     0.124 C 
HETATM    9  C18 UNL     1      21.705   1.088  49.425  1.00  0.00     0.038 C 
HETATM   10  N3  UNL     1      20.865   1.448  51.882  1.00  0.00    -0.341 N 
HETATM   11  H15 UNL     1      19.884   1.568  52.070  1.00  0.00     0.167 HD
ENDROOT
BRANCH   4  12
HETATM   12  C8  UNL     1      24.242   3.759  50.196  1.00  0.00     0.106 A 
HETATM   13  N1  UNL     1      25.352   3.947  49.343  1.00  0.00    -0.240 NA
HETATM   14  C9  UNL     1      25.752   5.221  49.430  1.00  0.00     0.075 A 
HETATM   15  C10 UNL     1      26.857   5.543  48.627  1.00  0.00     0.033 A 
HETATM   16  C14 UNL     1      25.219   6.224  50.200  1.00  0.00     0.035 A 
HETATM   17  C11 UNL     1      27.325   6.855  48.672  1.00  0.00     0.002 A 
HETATM   18  C12 UNL     1      26.803   7.877  49.437  1.00  0.00     0.002 A 
HETATM   19  C13 UNL     1      25.715   7.475  50.202  1.00  0.00     0.021 A 
HETATM   20  S1  UNL     1      23.929   5.316  50.963  1.00  0.00    -0.068 SA
ENDBRANCH   4  12
BRANCH   1  21
HETATM   21  C3  UNL     1      21.355   0.390  53.966  1.00  0.00     0.025 C 
HETATM   22  C2  UNL     1      21.414  -0.502  54.911  1.00  0.00    -0.029 C 
HETATM   23  C1  UNL     1      22.602  -1.379  55.033  1.00  0.00     0.036 C 
ENDBRANCH   1  21
TORSDOF 2
ENDMDL
MODEL 4
REMARK VINA RESULT:      -7.8      2.296      7.160
REMARK  2 active torsions:
REMARK  status: ('A' for Active; 'I' for Inactive)
REMARK    1  A    between atoms: C3_3  and  C4_4 
REMARK    2  A    between atoms: C7_7  and  C8_8 
ROOT
HETATM    1  C4  UNL     1      26.589  -0.532  53.007  1.00  0.00     0.033 C 
HETATM    2  C5  UNL     1      25.424  -1.011  53.590  1.00  0.00     0.030 C 
HETATM    3  C6  UNL     1      24.088  -0.334  53.432  1.00  0.00     0.013 C 
HETATM    4  C7  UNL     1      23.713   0.922  53.076  1.00  0.00    -0.009 C 
HETATM    5  C15 UNL     1      24.058   2.308  53.025  1.00  0.00     0.088 C 
HETATM    6  C16 UNL     1      24.075   3.049  51.704  1.00  0.00     0.105 C 
HETATM    7  N2  UNL     1      24.912   2.162  51.276  1.00  0.00    -0.247 NA
HETATM    8  C17 UNL     1      25.781   1.883  52.452  1.00  0.00     0.124 C 
HETATM    9  C18 UNL     1      25.400   2.661  53.507  1.00  0.00     0.038 C 
HETATM   10  N3  UNL     1      26.749   0.778  52.282  1.00  0.00    -0.341 N 
HETATM   11  H15 UNL     1      27.471   1.017  51.622  1.00  0.00     0.167 HD
ENDROOT
BRANCH   4  12
HETATM   12  C8  UNL     1      22.329   0.727  52.512  1.00  0.00     0.106 A 
HETATM   13  N1  UNL     1      21.193   0.172  53.142  1.00  0.00    -0.240 NA
HETATM   14  C9  UNL     1      20.171   0.189  52.280  1.00  0.00     0.075 A 
HETATM   15  C10 UNL     1      18.972  -0.339  52.784  1.00  0.00     0.033 A 
HETATM   16  C14 UNL     1      20.160   0.653  50.988  1.00  0.00     0.035 A 
HETATM   17  C11 UNL     1      17.867  -0.351  51.936  1.00  0.00     0.002 A 
HETATM   18  C12 UNL     1      17.836   0.111  50.636  1.00  0.00     0.002 A 
HETATM   19  C13 UNL     1      19.059   0.615  50.215  1.00  0.00     0.021 A 
HETATM   20  S1  UNL     1      21.829   1.175  50.880  1.00  0.00    -0.068 SA
ENDBRANCH   4  12
BRANCH   1  21
HETATM   21  C3  UNL     1      27.783  -1.249  53.004  1.00  0.00     0.025 C 
HETATM   22  C2  UNL     1      29.068  -1.304  53.210  1.00  0.00    -0.029 C 
HETATM   23  C1  UNL     1      29.797  -0.106  53.686  1.00  0.00     0.036 C 
ENDBRANCH   1  21
TORSDOF 2
ENDMDL
MODEL 5
REMARK VINA RESULT:      -7.7      3.994      7.265
REMARK  2 active torsions:
REMARK  status: ('A' for Active; 'I' for Inactive)
REMARK    1  A    between atoms: C3_3  and  C4_4 
REMARK    2  A    between atoms: C7_7  and  C8_8 
ROOT
HETATM    1  C4  UNL     1      26.845   1.150  53.331  1.00  0.00     0.033 C 
HETATM    2  C5  UNL     1      27.222   1.300  52.003  1.00  0.00     0.030 C 
HETATM    3  C6  UNL     1      26.459   2.152  51.023  1.00  0.00     0.013 C 
HETATM    4  C7  UNL     1      25.192   2.642  50.999  1.00  0.00    -0.009 C 
HETATM    5  C15 UNL     1      23.836   2.483  51.422  1.00  0.00     0.088 C 
HETATM    6  C16 UNL     1      23.142   3.573  52.209  1.00  0.00     0.105 C 
HETATM    7  N2  UNL     1      24.099   3.487  53.074  1.00  0.00    -0.247 NA
HETATM    8  C17 UNL     1      24.399   2.030  53.142  1.00  0.00     0.124 C 
HETATM    9  C18 UNL     1      23.562   1.343  52.309  1.00  0.00     0.038 C 
HETATM   10  N3  UNL     1      25.575   1.658  53.958  1.00  0.00    -0.341 N 
HETATM   11  H15 UNL     1      25.408   1.816  54.938  1.00  0.00     0.167 HD
ENDROOT
BRANCH   4  12
HETATM   12  C8  UNL     1      25.308   3.870  50.134  1.00  0.00     0.106 A 
HETATM   13  N1  UNL     1      26.474   4.568  49.750  1.00  0.00    -0.240 NA
HETATM   14  C9  UNL     1      26.124   5.601  48.977  1.00  0.00     0.075 A 
HETATM   15  C10 UNL     1      27.197   6.384  48.524  1.00  0.00     0.033 A 
HETATM   16  C14 UNL     1      24.862   5.977  48.587  1.00  0.00     0.035 A 
HETATM   17  C11 UNL     1      26.900   7.478  47.714  1.00  0.00     0.002 A 
HETATM   18  C12 UNL     1      25.640   7.871  47.310  1.00  0.00     0.002 A 
HETATM   19  C13 UNL     1      24.636   7.046  47.802  1.00  0.00     0.021 A 
HETATM   20  S1  UNL     1      23.949   4.718  49.395  1.00  0.00    -0.068 SA
ENDBRANCH   4  12
BRANCH   1  21
HETATM   21  C3  UNL     1      27.644   0.511  54.276  1.00  0.00     0.025 C 
HETATM   22  C2  UNL     1      28.722  -0.153  54.578  1.00  0.00    -0.029 C 
HETATM   23  C1  UNL     1      29.710  -0.489  53.527  1.00  0.00     0.036 C 
ENDBRANCH   1  21
TORSDOF 2
ENDMDL
MODEL 6
REMARK VINA RESULT:      -7.5      3.490      6.549
REMARK  2 active torsions:
REMARK  status: ('A' for Active; 'I' for Inactive)
REMARK    1  A    between atoms: C3_3  and  C4_4 
REMARK    2  A    between atoms: C7_7  and  C8_8 
ROOT
HETATM    1  C4  UNL     1      24.825   4.358  49.670  1.00  0.00     0.033 C 
HETATM    2  C5  UNL     1      23.974   3.494  48.995  1.00  0.00     0.030 C 
HETATM    3  C6  UNL     1      23.237   2.369  49.674  1.00  0.00     0.013 C 
HETATM    4  C7  UNL     1      23.417   1.707  50.846  1.00  0.00    -0.009 C 
HETATM    5  C15 UNL     1      24.336   1.282  51.854  1.00  0.00     0.088 C 
HETATM    6  C16 UNL     1      24.130   1.680  53.301  1.00  0.00     0.105 C 
HETATM    7  N2  UNL     1      24.131   2.912  52.909  1.00  0.00    -0.247 NA
HETATM    8  C17 UNL     1      25.165   2.954  51.838  1.00  0.00     0.124 C 
HETATM    9  C18 UNL     1      25.730   1.719  51.689  1.00  0.00     0.038 C 
HETATM   10  N3  UNL     1      25.269   4.232  51.102  1.00  0.00    -0.341 N 
HETATM   11  H15 UNL     1      25.636   4.965  51.686  1.00  0.00     0.167 HD
ENDROOT
BRANCH   4  12
HETATM   12  C8  UNL     1      22.035   1.211  51.184  1.00  0.00     0.106 A 
HETATM   13  N1  UNL     1      21.645   0.340  52.225  1.00  0.00    -0.240 NA
HETATM   14  C9  UNL     1      20.321   0.162  52.165  1.00  0.00     0.075 A 
HETATM   15  C10 UNL     1      19.799  -0.690  53.151  1.00  0.00     0.033 A 
HETATM   16  C14 UNL     1      19.434   0.704  51.267  1.00  0.00     0.035 A 
HETATM   17  C11 UNL     1      18.425  -0.918  53.143  1.00  0.00     0.002 A 
HETATM   18  C12 UNL     1      17.518  -0.383  52.252  1.00  0.00     0.002 A 
HETATM   19  C13 UNL     1      18.114   0.446  51.310  1.00  0.00     0.021 A 
HETATM   20  S1  UNL     1      20.564   1.638  50.309  1.00  0.00    -0.068 SA
ENDBRANCH   4  12
BRANCH   1  21
HETATM   21  C3  UNL     1      25.365   5.500  49.081  1.00  0.00     0.025 C 
HETATM   22  C2  UNL     1      26.380   6.133  48.570  1.00  0.00    -0.029 C 
HETATM   23  C1  UNL     1      27.703   5.474  48.486  1.00  0.00     0.036 C 
ENDBRANCH   1  21
TORSDOF 2
ENDMDL
MODEL 7
REMARK VINA RESULT:      -7.5      9.611     10.794
REMARK  2 active torsions:
REMARK  status: ('A' for Active; 'I' for Inactive)
REMARK    1  A    between atoms: C3_3  and  C4_4 
REMARK    2  A    between atoms: C7_7  and  C8_8 
ROOT
HETATM    1  C4  UNL     1      27.621   7.793  49.136  1.00  0.00     0.033 C 
HETATM    2  C5  UNL     1      27.840   6.915  48.083  1.00  0.00     0.030 C 
HETATM    3  C6  UNL     1      29.182   6.748  47.419  1.00  0.00     0.013 C 
HETATM    4  C7  UNL     1      30.300   7.517  47.365  1.00  0.00    -0.009 C 
HETATM    5  C15 UNL     1      30.855   8.833  47.424  1.00  0.00     0.088 C 
HETATM    6  C16 UNL     1      31.917   9.175  48.448  1.00  0.00     0.105 C 
HETATM    7  N2  UNL     1      31.089   8.785  49.361  1.00  0.00    -0.247 NA
HETATM    8  C17 UNL     1      29.762   9.255  48.876  1.00  0.00     0.124 C 
HETATM    9  C18 UNL     1      29.909   9.925  47.695  1.00  0.00     0.038 C 
HETATM   10  N3  UNL     1      28.598   8.806  49.669  1.00  0.00    -0.341 N 
HETATM   11  H15 UNL     1      28.581   9.240  50.578  1.00  0.00     0.167 HD
ENDROOT
BRANCH   4  12
HETATM   12  C8  UNL     1      31.401   6.518  47.121  1.00  0.00     0.106 A 
HETATM   13  N1  UNL     1      32.209   6.363  45.972  1.00  0.00    -0.240 NA
HETATM   14  C9  UNL     1      33.062   5.354  46.177  1.00  0.00     0.075 A 
HETATM   15  C10 UNL     1      33.928   5.093  45.104  1.00  0.00     0.033 A 
HETATM   16  C14 UNL     1      33.183   4.562  47.292  1.00  0.00     0.035 A 
HETATM   17  C11 UNL     1      34.842   4.052  45.253  1.00  0.00     0.002 A 
HETATM   18  C12 UNL     1      34.981   3.246  46.365  1.00  0.00     0.002 A 
HETATM   19  C13 UNL     1      34.088   3.569  47.379  1.00  0.00     0.021 A 
HETATM   20  S1  UNL     1      31.925   5.288  48.271  1.00  0.00    -0.068 SA
ENDBRANCH   4  12
BRANCH   1  21
HETATM   21  C3  UNL     1      26.432   7.818  49.863  1.00  0.00     0.025 C 
HETATM   22  C2  UNL     1      25.392   7.204  50.346  1.00  0.00    -0.029 C 
HETATM   23  C1  UNL     1      25.206   5.754  50.108  1.00  0.00     0.036 C 
ENDBRANCH   1  21
TORSDOF 2
ENDMDL
MODEL 8
REMARK VINA RESULT:      -7.4      7.807      9.055
REMARK  2 active torsions:
REMARK  status: ('A' for Active; 'I' for Inactive)
REMARK    1  A    between atoms: C3_3  and  C4_4 
REMARK    2  A    between atoms: C7_7  and  C8_8 
ROOT
HETATM    1  C4  UNL     1      25.947   4.113  50.218  1.00  0.00     0.033 C 
HETATM    2  C5  UNL     1      26.935   3.807  49.292  1.00  0.00     0.030 C 
HETATM    3  C6  UNL     1      27.716   4.857  48.547  1.00  0.00     0.013 C 
HETATM    4  C7  UNL     1      27.500   6.171  48.283  1.00  0.00    -0.009 C 
HETATM    5  C15 UNL     1      26.542   7.216  48.099  1.00  0.00     0.088 C 
HETATM    6  C16 UNL     1      26.579   8.457  48.965  1.00  0.00     0.105 C 
HETATM    7  N2  UNL     1      26.492   7.679  49.994  1.00  0.00    -0.247 NA
HETATM    8  C17 UNL     1      25.557   6.605  49.561  1.00  0.00     0.124 C 
HETATM    9  C18 UNL     1      25.132   6.844  48.286  1.00  0.00     0.038 C 
HETATM   10  N3  UNL     1      25.393   5.482  50.509  1.00  0.00    -0.341 N 
HETATM   11  H15 UNL     1      24.905   5.770  51.341  1.00  0.00     0.167 HD
ENDROOT
BRANCH   4  12
HETATM   12  C8  UNL     1      28.889   6.725  48.096  1.00  0.00     0.106 A 
HETATM   13  N1  UNL     1      30.025   6.542  48.914  1.00  0.00    -0.240 NA
HETATM   14  C9  UNL     1      31.053   7.210  48.380  1.00  0.00     0.075 A 
HETATM   15  C10 UNL     1      32.253   7.111  49.100  1.00  0.00     0.033 A 
HETATM   16  C14 UNL     1      31.067   7.967  47.234  1.00  0.00     0.035 A 
HETATM   17  C11 UNL     1      33.364   7.786  48.597  1.00  0.00     0.002 A 
HETATM   18  C12 UNL     1      33.399   8.549  47.449  1.00  0.00     0.002 A 
HETATM   19  C13 UNL     1      32.173   8.597  46.797  1.00  0.00     0.021 A 
HETATM   20  S1  UNL     1      29.394   7.758  46.759  1.00  0.00    -0.068 SA
ENDBRANCH   4  12
BRANCH   1  21
HETATM   21  C3  UNL     1      25.352   3.153  51.034  1.00  0.00     0.025 C 
HETATM   22  C2  UNL     1      25.423   2.037  51.699  1.00  0.00    -0.029 C 
HETATM   23  C1  UNL     1      26.684   1.260  51.718  1.00  0.00     0.036 C 
ENDBRANCH   1  21
TORSDOF 2
ENDMDL
MODEL 9
REMARK VINA RESULT:      -7.3      3.376      5.836
REMARK  2 active torsions:
REMARK  status: ('A' for Active; 'I' for Inactive)
REMARK    1  A    between atoms: C3_3  and  C4_4 
REMARK    2  A    between atoms: C7_7  and  C8_8 
ROOT
HETATM    1  C4  UNL     1      24.695   5.593  49.393  1.00  0.00     0.033 C 
HETATM    2  C5  UNL     1      24.609   5.444  50.771  1.00  0.00     0.030 C 
HETATM    3  C6  UNL     1      23.654   4.487  51.435  1.00  0.00     0.013 C 
HETATM    4  C7  UNL     1      22.518   3.866  51.026  1.00  0.00    -0.009 C 
HETATM    5  C15 UNL     1      21.379   3.894  50.162  1.00  0.00     0.088 C 
HETATM    6  C16 UNL     1      21.120   2.761  49.192  1.00  0.00     0.105 C 
HETATM    7  N2  UNL     1      22.300   2.974  48.708  1.00  0.00    -0.247 NA
HETATM    8  C17 UNL     1      22.444   4.456  48.737  1.00  0.00     0.124 C 
HETATM    9  C18 UNL     1      21.303   5.025  49.226  1.00  0.00     0.038 C 
HETATM   10  N3  UNL     1      23.780   4.973  48.371  1.00  0.00    -0.341 N 
HETATM   11  H15 UNL     1      23.977   4.829  47.395  1.00  0.00     0.167 HD
ENDROOT
BRANCH   4  12
HETATM   12  C8  UNL     1      22.463   2.631  51.888  1.00  0.00     0.106 A 
HETATM   13  N1  UNL     1      21.348   2.067  52.546  1.00  0.00    -0.240 NA
HETATM   14  C9  UNL     1      21.743   0.971  53.203  1.00  0.00     0.075 A 
HETATM   15  C10 UNL     1      20.723   0.310  53.905  1.00  0.00     0.033 A 
HETATM   16  C14 UNL     1      23.004   0.433  53.269  1.00  0.00     0.035 A 
HETATM   17  C11 UNL     1      21.069  -0.839  54.612  1.00  0.00     0.002 A 
HETATM   18  C12 UNL     1      22.329  -1.396  54.691  1.00  0.00     0.002 A 
HETATM   19  C13 UNL     1      23.279  -0.682  53.971  1.00  0.00     0.021 A 
HETATM   20  S1  UNL     1      23.842   1.598  52.264  1.00  0.00    -0.068 SA
ENDBRANCH   4  12
BRANCH   1  21
HETATM   21  C3  UNL     1      25.695   6.342  48.776  1.00  0.00     0.025 C 
HETATM   22  C2  UNL     1      26.916   6.451  48.340  1.00  0.00    -0.029 C 
HETATM   23  C1  UNL     1      27.862   5.321  48.483  1.00  0.00     0.036 C 
ENDBRANCH   1  21
TORSDOF 2
ENDMDL
