MODEL 1
REMARK VINA RESULT:      -8.5      0.000      0.000
REMARK  4 active torsions:
REMARK  status: ('A' for Active; 'I' for Inactive)
REMARK    1  A    between atoms: C2_2  and  C3_3 
REMARK       I    between atoms: C3_3  and  N1_5 
REMARK    2  A    between atoms: N1_5  and  C4_6 
REMARK    3  A    between atoms: C9_13  and  N4_14 
REMARK    4  A    between atoms: N4_14  and  C10_15 
ROOT
HETATM    1  C4  UNL     1      25.124  -0.703  54.280  1.00  0.00     0.036 A 
HETATM    2  C5  UNL     1      24.457  -1.293  55.333  1.00  0.00     0.032 A 
HETATM    3  C6  UNL     1      23.089  -1.280  55.419  1.00  0.00     0.035 A 
HETATM    4  C7  UNL     1      22.364  -0.660  54.429  1.00  0.00     0.072 A 
HETATM    5  N2  UNL     1      21.019  -0.679  54.569  1.00  0.00    -0.241 NA
HETATM    6  C8  UNL     1      20.258  -0.087  53.630  1.00  0.00     0.236 A 
HETATM    7  N3  UNL     1      20.887   0.488  52.606  1.00  0.00    -0.224 NA
HETATM    8  C9  UNL     1      22.196   0.559  52.383  1.00  0.00     0.142 A 
HETATM    9  C16 UNL     1      22.945  -0.044  53.341  1.00  0.00     0.041 A 
HETATM   10  C17 UNL     1      24.318  -0.108  53.339  1.00  0.00     0.047 A 
ENDROOT
BRANCH   8  11
HETATM   11  N4  UNL     1      22.790   1.182  51.282  1.00  0.00    -0.340 N 
HETATM   12  H8  UNL     1      22.915   0.677  50.382  1.00  0.00     0.167 HD
BRANCH  11  13
HETATM   13  C10 UNL     1      23.298   2.499  51.155  1.00  0.00     0.035 A 
HETATM   14  C11 UNL     1      22.692   3.584  51.745  1.00  0.00     0.029 A 
HETATM   15  C12 UNL     1      23.144   4.882  51.654  1.00  0.00     0.004 A 
HETATM   16  C13 UNL     1      24.284   5.155  50.930  1.00  0.00     0.019 A 
HETATM   17  C14 UNL     1      24.927   4.106  50.321  1.00  0.00     0.013 A 
HETATM   18 BR1  UNL     1      26.507   4.413  49.305  1.00  0.00    -0.051 Br
HETATM   19  C15 UNL     1      24.416   2.838  50.456  1.00  0.00     0.048 A 
ENDBRANCH  11  13
ENDBRANCH   8  11
BRANCH   1  20
HETATM   20  N1  UNL     1      26.537  -0.774  54.289  1.00  0.00    -0.324 N 
HETATM   21  C3  UNL     1      27.511   0.209  54.557  1.00  0.00     0.244 C 
HETATM   22  O1  UNL     1      27.115   1.351  54.840  1.00  0.00    -0.268 OA
HETATM   23  H4  UNL     1      26.996  -1.706  54.059  1.00  0.00     0.169 HD
BRANCH  21  24
HETATM   24  C2  UNL     1      28.944  -0.052  54.517  1.00  0.00     0.064 C 
HETATM   25  C1  UNL     1      29.592  -0.821  53.639  1.00  0.00     0.017 C 
ENDBRANCH  21  24
ENDBRANCH   1  20
TORSDOF 4
ENDMDL
MODEL 2
REMARK VINA RESULT:      -7.8      2.153      5.083
REMARK  4 active torsions:
REMARK  status: ('A' for Active; 'I' for Inactive)
REMARK    1  A    between atoms: C2_2  and  C3_3 
REMARK       I    between atoms: C3_3  and  N1_5 
REMARK    2  A    between atoms: N1_5  and  C4_6 
REMARK    3  A    between atoms: C9_13  and  N4_14 
REMARK    4  A    between atoms: N4_14  and  C10_15 
ROOT
HETATM    1  C4  UNL     1      22.701  -0.824  53.773  1.00  0.00     0.036 A 
HETATM    2  C5  UNL     1      23.000  -1.264  55.045  1.00  0.00     0.032 A 
HETATM    3  C6  UNL     1      24.255  -1.128  55.580  1.00  0.00     0.035 A 
HETATM    4  C7  UNL     1      25.242  -0.538  54.827  1.00  0.00     0.072 A 
HETATM    5  N2  UNL     1      26.458  -0.432  55.407  1.00  0.00    -0.241 NA
HETATM    6  C8  UNL     1      27.462   0.138  54.716  1.00  0.00     0.236 A 
HETATM    7  N3  UNL     1      27.191   0.568  53.485  1.00  0.00    -0.224 NA
HETATM    8  C9  UNL     1      26.034   0.509  52.832  1.00  0.00     0.142 A 
HETATM    9  C16 UNL     1      25.035  -0.069  53.546  1.00  0.00     0.041 A 
HETATM   10  C17 UNL     1      23.749  -0.248  53.094  1.00  0.00     0.047 A 
ENDROOT
BRANCH   8  11
HETATM   11  N4  UNL     1      25.820   0.982  51.535  1.00  0.00    -0.340 N 
HETATM   12  H8  UNL     1      25.804   0.334  50.723  1.00  0.00     0.167 HD
BRANCH  11  13
HETATM   13  C10 UNL     1      25.597   2.307  51.082  1.00  0.00     0.035 A 
HETATM   14  C11 UNL     1      26.468   2.953  50.235  1.00  0.00     0.029 A 
HETATM   15  C12 UNL     1      26.299   4.237  49.766  1.00  0.00     0.004 A 
HETATM   16  C13 UNL     1      25.190   4.960  50.148  1.00  0.00     0.019 A 
HETATM   17  C14 UNL     1      24.290   4.359  50.993  1.00  0.00     0.013 A 
HETATM   18 BR1  UNL     1      22.736   5.302  51.561  1.00  0.00    -0.051 Br
HETATM   19  C15 UNL     1      24.526   3.075  51.420  1.00  0.00     0.048 A 
ENDBRANCH  11  13
ENDBRANCH   8  11
BRANCH   1  20
HETATM   20  N1  UNL     1      21.375  -1.013  53.318  1.00  0.00    -0.324 N 
HETATM   21  C3  UNL     1      20.272  -0.136  53.292  1.00  0.00     0.244 C 
HETATM   22  O1  UNL     1      20.438   1.012  53.734  1.00  0.00    -0.268 OA
HETATM   23  H4  UNL     1      21.111  -1.962  52.917  1.00  0.00     0.169 HD
BRANCH  21  24
HETATM   24  C2  UNL     1      18.961  -0.513  52.778  1.00  0.00     0.064 C 
HETATM   25  C1  UNL     1      18.089  -1.345  53.349  1.00  0.00     0.017 C 
ENDBRANCH  21  24
ENDBRANCH   1  20
TORSDOF 4
ENDMDL
MODEL 3
REMARK VINA RESULT:      -7.7      1.725      2.464
REMARK  4 active torsions:
REMARK  status: ('A' for Active; 'I' for Inactive)
REMARK    1  A    between atoms: C2_2  and  C3_3 
REMARK       I    between atoms: C3_3  and  N1_5 
REMARK    2  A    between atoms: N1_5  and  C4_6 
REMARK    3  A    between atoms: C9_13  and  N4_14 
REMARK    4  A    between atoms: N4_14  and  C10_15 
ROOT
HETATM    1  C4  UNL     1      25.352   0.797  52.921  1.00  0.00     0.036 A 
HETATM    2  C5  UNL     1      24.449  -0.218  53.156  1.00  0.00     0.032 A 
HETATM    3  C6  UNL     1      23.095  -0.004  53.115  1.00  0.00     0.035 A 
HETATM    4  C7  UNL     1      22.627   1.257  52.833  1.00  0.00     0.072 A 
HETATM    5  N2  UNL     1      21.284   1.406  52.807  1.00  0.00    -0.241 NA
HETATM    6  C8  UNL     1      20.768   2.620  52.535  1.00  0.00     0.236 A 
HETATM    7  N3  UNL     1      21.627   3.612  52.306  1.00  0.00    -0.224 NA
HETATM    8  C9  UNL     1      22.956   3.563  52.310  1.00  0.00     0.142 A 
HETATM    9  C16 UNL     1      23.455   2.332  52.586  1.00  0.00     0.041 A 
HETATM   10  C17 UNL     1      24.793   2.023  52.648  1.00  0.00     0.047 A 
ENDROOT
BRANCH   8  11
HETATM   11  N4  UNL     1      23.799   4.650  52.060  1.00  0.00    -0.340 N 
HETATM   12  H8  UNL     1      24.190   5.216  52.839  1.00  0.00     0.167 HD
BRANCH  11  13
HETATM   13  C10 UNL     1      24.261   5.168  50.825  1.00  0.00     0.035 A 
HETATM   14  C11 UNL     1      23.467   5.929  50.000  1.00  0.00     0.029 A 
HETATM   15  C12 UNL     1      23.866   6.457  48.792  1.00  0.00     0.004 A 
HETATM   16  C13 UNL     1      25.149   6.230  48.342  1.00  0.00     0.019 A 
HETATM   17  C14 UNL     1      25.983   5.475  49.130  1.00  0.00     0.013 A 
HETATM   18 BR1  UNL     1      27.767   5.123  48.568  1.00  0.00    -0.051 Br
HETATM   19  C15 UNL     1      25.513   4.982  50.322  1.00  0.00     0.048 A 
ENDBRANCH  11  13
ENDBRANCH   8  11
BRANCH   1  20
HETATM   20  N1  UNL     1      26.727   0.469  52.988  1.00  0.00    -0.324 N 
HETATM   21  C3  UNL     1      27.596   0.349  54.092  1.00  0.00     0.244 C 
HETATM   22  O1  UNL     1      27.126   0.557  55.221  1.00  0.00    -0.268 OA
HETATM   23  H4  UNL     1      27.242   0.269  52.080  1.00  0.00     0.169 HD
BRANCH  21  24
HETATM   24  C2  UNL     1      29.004  -0.003  53.966  1.00  0.00     0.064 C 
HETATM   25  C1  UNL     1      29.502  -1.166  53.541  1.00  0.00     0.017 C 
ENDBRANCH  21  24
ENDBRANCH   1  20
TORSDOF 4
ENDMDL
MODEL 4
REMARK VINA RESULT:      -7.6      3.463      5.164
REMARK  4 active torsions:
REMARK  status: ('A' for Active; 'I' for Inactive)
REMARK    1  A    between atoms: C2_2  and  C3_3 
REMARK       I    between atoms: C3_3  and  N1_5 
REMARK    2  A    between atoms: N1_5  and  C4_6 
REMARK    3  A    between atoms: C9_13  and  N4_14 
REMARK    4  A    between atoms: N4_14  and  C10_15 
ROOT
HETATM    1  C4  UNL     1      26.203   1.372  52.058  1.00  0.00     0.036 A 
HETATM    2  C5  UNL     1      24.870   1.219  52.378  1.00  0.00     0.032 A 
HETATM    3  C6  UNL     1      23.895   1.984  51.793  1.00  0.00     0.035 A 
HETATM    4  C7  UNL     1      24.255   2.929  50.863  1.00  0.00     0.072 A 
HETATM    5  N2  UNL     1      23.250   3.652  50.321  1.00  0.00    -0.241 NA
HETATM    6  C8  UNL     1      23.544   4.592  49.404  1.00  0.00     0.236 A 
HETATM    7  N3  UNL     1      24.826   4.754  49.083  1.00  0.00    -0.224 NA
HETATM    8  C9  UNL     1      25.880   4.095  49.558  1.00  0.00     0.142 A 
HETATM    9  C16 UNL     1      25.561   3.153  50.481  1.00  0.00     0.041 A 
HETATM   10  C17 UNL     1      26.469   2.340  51.119  1.00  0.00     0.047 A 
ENDROOT
BRANCH   8  11
HETATM   11  N4  UNL     1      27.205   4.318  49.175  1.00  0.00    -0.340 N 
HETATM   12  H8  UNL     1      27.940   3.602  49.341  1.00  0.00     0.167 HD
BRANCH  11  13
HETATM   13  C10 UNL     1      27.784   5.446  48.541  1.00  0.00     0.035 A 
HETATM   14  C11 UNL     1      29.128   5.524  48.258  1.00  0.00     0.029 A 
HETATM   15  C12 UNL     1      29.740   6.594  47.644  1.00  0.00     0.004 A 
HETATM   16  C13 UNL     1      28.987   7.685  47.268  1.00  0.00     0.019 A 
HETATM   17  C14 UNL     1      27.639   7.656  47.528  1.00  0.00     0.013 A 
HETATM   18 BR1  UNL     1      26.539   9.129  47.035  1.00  0.00    -0.051 Br
HETATM   19  C15 UNL     1      27.099   6.553  48.145  1.00  0.00     0.048 A 
ENDBRANCH  11  13
ENDBRANCH   8  11
BRANCH   1  20
HETATM   20  N1  UNL     1      27.128   0.532  52.721  1.00  0.00    -0.324 N 
HETATM   21  C3  UNL     1      28.066   0.809  53.736  1.00  0.00     0.244 C 
HETATM   22  O1  UNL     1      28.132   1.974  54.158  1.00  0.00    -0.268 OA
HETATM   23  H4  UNL     1      27.166  -0.494  52.443  1.00  0.00     0.169 HD
BRANCH  21  24
HETATM   24  C2  UNL     1      28.950  -0.200  54.305  1.00  0.00     0.064 C 
HETATM   25  C1  UNL     1      29.983  -0.789  53.701  1.00  0.00     0.017 C 
ENDBRANCH  21  24
ENDBRANCH   1  20
TORSDOF 4
ENDMDL
MODEL 5
REMARK VINA RESULT:      -7.6      2.940      5.313
REMARK  4 active torsions:
REMARK  status: ('A' for Active; 'I' for Inactive)
REMARK    1  A    between atoms: C2_2  and  C3_3 
REMARK       I    between atoms: C3_3  and  N1_5 
REMARK    2  A    between atoms: N1_5  and  C4_6 
REMARK    3  A    between atoms: C9_13  and  N4_14 
REMARK    4  A    between atoms: N4_14  and  C10_15 
ROOT
HETATM    1  C4  UNL     1      26.289   2.103  51.847  1.00  0.00     0.036 A 
HETATM    2  C5  UNL     1      26.590   2.592  50.594  1.00  0.00     0.032 A 
HETATM    3  C6  UNL     1      25.616   3.044  49.741  1.00  0.00     0.035 A 
HETATM    4  C7  UNL     1      24.304   3.008  50.148  1.00  0.00     0.072 A 
HETATM    5  N2  UNL     1      23.389   3.466  49.264  1.00  0.00    -0.241 NA
HETATM    6  C8  UNL     1      22.088   3.454  49.609  1.00  0.00     0.236 A 
HETATM    7  N3  UNL     1      21.779   2.985  50.817  1.00  0.00    -0.224 NA
HETATM    8  C9  UNL     1      22.602   2.516  51.749  1.00  0.00     0.142 A 
HETATM    9  C16 UNL     1      23.909   2.536  51.382  1.00  0.00     0.041 A 
HETATM   10  C17 UNL     1      24.952   2.105  52.168  1.00  0.00     0.047 A 
ENDROOT
BRANCH   8  11
HETATM   11  N4  UNL     1      22.207   2.037  53.001  1.00  0.00    -0.340 N 
HETATM   12  H8  UNL     1      22.301   2.623  53.854  1.00  0.00     0.167 HD
BRANCH  11  13
HETATM   13  C10 UNL     1      21.649   0.782  53.353  1.00  0.00     0.035 A 
HETATM   14  C11 UNL     1      22.382  -0.204  53.970  1.00  0.00     0.029 A 
HETATM   15  C12 UNL     1      21.889  -1.438  54.334  1.00  0.00     0.004 A 
HETATM   16  C13 UNL     1      20.570  -1.745  54.079  1.00  0.00     0.019 A 
HETATM   17  C14 UNL     1      19.795  -0.793  53.463  1.00  0.00     0.013 A 
HETATM   18 BR1  UNL     1      17.965  -1.151  53.081  1.00  0.00    -0.051 Br
HETATM   19  C15 UNL     1      20.357   0.415  53.130  1.00  0.00     0.048 A 
ENDBRANCH  11  13
ENDBRANCH   8  11
BRANCH   1  20
HETATM   20  N1  UNL     1      27.369   1.663  52.647  1.00  0.00    -0.324 N 
HETATM   21  C3  UNL     1      27.795   0.364  52.991  1.00  0.00     0.244 C 
HETATM   22  O1  UNL     1      27.146  -0.594  52.542  1.00  0.00    -0.268 OA
HETATM   23  H4  UNL     1      28.000   2.395  53.090  1.00  0.00     0.169 HD
BRANCH  21  24
HETATM   24  C2  UNL     1      28.949   0.099  53.841  1.00  0.00     0.064 C 
HETATM   25  C1  UNL     1      29.953  -0.742  53.585  1.00  0.00     0.017 C 
ENDBRANCH  21  24
ENDBRANCH   1  20
TORSDOF 4
ENDMDL
MODEL 6
REMARK VINA RESULT:      -7.4      3.471      5.408
REMARK  4 active torsions:
REMARK  status: ('A' for Active; 'I' for Inactive)
REMARK    1  A    between atoms: C2_2  and  C3_3 
REMARK       I    between atoms: C3_3  and  N1_5 
REMARK    2  A    between atoms: N1_5  and  C4_6 
REMARK    3  A    between atoms: C9_13  and  N4_14 
REMARK    4  A    between atoms: N4_14  and  C10_15 
ROOT
HETATM    1  C4  UNL     1      26.207   2.407  51.659  1.00  0.00     0.036 A 
HETATM    2  C5  UNL     1      27.167   1.577  52.198  1.00  0.00     0.032 A 
HETATM    3  C6  UNL     1      26.840   0.533  53.023  1.00  0.00     0.035 A 
HETATM    4  C7  UNL     1      25.517   0.307  53.321  1.00  0.00     0.072 A 
HETATM    5  N2  UNL     1      25.256  -0.736  54.140  1.00  0.00    -0.241 NA
HETATM    6  C8  UNL     1      23.978  -1.004  54.466  1.00  0.00     0.236 A 
HETATM    7  N3  UNL     1      23.037  -0.213  53.955  1.00  0.00    -0.224 NA
HETATM    8  C9  UNL     1      23.194   0.831  53.146  1.00  0.00     0.142 A 
HETATM    9  C16 UNL     1      24.489   1.084  52.830  1.00  0.00     0.041 A 
HETATM   10  C17 UNL     1      24.913   2.106  52.012  1.00  0.00     0.047 A 
ENDROOT
BRANCH   8  11
HETATM   11  N4  UNL     1      22.156   1.621  52.645  1.00  0.00    -0.340 N 
HETATM   12  H8  UNL     1      22.141   2.649  52.799  1.00  0.00     0.167 HD
BRANCH  11  13
HETATM   13  C10 UNL     1      21.014   1.243  51.896  1.00  0.00     0.035 A 
HETATM   14  C11 UNL     1      20.857   1.577  50.571  1.00  0.00     0.029 A 
HETATM   15  C12 UNL     1      19.770   1.235  49.798  1.00  0.00     0.004 A 
HETATM   16  C13 UNL     1      18.744   0.503  50.354  1.00  0.00     0.019 A 
HETATM   17  C14 UNL     1      18.852   0.143  51.675  1.00  0.00     0.013 A 
HETATM   18 BR1  UNL     1      17.471  -0.868  52.507  1.00  0.00    -0.051 Br
HETATM   19  C15 UNL     1      19.968   0.522  52.383  1.00  0.00     0.048 A 
ENDBRANCH  11  13
ENDBRANCH   8  11
BRANCH   1  20
HETATM   20  N1  UNL     1      26.653   3.455  50.820  1.00  0.00    -0.324 N 
HETATM   21  C3  UNL     1      26.084   4.015  49.658  1.00  0.00     0.244 C 
HETATM   22  O1  UNL     1      25.007   3.544  49.258  1.00  0.00    -0.268 OA
HETATM   23  H4  UNL     1      27.569   3.937  51.061  1.00  0.00     0.169 HD
BRANCH  21  24
HETATM   24  C2  UNL     1      26.698   5.107  48.913  1.00  0.00     0.064 C 
HETATM   25  C1  UNL     1      27.968   5.186  48.512  1.00  0.00     0.017 C 
ENDBRANCH  21  24
ENDBRANCH   1  20
TORSDOF 4
ENDMDL
MODEL 7
REMARK VINA RESULT:      -7.4      2.773      4.737
REMARK  4 active torsions:
REMARK  status: ('A' for Active; 'I' for Inactive)
REMARK    1  A    between atoms: C2_2  and  C3_3 
REMARK       I    between atoms: C3_3  and  N1_5 
REMARK    2  A    between atoms: N1_5  and  C4_6 
REMARK    3  A    between atoms: C9_13  and  N4_14 
REMARK    4  A    between atoms: N4_14  and  C10_15 
ROOT
HETATM    1  C4  UNL     1      26.478   2.293  51.800  1.00  0.00     0.036 A 
HETATM    2  C5  UNL     1      27.490   1.489  52.280  1.00  0.00     0.032 A 
HETATM    3  C6  UNL     1      27.238   0.438  53.123  1.00  0.00     0.035 A 
HETATM    4  C7  UNL     1      25.942   0.180  53.500  1.00  0.00     0.072 A 
HETATM    5  N2  UNL     1      25.756  -0.868  54.333  1.00  0.00    -0.241 NA
HETATM    6  C8  UNL     1      24.507  -1.168  54.735  1.00  0.00     0.236 A 
HETATM    7  N3  UNL     1      23.518  -0.400  54.281  1.00  0.00    -0.224 NA
HETATM    8  C9  UNL     1      23.600   0.646  53.465  1.00  0.00     0.142 A 
HETATM    9  C16 UNL     1      24.867   0.930  53.071  1.00  0.00     0.041 A 
HETATM   10  C17 UNL     1      25.215   1.961  52.230  1.00  0.00     0.047 A 
ENDROOT
BRANCH   8  11
HETATM   11  N4  UNL     1      22.515   1.409  53.027  1.00  0.00    -0.340 N 
HETATM   12  H8  UNL     1      22.148   2.197  53.596  1.00  0.00     0.167 HD
BRANCH  11  13
HETATM   13  C10 UNL     1      21.752   1.296  51.837  1.00  0.00     0.035 A 
HETATM   14  C11 UNL     1      20.463   0.817  51.830  1.00  0.00     0.029 A 
HETATM   15  C12 UNL     1      19.679   0.688  50.704  1.00  0.00     0.004 A 
HETATM   16  C13 UNL     1      20.187   1.055  49.477  1.00  0.00     0.019 A 
HETATM   17  C14 UNL     1      21.470   1.541  49.430  1.00  0.00     0.013 A 
HETATM   18 BR1  UNL     1      22.233   2.067  47.768  1.00  0.00    -0.051 Br
HETATM   19  C15 UNL     1      22.192   1.641  50.596  1.00  0.00     0.048 A 
ENDBRANCH  11  13
ENDBRANCH   8  11
BRANCH   1  20
HETATM   20  N1  UNL     1      26.847   3.351  50.935  1.00  0.00    -0.324 N 
HETATM   21  C3  UNL     1      26.226   3.856  49.775  1.00  0.00     0.244 C 
HETATM   22  O1  UNL     1      25.172   3.317  49.403  1.00  0.00    -0.268 OA
HETATM   23  H4  UNL     1      27.738   3.890  51.152  1.00  0.00     0.169 HD
BRANCH  21  24
HETATM   24  C2  UNL     1      26.762   4.969  49.001  1.00  0.00     0.064 C 
HETATM   25  C1  UNL     1      28.007   5.096  48.541  1.00  0.00     0.017 C 
ENDBRANCH  21  24
ENDBRANCH   1  20
TORSDOF 4
ENDMDL
MODEL 8
REMARK VINA RESULT:      -7.2      3.005      5.255
REMARK  4 active torsions:
REMARK  status: ('A' for Active; 'I' for Inactive)
REMARK    1  A    between atoms: C2_2  and  C3_3 
REMARK       I    between atoms: C3_3  and  N1_5 
REMARK    2  A    between atoms: N1_5  and  C4_6 
REMARK    3  A    between atoms: C9_13  and  N4_14 
REMARK    4  A    between atoms: N4_14  and  C10_15 
ROOT
HETATM    1  C4  UNL     1      26.174   2.132  51.535  1.00  0.00     0.036 A 
HETATM    2  C5  UNL     1      26.764   2.649  50.402  1.00  0.00     0.032 A 
HETATM    3  C6  UNL     1      26.089   3.490  49.555  1.00  0.00     0.035 A 
HETATM    4  C7  UNL     1      24.788   3.825  49.845  1.00  0.00     0.072 A 
HETATM    5  N2  UNL     1      24.174   4.657  48.974  1.00  0.00    -0.241 NA
HETATM    6  C8  UNL     1      22.900   5.020  49.208  1.00  0.00     0.236 A 
HETATM    7  N3  UNL     1      22.314   4.529  50.299  1.00  0.00    -0.224 NA
HETATM    8  C9  UNL     1      22.832   3.709  51.209  1.00  0.00     0.142 A 
HETATM    9  C16 UNL     1      24.117   3.356  50.955  1.00  0.00     0.041 A 
HETATM   10  C17 UNL     1      24.873   2.522  51.744  1.00  0.00     0.047 A 
ENDROOT
BRANCH   8  11
HETATM   11  N4  UNL     1      22.156   3.231  52.335  1.00  0.00    -0.340 N 
HETATM   12  H8  UNL     1      22.197   3.739  53.242  1.00  0.00     0.167 HD
BRANCH  11  13
HETATM   13  C10 UNL     1      21.350   2.075  52.482  1.00  0.00     0.035 A 
HETATM   14  C11 UNL     1      20.106   1.964  51.905  1.00  0.00     0.029 A 
HETATM   15  C12 UNL     1      19.284   0.865  52.014  1.00  0.00     0.004 A 
HETATM   16  C13 UNL     1      19.702  -0.226  52.746  1.00  0.00     0.019 A 
HETATM   17  C14 UNL     1      20.937  -0.165  53.343  1.00  0.00     0.013 A 
HETATM   18 BR1  UNL     1      21.576  -1.636  54.369  1.00  0.00    -0.051 Br
HETATM   19  C15 UNL     1      21.701   0.966  53.189  1.00  0.00     0.048 A 
ENDBRANCH  11  13
ENDBRANCH   8  11
BRANCH   1  20
HETATM   20  N1  UNL     1      26.960   1.274  52.340  1.00  0.00    -0.324 N 
HETATM   21  C3  UNL     1      28.134   1.519  53.081  1.00  0.00     0.244 C 
HETATM   22  O1  UNL     1      28.600   2.669  53.059  1.00  0.00    -0.268 OA
HETATM   23  H4  UNL     1      26.660   0.258  52.436  1.00  0.00     0.169 HD
BRANCH  21  24
HETATM   24  C2  UNL     1      28.816   0.495  53.863  1.00  0.00     0.064 C 
HETATM   25  C1  UNL     1      28.965  -0.790  53.538  1.00  0.00     0.017 C 
ENDBRANCH  21  24
ENDBRANCH   1  20
TORSDOF 4
ENDMDL
MODEL 9
REMARK VINA RESULT:      -7.2      3.569      6.290
REMARK  4 active torsions:
REMARK  status: ('A' for Active; 'I' for Inactive)
REMARK    1  A    between atoms: C2_2  and  C3_3 
REMARK       I    between atoms: C3_3  and  N1_5 
REMARK    2  A    between atoms: N1_5  and  C4_6 
REMARK    3  A    between atoms: C9_13  and  N4_14 
REMARK    4  A    between atoms: N4_14  and  C10_15 
ROOT
HETATM    1  C4  UNL     1      22.714   2.398  50.995  1.00  0.00     0.036 A 
HETATM    2  C5  UNL     1      22.604   1.933  52.288  1.00  0.00     0.032 A 
HETATM    3  C6  UNL     1      23.705   1.726  53.077  1.00  0.00     0.035 A 
HETATM    4  C7  UNL     1      24.953   1.990  52.565  1.00  0.00     0.072 A 
HETATM    5  N2  UNL     1      26.000   1.767  53.390  1.00  0.00    -0.241 NA
HETATM    6  C8  UNL     1      27.246   2.008  52.942  1.00  0.00     0.236 A 
HETATM    7  N3  UNL     1      27.371   2.458  51.695  1.00  0.00    -0.224 NA
HETATM    8  C9  UNL     1      26.408   2.706  50.812  1.00  0.00     0.142 A 
HETATM    9  C16 UNL     1      25.160   2.457  51.284  1.00  0.00     0.041 A 
HETATM   10  C17 UNL     1      24.000   2.634  50.568  1.00  0.00     0.047 A 
ENDROOT
BRANCH   8  11
HETATM   11  N4  UNL     1      26.612   3.180  49.513  1.00  0.00    -0.340 N 
HETATM   12  H8  UNL     1      26.639   2.530  48.703  1.00  0.00     0.167 HD
BRANCH  11  13
HETATM   13  C10 UNL     1      26.806   4.507  49.056  1.00  0.00     0.035 A 
HETATM   14  C11 UNL     1      25.793   5.436  49.035  1.00  0.00     0.029 A 
HETATM   15  C12 UNL     1      25.928   6.737  48.603  1.00  0.00     0.004 A 
HETATM   16  C13 UNL     1      27.152   7.179  48.150  1.00  0.00     0.019 A 
HETATM   17  C14 UNL     1      28.198   6.289  48.150  1.00  0.00     0.013 A 
HETATM   18 BR1  UNL     1      29.916   6.833  47.538  1.00  0.00    -0.051 Br
HETATM   19  C15 UNL     1      27.986   5.007  48.597  1.00  0.00     0.048 A 
ENDBRANCH  11  13
ENDBRANCH   8  11
BRANCH   1  20
HETATM   20  N1  UNL     1      21.515   2.577  50.266  1.00  0.00    -0.324 N 
HETATM   21  C3  UNL     1      21.022   1.918  49.122  1.00  0.00     0.244 C 
HETATM   22  O1  UNL     1      21.720   1.020  48.627  1.00  0.00    -0.268 OA
HETATM   23  H4  UNL     1      20.832   3.323  50.595  1.00  0.00     0.169 HD
BRANCH  21  24
HETATM   24  C2  UNL     1      19.744   2.243  48.500  1.00  0.00     0.064 C 
HETATM   25  C1  UNL     1      19.542   3.069  47.472  1.00  0.00     0.017 C 
ENDBRANCH  21  24
ENDBRANCH   1  20
TORSDOF 4
ENDMDL
