MODEL 1
REMARK VINA RESULT:      -8.3      0.000      0.000
REMARK  8 active torsions:
REMARK  status: ('A' for Active; 'I' for Inactive)
REMARK    1  A    between atoms: O1_2  and  C2_3 
REMARK    2  A    between atoms: C6_9  and  N3_10 
REMARK    3  A    between atoms: N3_10  and  C7_11 
REMARK    4  A    between atoms: C15_21  and  O2_22 
REMARK    5  A    between atoms: O2_22  and  C16_23 
REMARK    6  A    between atoms: C16_23  and  C17_24 
REMARK    7  A    between atoms: C17_24  and  C18_25 
REMARK    8  A    between atoms: C18_25  and  N4_26 
ROOT
HETATM    1  C2  UNL     1      19.971   0.158  52.160  1.00  0.00     0.103 A 
HETATM    2  C3  UNL     1      20.219  -0.516  53.364  1.00  0.00     0.072 A 
HETATM    3  C4  UNL     1      21.514  -0.652  53.815  1.00  0.00     0.075 A 
HETATM    4  N1  UNL     1      21.682  -1.309  54.977  1.00  0.00    -0.241 NA
HETATM    5  C5  UNL     1      22.914  -1.482  55.479  1.00  0.00     0.236 A 
HETATM    6  N2  UNL     1      23.941  -0.982  54.789  1.00  0.00    -0.224 NA
HETATM    7  C6  UNL     1      23.866  -0.320  53.634  1.00  0.00     0.142 A 
HETATM    8  C13 UNL     1      22.606  -0.154  53.140  1.00  0.00     0.042 A 
HETATM    9  C14 UNL     1      22.292   0.490  51.973  1.00  0.00     0.057 A 
HETATM   10  C15 UNL     1      21.045   0.686  51.427  1.00  0.00     0.103 A 
ENDROOT
BRANCH   7  11
HETATM   11  N3  UNL     1      24.969   0.200  52.917  1.00  0.00    -0.340 N 
HETATM   12  H6  UNL     1      24.843   0.821  52.119  1.00  0.00     0.167 HD
BRANCH  11  13
HETATM   13  C7  UNL     1      26.358  -0.000  53.118  1.00  0.00     0.035 A 
HETATM   14  C8  UNL     1      27.044  -1.187  52.852  1.00  0.00     0.032 A 
HETATM   15  C9  UNL     1      28.391  -1.337  53.065  1.00  0.00     0.046 A 
HETATM   16  C10 UNL     1      29.155  -0.308  53.561  1.00  0.00     0.138 A 
HETATM   17  F1  UNL     1      30.472  -0.568  53.730  1.00  0.00    -0.204 F 
HETATM   18  C11 UNL     1      28.520   0.885  53.838  1.00  0.00     0.074 A 
HETATM   19 CL1  UNL     1      29.534   2.165  54.468  1.00  0.00    -0.081 Cl
HETATM   20  C12 UNL     1      27.167   0.995  53.611  1.00  0.00     0.056 A 
ENDBRANCH  11  13
ENDBRANCH   7  11
BRANCH  10  21
HETATM   21  O2  UNL     1      20.631   1.298  50.305  1.00  0.00    -0.348 OA
BRANCH  21  22
HETATM   22  C16 UNL     1      21.089   1.316  49.014  1.00  0.00     0.177 C 
BRANCH  22  23
HETATM   23  C17 UNL     1      22.348   2.109  48.748  1.00  0.00     0.046 C 
BRANCH  23  24
HETATM   24  C18 UNL     1      22.261   3.495  49.358  1.00  0.00     0.121 C 
BRANCH  24  25
HETATM   25  N4  UNL     1      23.421   3.774  50.107  1.00  0.00    -0.390 N 
HETATM   26  C19 UNL     1      24.663   3.274  49.643  1.00  0.00     0.145 C 
HETATM   27  C20 UNL     1      25.502   3.190  50.908  1.00  0.00     0.189 C 
HETATM   28  O3  UNL     1      24.638   3.255  51.972  1.00  0.00    -0.371 OA
HETATM   29  C21 UNL     1      23.374   3.639  51.517  1.00  0.00     0.287 C 
ENDBRANCH  24  25
ENDBRANCH  23  24
ENDBRANCH  22  23
ENDBRANCH  21  22
ENDBRANCH  10  21
BRANCH   1  30
HETATM   30  O1  UNL     1      18.646   0.269  51.746  1.00  0.00    -0.353 OA
HETATM   31  C1  UNL     1      17.704  -0.613  52.317  1.00  0.00     0.210 C 
ENDBRANCH   1  30
TORSDOF 8
ENDMDL
MODEL 2
REMARK VINA RESULT:      -7.8      2.127      5.000
REMARK  8 active torsions:
REMARK  status: ('A' for Active; 'I' for Inactive)
REMARK    1  A    between atoms: O1_2  and  C2_3 
REMARK    2  A    between atoms: C6_9  and  N3_10 
REMARK    3  A    between atoms: N3_10  and  C7_11 
REMARK    4  A    between atoms: C15_21  and  O2_22 
REMARK    5  A    between atoms: O2_22  and  C16_23 
REMARK    6  A    between atoms: C16_23  and  C17_24 
REMARK    7  A    between atoms: C17_24  and  C18_25 
REMARK    8  A    between atoms: C18_25  and  N4_26 
ROOT
HETATM    1  C2  UNL     1      22.185   4.502  50.811  1.00  0.00     0.103 A 
HETATM    2  C3  UNL     1      23.302   4.796  50.015  1.00  0.00     0.072 A 
HETATM    3  C4  UNL     1      24.484   4.118  50.221  1.00  0.00     0.075 A 
HETATM    4  N1  UNL     1      25.515   4.450  49.425  1.00  0.00    -0.241 NA
HETATM    5  C5  UNL     1      26.699   3.834  49.566  1.00  0.00     0.236 A 
HETATM    6  N2  UNL     1      26.802   2.898  50.513  1.00  0.00    -0.224 NA
HETATM    7  C6  UNL     1      25.835   2.509  51.343  1.00  0.00     0.142 A 
HETATM    8  C13 UNL     1      24.640   3.146  51.183  1.00  0.00     0.042 A 
HETATM    9  C14 UNL     1      23.512   2.910  51.923  1.00  0.00     0.057 A 
HETATM   10  C15 UNL     1      22.284   3.520  51.808  1.00  0.00     0.103 A 
ENDROOT
BRANCH   7  11
HETATM   11  N3  UNL     1      25.966   1.515  52.342  1.00  0.00    -0.340 N 
HETATM   12  H6  UNL     1      25.161   1.172  52.863  1.00  0.00     0.167 HD
BRANCH  11  13
HETATM   13  C7  UNL     1      27.123   0.838  52.802  1.00  0.00     0.035 A 
HETATM   14  C8  UNL     1      28.229   1.451  53.395  1.00  0.00     0.032 A 
HETATM   15  C9  UNL     1      29.331   0.755  53.824  1.00  0.00     0.046 A 
HETATM   16  C10 UNL     1      29.410  -0.611  53.691  1.00  0.00     0.138 A 
HETATM   17  F1  UNL     1      30.542  -1.191  54.149  1.00  0.00    -0.204 F 
HETATM   18  C11 UNL     1      28.340  -1.260  53.110  1.00  0.00     0.074 A 
HETATM   19 CL1  UNL     1      28.488  -2.997  52.961  1.00  0.00    -0.081 Cl
HETATM   20  C12 UNL     1      27.253  -0.525  52.693  1.00  0.00     0.056 A 
ENDBRANCH  11  13
ENDBRANCH   7  11
BRANCH  10  21
HETATM   21  O2  UNL     1      21.127   3.363  52.472  1.00  0.00    -0.348 OA
BRANCH  21  22
HETATM   22  C16 UNL     1      20.021   2.580  52.273  1.00  0.00     0.177 C 
BRANCH  22  23
HETATM   23  C17 UNL     1      20.250   1.090  52.172  1.00  0.00     0.046 C 
BRANCH  23  24
HETATM   24  C18 UNL     1      20.346   0.455  53.547  1.00  0.00     0.121 C 
BRANCH  24  25
HETATM   25  N4  UNL     1      21.463  -0.401  53.614  1.00  0.00    -0.390 N 
HETATM   26  C19 UNL     1      22.040  -0.662  54.882  1.00  0.00     0.145 C 
HETATM   27  C20 UNL     1      23.475  -1.034  54.543  1.00  0.00     0.189 C 
HETATM   28  O3  UNL     1      23.712  -0.605  53.262  1.00  0.00    -0.371 OA
HETATM   29  C21 UNL     1      22.502  -0.246  52.664  1.00  0.00     0.287 C 
ENDBRANCH  24  25
ENDBRANCH  23  24
ENDBRANCH  22  23
ENDBRANCH  21  22
ENDBRANCH  10  21
BRANCH   1  30
HETATM   30  O1  UNL     1      21.014   5.213  50.564  1.00  0.00    -0.353 OA
HETATM   31  C1  UNL     1      21.106   6.618  50.472  1.00  0.00     0.210 C 
ENDBRANCH   1  30
TORSDOF 8
ENDMDL
MODEL 3
REMARK VINA RESULT:      -7.7      2.141      2.444
REMARK  8 active torsions:
REMARK  status: ('A' for Active; 'I' for Inactive)
REMARK    1  A    between atoms: O1_2  and  C2_3 
REMARK    2  A    between atoms: C6_9  and  N3_10 
REMARK    3  A    between atoms: N3_10  and  C7_11 
REMARK    4  A    between atoms: C15_21  and  O2_22 
REMARK    5  A    between atoms: O2_22  and  C16_23 
REMARK    6  A    between atoms: C16_23  and  C17_24 
REMARK    7  A    between atoms: C17_24  and  C18_25 
REMARK    8  A    between atoms: C18_25  and  N4_26 
ROOT
HETATM    1  C2  UNL     1      20.553   2.752  52.385  1.00  0.00     0.103 A 
HETATM    2  C3  UNL     1      20.469   1.629  53.220  1.00  0.00     0.072 A 
HETATM    3  C4  UNL     1      21.579   0.835  53.409  1.00  0.00     0.075 A 
HETATM    4  N1  UNL     1      21.429  -0.226  54.222  1.00  0.00    -0.241 NA
HETATM    5  C5  UNL     1      22.465  -1.047  54.453  1.00  0.00     0.236 A 
HETATM    6  N2  UNL     1      23.624  -0.767  53.854  1.00  0.00    -0.224 NA
HETATM    7  C6  UNL     1      23.860   0.259  53.036  1.00  0.00     0.142 A 
HETATM    8  C13 UNL     1      22.795   1.082  52.814  1.00  0.00     0.042 A 
HETATM    9  C14 UNL     1      22.807   2.191  52.012  1.00  0.00     0.057 A 
HETATM   10  C15 UNL     1      21.768   3.054  51.750  1.00  0.00     0.103 A 
ENDROOT
BRANCH   7  11
HETATM   11  N3  UNL     1      25.097   0.537  52.409  1.00  0.00    -0.340 N 
HETATM   12  H6  UNL     1      25.148   1.051  51.531  1.00  0.00     0.167 HD
BRANCH  11  13
HETATM   13  C7  UNL     1      26.414   0.200  52.811  1.00  0.00     0.035 A 
HETATM   14  C8  UNL     1      26.993  -1.065  52.685  1.00  0.00     0.032 A 
HETATM   15  C9  UNL     1      28.273  -1.347  53.091  1.00  0.00     0.046 A 
HETATM   16  C10 UNL     1      29.072  -0.382  53.655  1.00  0.00     0.138 A 
HETATM   17  F1  UNL     1      30.315  -0.772  54.017  1.00  0.00    -0.204 F 
HETATM   18  C11 UNL     1      28.543   0.884  53.800  1.00  0.00     0.074 A 
HETATM   19 CL1  UNL     1      29.599   2.077  54.524  1.00  0.00    -0.081 Cl
HETATM   20  C12 UNL     1      27.255   1.126  53.380  1.00  0.00     0.056 A 
ENDBRANCH  11  13
ENDBRANCH   7  11
BRANCH  10  21
HETATM   21  O2  UNL     1      21.674   4.159  50.991  1.00  0.00    -0.348 OA
BRANCH  21  22
HETATM   22  C16 UNL     1      21.830   4.402  49.652  1.00  0.00     0.177 C 
BRANCH  22  23
HETATM   23  C17 UNL     1      23.008   5.256  49.246  1.00  0.00     0.046 C 
BRANCH  23  24
HETATM   24  C18 UNL     1      24.320   4.550  49.529  1.00  0.00     0.121 C 
BRANCH  24  25
HETATM   25  N4  UNL     1      25.309   5.483  49.897  1.00  0.00    -0.390 N 
HETATM   26  C19 UNL     1      24.900   6.713  50.471  1.00  0.00     0.145 C 
HETATM   27  C20 UNL     1      26.053   7.650  50.150  1.00  0.00     0.189 C 
HETATM   28  O3  UNL     1      26.791   7.059  49.156  1.00  0.00    -0.371 OA
HETATM   29  C21 UNL     1      26.381   5.732  49.005  1.00  0.00     0.287 C 
ENDBRANCH  24  25
ENDBRANCH  23  24
ENDBRANCH  22  23
ENDBRANCH  21  22
ENDBRANCH  10  21
BRANCH   1  30
HETATM   30  O1  UNL     1      19.405   3.524  52.226  1.00  0.00    -0.353 OA
HETATM   31  C1  UNL     1      18.336   2.966  51.493  1.00  0.00     0.210 C 
ENDBRANCH   1  30
TORSDOF 8
ENDMDL
MODEL 4
REMARK VINA RESULT:      -7.7      1.140      1.629
REMARK  8 active torsions:
REMARK  status: ('A' for Active; 'I' for Inactive)
REMARK    1  A    between atoms: O1_2  and  C2_3 
REMARK    2  A    between atoms: C6_9  and  N3_10 
REMARK    3  A    between atoms: N3_10  and  C7_11 
REMARK    4  A    between atoms: C15_21  and  O2_22 
REMARK    5  A    between atoms: O2_22  and  C16_23 
REMARK    6  A    between atoms: C16_23  and  C17_24 
REMARK    7  A    between atoms: C17_24  and  C18_25 
REMARK    8  A    between atoms: C18_25  and  N4_26 
ROOT
HETATM    1  C2  UNL     1      19.969   0.337  52.021  1.00  0.00     0.103 A 
HETATM    2  C3  UNL     1      20.175  -0.269  53.268  1.00  0.00     0.072 A 
HETATM    3  C4  UNL     1      21.460  -0.502  53.709  1.00  0.00     0.075 A 
HETATM    4  N1  UNL     1      21.586  -1.087  54.913  1.00  0.00    -0.241 NA
HETATM    5  C5  UNL     1      22.806  -1.346  55.409  1.00  0.00     0.236 A 
HETATM    6  N2  UNL     1      23.863  -1.005  54.668  1.00  0.00    -0.224 NA
HETATM    7  C6  UNL     1      23.828  -0.424  53.469  1.00  0.00     0.142 A 
HETATM    8  C13 UNL     1      22.580  -0.168  52.983  1.00  0.00     0.042 A 
HETATM    9  C14 UNL     1      22.306   0.419  51.776  1.00  0.00     0.057 A 
HETATM   10  C15 UNL     1      21.073   0.700  51.235  1.00  0.00     0.103 A 
ENDROOT
BRANCH   7  11
HETATM   11  N3  UNL     1      24.961  -0.071  52.699  1.00  0.00    -0.340 N 
HETATM   12  H6  UNL     1      24.970  -0.168  51.685  1.00  0.00     0.167 HD
BRANCH  11  13
HETATM   13  C7  UNL     1      26.216   0.443  53.113  1.00  0.00     0.035 A 
HETATM   14  C8  UNL     1      26.469   1.778  53.435  1.00  0.00     0.032 A 
HETATM   15  C9  UNL     1      27.702   2.232  53.829  1.00  0.00     0.046 A 
HETATM   16  C10 UNL     1      28.778   1.382  53.931  1.00  0.00     0.138 A 
HETATM   17  F1  UNL     1      29.944   1.940  54.329  1.00  0.00    -0.204 F 
HETATM   18  C11 UNL     1      28.576   0.053  53.623  1.00  0.00     0.074 A 
HETATM   19 CL1  UNL     1      29.974  -0.988  53.765  1.00  0.00    -0.081 Cl
HETATM   20  C12 UNL     1      27.323  -0.363  53.231  1.00  0.00     0.056 A 
ENDBRANCH  11  13
ENDBRANCH   7  11
BRANCH  10  21
HETATM   21  O2  UNL     1      20.698   1.267  50.077  1.00  0.00    -0.348 OA
BRANCH  21  22
HETATM   22  C16 UNL     1      21.267   1.343  48.833  1.00  0.00     0.177 C 
BRANCH  22  23
HETATM   23  C17 UNL     1      21.876   2.669  48.441  1.00  0.00     0.046 C 
BRANCH  23  24
HETATM   24  C18 UNL     1      23.233   2.862  49.090  1.00  0.00     0.121 C 
BRANCH  24  25
HETATM   25  N4  UNL     1      23.110   3.634  50.261  1.00  0.00    -0.390 N 
HETATM   26  C19 UNL     1      22.127   4.655  50.299  1.00  0.00     0.145 C 
HETATM   27  C20 UNL     1      22.670   5.626  51.335  1.00  0.00     0.189 C 
HETATM   28  O3  UNL     1      23.999   5.332  51.508  1.00  0.00    -0.371 OA
HETATM   29  C21 UNL     1      24.285   4.111  50.893  1.00  0.00     0.287 C 
ENDBRANCH  24  25
ENDBRANCH  23  24
ENDBRANCH  22  23
ENDBRANCH  21  22
ENDBRANCH  10  21
BRANCH   1  30
HETATM   30  O1  UNL     1      18.652   0.551  51.620  1.00  0.00    -0.353 OA
HETATM   31  C1  UNL     1      17.773  -0.552  51.637  1.00  0.00     0.210 C 
ENDBRANCH   1  30
TORSDOF 8
ENDMDL
MODEL 5
REMARK VINA RESULT:      -7.4      3.604      6.534
REMARK  8 active torsions:
REMARK  status: ('A' for Active; 'I' for Inactive)
REMARK    1  A    between atoms: O1_2  and  C2_3 
REMARK    2  A    between atoms: C6_9  and  N3_10 
REMARK    3  A    between atoms: N3_10  and  C7_11 
REMARK    4  A    between atoms: C15_21  and  O2_22 
REMARK    5  A    between atoms: O2_22  and  C16_23 
REMARK    6  A    between atoms: C16_23  and  C17_24 
REMARK    7  A    between atoms: C17_24  and  C18_25 
REMARK    8  A    between atoms: C18_25  and  N4_26 
ROOT
HETATM    1  C2  UNL     1      22.905   0.976  53.087  1.00  0.00     0.103 A 
HETATM    2  C3  UNL     1      21.676   1.346  52.521  1.00  0.00     0.072 A 
HETATM    3  C4  UNL     1      21.501   2.630  52.052  1.00  0.00     0.075 A 
HETATM    4  N1  UNL     1      20.299   2.919  51.522  1.00  0.00    -0.241 NA
HETATM    5  C5  UNL     1      20.053   4.149  51.046  1.00  0.00     0.236 A 
HETATM    6  N2  UNL     1      21.034   5.051  51.120  1.00  0.00    -0.224 NA
HETATM    7  C6  UNL     1      22.251   4.851  51.628  1.00  0.00     0.142 A 
HETATM    8  C13 UNL     1      22.481   3.595  52.106  1.00  0.00     0.042 A 
HETATM    9  C14 UNL     1      23.653   3.166  52.671  1.00  0.00     0.057 A 
HETATM   10  C15 UNL     1      23.942   1.917  53.169  1.00  0.00     0.103 A 
ENDROOT
BRANCH   7  11
HETATM   11  N3  UNL     1      23.276   5.822  51.699  1.00  0.00    -0.340 N 
HETATM   12  H6  UNL     1      23.343   6.473  52.480  1.00  0.00     0.167 HD
BRANCH  11  13
HETATM   13  C7  UNL     1      24.337   6.091  50.798  1.00  0.00     0.035 A 
HETATM   14  C8  UNL     1      24.779   5.222  49.797  1.00  0.00     0.032 A 
HETATM   15  C9  UNL     1      25.813   5.522  48.948  1.00  0.00     0.046 A 
HETATM   16  C10 UNL     1      26.485   6.719  49.035  1.00  0.00     0.138 A 
HETATM   17  F1  UNL     1      27.487   6.908  48.146  1.00  0.00    -0.204 F 
HETATM   18  C11 UNL     1      26.083   7.609  50.008  1.00  0.00     0.074 A 
HETATM   19 CL1  UNL     1      26.969   9.117  50.080  1.00  0.00    -0.081 Cl
HETATM   20  C12 UNL     1      25.041   7.270  50.841  1.00  0.00     0.056 A 
ENDBRANCH  11  13
ENDBRANCH   7  11
BRANCH  10  21
HETATM   21  O2  UNL     1      25.044   1.398  53.735  1.00  0.00    -0.348 OA
BRANCH  21  22
HETATM   22  C16 UNL     1      26.363   1.768  53.749  1.00  0.00     0.177 C 
BRANCH  22  23
HETATM   23  C17 UNL     1      27.193   1.380  52.547  1.00  0.00     0.046 C 
BRANCH  23  24
HETATM   24  C18 UNL     1      26.801   0.009  52.030  1.00  0.00     0.121 C 
BRANCH  24  25
HETATM   25  N4  UNL     1      27.403  -0.999  52.809  1.00  0.00    -0.390 N 
HETATM   26  C19 UNL     1      28.770  -0.860  53.156  1.00  0.00     0.145 C 
HETATM   27  C20 UNL     1      29.219  -2.294  53.391  1.00  0.00     0.189 C 
HETATM   28  O3  UNL     1      28.277  -3.111  52.819  1.00  0.00    -0.371 OA
HETATM   29  C21 UNL     1      27.151  -2.355  52.486  1.00  0.00     0.287 C 
ENDBRANCH  24  25
ENDBRANCH  23  24
ENDBRANCH  22  23
ENDBRANCH  21  22
ENDBRANCH  10  21
BRANCH   1  30
HETATM   30  O1  UNL     1      23.033  -0.333  53.546  1.00  0.00    -0.353 OA
HETATM   31  C1  UNL     1      22.223  -0.730  54.630  1.00  0.00     0.210 C 
ENDBRANCH   1  30
TORSDOF 8
ENDMDL
MODEL 6
REMARK VINA RESULT:      -7.4      3.019      4.057
REMARK  8 active torsions:
REMARK  status: ('A' for Active; 'I' for Inactive)
REMARK    1  A    between atoms: O1_2  and  C2_3 
REMARK    2  A    between atoms: C6_9  and  N3_10 
REMARK    3  A    between atoms: N3_10  and  C7_11 
REMARK    4  A    between atoms: C15_21  and  O2_22 
REMARK    5  A    between atoms: O2_22  and  C16_23 
REMARK    6  A    between atoms: C16_23  and  C17_24 
REMARK    7  A    between atoms: C17_24  and  C18_25 
REMARK    8  A    between atoms: C18_25  and  N4_26 
ROOT
HETATM    1  C2  UNL     1      22.400   2.506  49.644  1.00  0.00     0.103 A 
HETATM    2  C3  UNL     1      21.848   1.419  50.336  1.00  0.00     0.072 A 
HETATM    3  C4  UNL     1      22.495   0.916  51.444  1.00  0.00     0.075 A 
HETATM    4  N1  UNL     1      21.912  -0.128  52.060  1.00  0.00    -0.241 NA
HETATM    5  C5  UNL     1      22.484  -0.672  53.145  1.00  0.00     0.236 A 
HETATM    6  N2  UNL     1      23.631  -0.142  53.574  1.00  0.00    -0.224 NA
HETATM    7  C6  UNL     1      24.276   0.888  53.026  1.00  0.00     0.142 A 
HETATM    8  C13 UNL     1      23.679   1.428  51.925  1.00  0.00     0.042 A 
HETATM    9  C14 UNL     1      24.161   2.486  51.202  1.00  0.00     0.057 A 
HETATM   10  C15 UNL     1      23.605   3.070  50.087  1.00  0.00     0.103 A 
ENDROOT
BRANCH   7  11
HETATM   11  N3  UNL     1      25.493   1.434  53.495  1.00  0.00    -0.340 N 
HETATM   12  H6  UNL     1      25.543   2.375  53.883  1.00  0.00     0.167 HD
BRANCH  11  13
HETATM   13  C7  UNL     1      26.790   0.862  53.533  1.00  0.00     0.035 A 
HETATM   14  C8  UNL     1      27.965   1.557  53.828  1.00  0.00     0.032 A 
HETATM   15  C9  UNL     1      29.201   0.962  53.850  1.00  0.00     0.046 A 
HETATM   16  C10 UNL     1      29.355  -0.376  53.576  1.00  0.00     0.138 A 
HETATM   17  F1  UNL     1      30.619  -0.855  53.627  1.00  0.00    -0.204 F 
HETATM   18  C11 UNL     1      28.222  -1.104  53.279  1.00  0.00     0.074 A 
HETATM   19 CL1  UNL     1      28.469  -2.802  52.936  1.00  0.00    -0.081 Cl
HETATM   20  C12 UNL     1      27.000  -0.470  53.267  1.00  0.00     0.056 A 
ENDBRANCH  11  13
ENDBRANCH   7  11
BRANCH  10  21
HETATM   21  O2  UNL     1      23.990   4.099  49.314  1.00  0.00    -0.348 OA
BRANCH  21  22
HETATM   22  C16 UNL     1      24.386   5.384  49.579  1.00  0.00     0.177 C 
BRANCH  22  23
HETATM   23  C17 UNL     1      25.459   5.964  48.687  1.00  0.00     0.046 C 
BRANCH  23  24
HETATM   24  C18 UNL     1      26.798   5.297  48.936  1.00  0.00     0.121 C 
BRANCH  24  25
HETATM   25  N4  UNL     1      27.831   6.025  48.313  1.00  0.00    -0.390 N 
HETATM   26  C19 UNL     1      29.129   5.459  48.273  1.00  0.00     0.145 C 
HETATM   27  C20 UNL     1      30.037   6.673  48.150  1.00  0.00     0.189 C 
HETATM   28  O3  UNL     1      29.294   7.771  48.504  1.00  0.00    -0.371 OA
HETATM   29  C21 UNL     1      27.946   7.412  48.578  1.00  0.00     0.287 C 
ENDBRANCH  24  25
ENDBRANCH  23  24
ENDBRANCH  22  23
ENDBRANCH  21  22
ENDBRANCH  10  21
BRANCH   1  30
HETATM   30  O1  UNL     1      21.708   2.978  48.531  1.00  0.00    -0.353 OA
HETATM   31  C1  UNL     1      20.514   2.318  48.172  1.00  0.00     0.210 C 
ENDBRANCH   1  30
TORSDOF 8
ENDMDL
MODEL 7
REMARK VINA RESULT:      -7.4      3.952      6.718
REMARK  8 active torsions:
REMARK  status: ('A' for Active; 'I' for Inactive)
REMARK    1  A    between atoms: O1_2  and  C2_3 
REMARK    2  A    between atoms: C6_9  and  N3_10 
REMARK    3  A    between atoms: N3_10  and  C7_11 
REMARK    4  A    between atoms: C15_21  and  O2_22 
REMARK    5  A    between atoms: O2_22  and  C16_23 
REMARK    6  A    between atoms: C16_23  and  C17_24 
REMARK    7  A    between atoms: C17_24  and  C18_25 
REMARK    8  A    between atoms: C18_25  and  N4_26 
ROOT
HETATM    1  C2  UNL     1      26.539   0.200  52.887  1.00  0.00     0.103 A 
HETATM    2  C3  UNL     1      25.942  -0.559  53.904  1.00  0.00     0.072 A 
HETATM    3  C4  UNL     1      24.578  -0.500  54.087  1.00  0.00     0.075 A 
HETATM    4  N1  UNL     1      24.070  -1.251  55.080  1.00  0.00    -0.241 NA
HETATM    5  C5  UNL     1      22.750  -1.245  55.319  1.00  0.00     0.236 A 
HETATM    6  N2  UNL     1      21.982  -0.476  54.544  1.00  0.00    -0.224 NA
HETATM    7  C6  UNL     1      22.400   0.297  53.542  1.00  0.00     0.142 A 
HETATM    8  C13 UNL     1      23.744   0.277  53.314  1.00  0.00     0.042 A 
HETATM    9  C14 UNL     1      24.393   0.992  52.342  1.00  0.00     0.057 A 
HETATM   10  C15 UNL     1      25.740   1.011  52.067  1.00  0.00     0.103 A 
ENDROOT
BRANCH   7  11
HETATM   11  N3  UNL     1      21.569   1.107  52.734  1.00  0.00    -0.340 N 
HETATM   12  H6  UNL     1      21.760   2.098  52.593  1.00  0.00     0.167 HD
BRANCH  11  13
HETATM   13  C7  UNL     1      20.400   0.767  52.008  1.00  0.00     0.035 A 
HETATM   14  C8  UNL     1      20.118   1.176  50.702  1.00  0.00     0.032 A 
HETATM   15  C9  UNL     1      18.970   0.825  50.038  1.00  0.00     0.046 A 
HETATM   16  C10 UNL     1      18.014   0.036  50.632  1.00  0.00     0.138 A 
HETATM   17  F1  UNL     1      16.924  -0.247  49.883  1.00  0.00    -0.204 F 
HETATM   18  C11 UNL     1      18.248  -0.393  51.922  1.00  0.00     0.074 A 
HETATM   19 CL1  UNL     1      17.002  -1.393  52.635  1.00  0.00    -0.081 Cl
HETATM   20  C12 UNL     1      19.413  -0.018  52.554  1.00  0.00     0.056 A 
ENDBRANCH  11  13
ENDBRANCH   7  11
BRANCH  10  21
HETATM   21  O2  UNL     1      26.470   1.666  51.148  1.00  0.00    -0.348 OA
BRANCH  21  22
HETATM   22  C16 UNL     1      26.589   2.985  50.800  1.00  0.00     0.177 C 
BRANCH  22  23
HETATM   23  C17 UNL     1      25.555   3.534  49.844  1.00  0.00     0.046 C 
BRANCH  23  24
HETATM   24  C18 UNL     1      24.782   4.679  50.471  1.00  0.00     0.121 C 
BRANCH  24  25
HETATM   25  N4  UNL     1      23.535   4.226  50.945  1.00  0.00    -0.390 N 
HETATM   26  C19 UNL     1      22.364   4.620  50.252  1.00  0.00     0.145 C 
HETATM   27  C20 UNL     1      21.280   4.525  51.314  1.00  0.00     0.189 C 
HETATM   28  O3  UNL     1      21.910   4.482  52.532  1.00  0.00    -0.371 OA
HETATM   29  C21 UNL     1      23.277   4.268  52.337  1.00  0.00     0.287 C 
ENDBRANCH  24  25
ENDBRANCH  23  24
ENDBRANCH  22  23
ENDBRANCH  21  22
ENDBRANCH  10  21
BRANCH   1  30
HETATM   30  O1  UNL     1      27.921   0.106  52.741  1.00  0.00    -0.353 OA
HETATM   31  C1  UNL     1      28.563  -1.026  53.285  1.00  0.00     0.210 C 
ENDBRANCH   1  30
TORSDOF 8
ENDMDL
MODEL 8
REMARK VINA RESULT:      -7.4      3.759      6.025
REMARK  8 active torsions:
REMARK  status: ('A' for Active; 'I' for Inactive)
REMARK    1  A    between atoms: O1_2  and  C2_3 
REMARK    2  A    between atoms: C6_9  and  N3_10 
REMARK    3  A    between atoms: N3_10  and  C7_11 
REMARK    4  A    between atoms: C15_21  and  O2_22 
REMARK    5  A    between atoms: O2_22  and  C16_23 
REMARK    6  A    between atoms: C16_23  and  C17_24 
REMARK    7  A    between atoms: C17_24  and  C18_25 
REMARK    8  A    between atoms: C18_25  and  N4_26 
ROOT
HETATM    1  C2  UNL     1      25.949  -0.079  53.059  1.00  0.00     0.103 A 
HETATM    2  C3  UNL     1      25.052  -0.765  53.890  1.00  0.00     0.072 A 
HETATM    3  C4  UNL     1      23.718  -0.417  53.887  1.00  0.00     0.075 A 
HETATM    4  N1  UNL     1      22.913  -1.115  54.708  1.00  0.00    -0.241 NA
HETATM    5  C5  UNL     1      21.602  -0.833  54.762  1.00  0.00     0.236 A 
HETATM    6  N2  UNL     1      21.145   0.148  53.981  1.00  0.00    -0.224 NA
HETATM    7  C6  UNL     1      21.870   0.887  53.141  1.00  0.00     0.142 A 
HETATM    8  C13 UNL     1      23.200   0.585  53.100  1.00  0.00     0.042 A 
HETATM    9  C14 UNL     1      24.130   1.213  52.315  1.00  0.00     0.057 A 
HETATM   10  C15 UNL     1      25.478   0.954  52.234  1.00  0.00     0.103 A 
ENDROOT
BRANCH   7  11
HETATM   11  N3  UNL     1      21.366   1.924  52.322  1.00  0.00    -0.340 N 
HETATM   12  H6  UNL     1      20.854   2.714  52.713  1.00  0.00     0.167 HD
BRANCH  11  13
HETATM   13  C7  UNL     1      21.445   2.091  50.917  1.00  0.00     0.035 A 
HETATM   14  C8  UNL     1      21.440   1.052  49.983  1.00  0.00     0.032 A 
HETATM   15  C9  UNL     1      21.522   1.260  48.630  1.00  0.00     0.046 A 
HETATM   16  C10 UNL     1      21.615   2.528  48.106  1.00  0.00     0.138 A 
HETATM   17  F1  UNL     1      21.689   2.614  46.759  1.00  0.00    -0.204 F 
HETATM   18  C11 UNL     1      21.623   3.587  48.990  1.00  0.00     0.074 A 
HETATM   19 CL1  UNL     1      21.744   5.180  48.276  1.00  0.00    -0.081 Cl
HETATM   20  C12 UNL     1      21.540   3.336  50.341  1.00  0.00     0.056 A 
ENDBRANCH  11  13
ENDBRANCH   7  11
BRANCH  10  21
HETATM   21  O2  UNL     1      26.465   1.501  51.505  1.00  0.00    -0.348 OA
BRANCH  21  22
HETATM   22  C16 UNL     1      26.780   2.787  51.154  1.00  0.00     0.177 C 
BRANCH  22  23
HETATM   23  C17 UNL     1      26.555   3.175  49.711  1.00  0.00     0.046 C 
BRANCH  23  24
HETATM   24  C18 UNL     1      25.140   3.674  49.491  1.00  0.00     0.121 C 
BRANCH  24  25
HETATM   25  N4  UNL     1      25.121   5.081  49.434  1.00  0.00    -0.390 N 
HETATM   26  C19 UNL     1      26.269   5.755  48.948  1.00  0.00     0.145 C 
HETATM   27  C20 UNL     1      26.168   7.129  49.594  1.00  0.00     0.189 C 
HETATM   28  O3  UNL     1      25.274   7.024  50.629  1.00  0.00    -0.371 OA
HETATM   29  C21 UNL     1      24.601   5.804  50.537  1.00  0.00     0.287 C 
ENDBRANCH  24  25
ENDBRANCH  23  24
ENDBRANCH  22  23
ENDBRANCH  21  22
ENDBRANCH  10  21
BRANCH   1  30
HETATM   30  O1  UNL     1      27.285  -0.467  53.096  1.00  0.00    -0.353 OA
HETATM   31  C1  UNL     1      28.051  -0.075  54.215  1.00  0.00     0.210 C 
ENDBRANCH   1  30
TORSDOF 8
ENDMDL
MODEL 9
REMARK VINA RESULT:      -7.4      3.747      6.516
REMARK  8 active torsions:
REMARK  status: ('A' for Active; 'I' for Inactive)
REMARK    1  A    between atoms: O1_2  and  C2_3 
REMARK    2  A    between atoms: C6_9  and  N3_10 
REMARK    3  A    between atoms: N3_10  and  C7_11 
REMARK    4  A    between atoms: C15_21  and  O2_22 
REMARK    5  A    between atoms: O2_22  and  C16_23 
REMARK    6  A    between atoms: C16_23  and  C17_24 
REMARK    7  A    between atoms: C17_24  and  C18_25 
REMARK    8  A    between atoms: C18_25  and  N4_26 
ROOT
HETATM    1  C2  UNL     1      26.949   0.850  53.229  1.00  0.00     0.103 A 
HETATM    2  C3  UNL     1      26.528   0.147  54.367  1.00  0.00     0.072 A 
HETATM    3  C4  UNL     1      25.243  -0.347  54.427  1.00  0.00     0.075 A 
HETATM    4  N1  UNL     1      24.904  -1.010  55.547  1.00  0.00    -0.241 NA
HETATM    5  C5  UNL     1      23.669  -1.519  55.678  1.00  0.00     0.236 A 
HETATM    6  N2  UNL     1      22.814  -1.341  54.670  1.00  0.00    -0.224 NA
HETATM    7  C6  UNL     1      23.065  -0.698  53.529  1.00  0.00     0.142 A 
HETATM    8  C13 UNL     1      24.325  -0.189  53.414  1.00  0.00     0.042 A 
HETATM    9  C14 UNL     1      24.801   0.507  52.335  1.00  0.00     0.057 A 
HETATM   10  C15 UNL     1      26.057   1.042  52.164  1.00  0.00     0.103 A 
ENDROOT
BRANCH   7  11
HETATM   11  N3  UNL     1      22.142  -0.519  52.472  1.00  0.00    -0.340 N 
HETATM   12  H6  UNL     1      22.065  -1.190  51.709  1.00  0.00     0.167 HD
BRANCH  11  13
HETATM   13  C7  UNL     1      21.209   0.525  52.249  1.00  0.00     0.035 A 
HETATM   14  C8  UNL     1      21.257   1.786  52.849  1.00  0.00     0.032 A 
HETATM   15  C9  UNL     1      20.328   2.766  52.606  1.00  0.00     0.046 A 
HETATM   16  C10 UNL     1      19.279   2.559  51.742  1.00  0.00     0.138 A 
HETATM   17  F1  UNL     1      18.426   3.595  51.578  1.00  0.00    -0.204 F 
HETATM   18  C11 UNL     1      19.191   1.328  51.125  1.00  0.00     0.074 A 
HETATM   19 CL1  UNL     1      17.838   1.111  50.036  1.00  0.00    -0.081 Cl
HETATM   20  C12 UNL     1      20.142   0.370  51.397  1.00  0.00     0.056 A 
ENDBRANCH  11  13
ENDBRANCH   7  11
BRANCH  10  21
HETATM   21  O2  UNL     1      26.621   1.731  51.158  1.00  0.00    -0.348 OA
BRANCH  21  22
HETATM   22  C16 UNL     1      26.486   3.015  50.699  1.00  0.00     0.177 C 
BRANCH  22  23
HETATM   23  C17 UNL     1      25.259   3.318  49.871  1.00  0.00     0.046 C 
BRANCH  23  24
HETATM   24  C18 UNL     1      24.163   3.933  50.721  1.00  0.00     0.121 C 
BRANCH  24  25
HETATM   25  N4  UNL     1      22.896   3.559  50.231  1.00  0.00    -0.390 N 
HETATM   26  C19 UNL     1      22.784   2.353  49.495  1.00  0.00     0.145 C 
HETATM   27  C20 UNL     1      21.551   2.581  48.635  1.00  0.00     0.189 C 
HETATM   28  O3  UNL     1      21.301   3.930  48.636  1.00  0.00    -0.371 OA
HETATM   29  C21 UNL     1      22.081   4.543  49.619  1.00  0.00     0.287 C 
ENDBRANCH  24  25
ENDBRANCH  23  24
ENDBRANCH  22  23
ENDBRANCH  21  22
ENDBRANCH  10  21
BRANCH   1  30
HETATM   30  O1  UNL     1      28.257   1.328  53.216  1.00  0.00    -0.353 OA
HETATM   31  C1  UNL     1      29.169   0.770  54.136  1.00  0.00     0.210 C 
ENDBRANCH   1  30
TORSDOF 8
ENDMDL
