MODEL 1
REMARK VINA RESULT:      -7.9      0.000      0.000
REMARK  5 active torsions:
REMARK  status: ('A' for Active; 'I' for Inactive)
REMARK    1  A    between atoms: C7_7  and  N1_8 
REMARK    2  A    between atoms: N1_8  and  P1_9 
REMARK    3  A    between atoms: P1_9  and  C8_10 
REMARK    4  A    between atoms: C12_16  and  O1_17 
REMARK    5  A    between atoms: O1_17  and  C13_18 
ROOT
HETATM    1  C1  UNL     1      21.635   3.931  45.210  1.00  0.00     0.017 C 
HETATM    2  C2  UNL     1      21.283   4.455  46.237  1.00  0.00    -0.089 C 
HETATM    3  C3  UNL     1      20.883   5.085  47.467  1.00  0.00     0.075 C 
HETATM    4  C4  UNL     1      20.768   4.388  48.585  1.00  0.00    -0.029 A 
HETATM    5  C5  UNL     1      21.051   2.960  48.568  1.00  0.00     0.010 A 
HETATM    6  C6  UNL     1      20.927   2.283  49.707  1.00  0.00     0.005 A 
HETATM    7  C7  UNL     1      20.518   2.880  51.009  1.00  0.00     0.153 A 
HETATM    8  C20 UNL     1      20.265   4.326  50.877  1.00  0.00     0.005 A 
HETATM    9  C21 UNL     1      20.361   5.071  49.804  1.00  0.00     0.010 A 
ENDROOT
BRANCH   7  10
HETATM   10  N1  UNL     1      21.566   2.609  51.950  1.00  0.00    -0.275 NA
BRANCH  10  11
HETATM   11  P1  UNL     1      22.665   1.438  51.773  1.00  0.00     0.114 P 
BRANCH  11  12
HETATM   12  C8  UNL     1      24.399   1.991  51.517  1.00  0.00     0.106 A 
HETATM   13  N2  UNL     1      24.672   2.972  50.623  1.00  0.00    -0.238 NA
HETATM   14  C9  UNL     1      25.949   3.359  50.452  1.00  0.00     0.234 A 
HETATM   15  N3  UNL     1      26.967   2.791  51.153  1.00  0.00    -0.241 NA
HETATM   16  C10 UNL     1      26.673   1.814  52.038  1.00  0.00     0.076 A 
HETATM   17  C11 UNL     1      27.698   1.241  52.745  1.00  0.00     0.072 A 
HETATM   18  C17 UNL     1      25.387   1.376  52.256  1.00  0.00     0.061 A 
HETATM   19  C12 UNL     1      27.495   0.239  53.668  1.00  0.00     0.107 A 
HETATM   20  C15 UNL     1      26.203  -0.211  53.895  1.00  0.00     0.136 A 
HETATM   21  C16 UNL     1      25.154   0.371  53.177  1.00  0.00     0.120 A 
HETATM   22  O3  UNL     1      25.774  -1.199  54.771  1.00  0.00    -0.344 OA
HETATM   23  O2  UNL     1      23.806   0.037  53.287  1.00  0.00    -0.345 OA
HETATM   24  C18 UNL     1      23.400  -0.888  54.289  1.00  0.00     0.202 C 
HETATM   25  C19 UNL     1      24.481  -1.097  55.318  1.00  0.00     0.202 C 
BRANCH  19  26
HETATM   26  O1  UNL     1      28.430  -0.417  54.438  1.00  0.00    -0.348 OA
BRANCH  26  27
HETATM   27  C13 UNL     1      29.592  -1.051  53.893  1.00  0.00     0.171 C 
HETATM   28  C14 UNL     1      29.230  -2.372  53.261  1.00  0.00     0.034 C 
ENDBRANCH  26  27
ENDBRANCH  19  26
ENDBRANCH  11  12
ENDBRANCH  10  11
ENDBRANCH   7  10
TORSDOF 5
ENDMDL
MODEL 2
REMARK VINA RESULT:      -7.7      3.158      4.447
REMARK  5 active torsions:
REMARK  status: ('A' for Active; 'I' for Inactive)
REMARK    1  A    between atoms: C7_7  and  N1_8 
REMARK    2  A    between atoms: N1_8  and  P1_9 
REMARK    3  A    between atoms: P1_9  and  C8_10 
REMARK    4  A    between atoms: C12_16  and  O1_17 
REMARK    5  A    between atoms: O1_17  and  C13_18 
ROOT
HETATM    1  C1  UNL     1      13.105   1.479  52.840  1.00  0.00     0.017 C 
HETATM    2  C2  UNL     1      14.042   0.720  52.810  1.00  0.00    -0.089 C 
HETATM    3  C3  UNL     1      15.165  -0.178  52.794  1.00  0.00     0.075 C 
HETATM    4  C4  UNL     1      16.331   0.196  52.293  1.00  0.00    -0.029 A 
HETATM    5  C5  UNL     1      16.476   1.539  51.750  1.00  0.00     0.010 A 
HETATM    6  C6  UNL     1      17.660   1.888  51.252  1.00  0.00     0.005 A 
HETATM    7  C7  UNL     1      18.857   1.003  51.208  1.00  0.00     0.153 A 
HETATM    8  C20 UNL     1      18.565  -0.320  51.790  1.00  0.00     0.005 A 
HETATM    9  C21 UNL     1      17.438  -0.749  52.300  1.00  0.00     0.010 A 
ENDROOT
BRANCH   7  10
HETATM   10  N1  UNL     1      19.908   1.673  51.917  1.00  0.00    -0.275 NA
BRANCH  10  11
HETATM   11  P1  UNL     1      21.215   0.935  52.515  1.00  0.00     0.114 P 
BRANCH  11  12
HETATM   12  C8  UNL     1      22.836   1.530  51.886  1.00  0.00     0.106 A 
HETATM   13  N2  UNL     1      22.881   2.468  50.909  1.00  0.00    -0.238 NA
HETATM   14  C9  UNL     1      24.080   2.887  50.464  1.00  0.00     0.234 A 
HETATM   15  N3  UNL     1      25.242   2.395  50.972  1.00  0.00    -0.241 NA
HETATM   16  C10 UNL     1      25.175   1.461  51.945  1.00  0.00     0.076 A 
HETATM   17  C11 UNL     1      26.344   0.964  52.458  1.00  0.00     0.072 A 
HETATM   18  C17 UNL     1      23.979   0.993  52.440  1.00  0.00     0.061 A 
HETATM   19  C12 UNL     1      26.376   0.011  53.452  1.00  0.00     0.107 A 
HETATM   20  C15 UNL     1      25.176  -0.468  53.957  1.00  0.00     0.136 A 
HETATM   21  C16 UNL     1      23.980   0.035  53.438  1.00  0.00     0.120 A 
HETATM   22  O3  UNL     1      24.975  -1.419  54.949  1.00  0.00    -0.344 OA
HETATM   23  O2  UNL     1      22.697  -0.337  53.835  1.00  0.00    -0.345 OA
HETATM   24  C18 UNL     1      22.541  -1.216  54.942  1.00  0.00     0.202 C 
HETATM   25  C19 UNL     1      23.815  -1.329  55.741  1.00  0.00     0.202 C 
BRANCH  19  26
HETATM   26  O1  UNL     1      27.473  -0.568  54.048  1.00  0.00    -0.348 OA
BRANCH  26  27
HETATM   27  C13 UNL     1      28.520  -1.210  53.313  1.00  0.00     0.171 C 
HETATM   28  C14 UNL     1      29.864  -0.636  53.689  1.00  0.00     0.034 C 
ENDBRANCH  26  27
ENDBRANCH  19  26
ENDBRANCH  11  12
ENDBRANCH  10  11
ENDBRANCH   7  10
TORSDOF 5
ENDMDL
MODEL 3
REMARK VINA RESULT:      -7.7      3.541      4.970
REMARK  5 active torsions:
REMARK  status: ('A' for Active; 'I' for Inactive)
REMARK    1  A    between atoms: C7_7  and  N1_8 
REMARK    2  A    between atoms: N1_8  and  P1_9 
REMARK    3  A    between atoms: P1_9  and  C8_10 
REMARK    4  A    between atoms: C12_16  and  O1_17 
REMARK    5  A    between atoms: O1_17  and  C13_18 
ROOT
HETATM    1  C1  UNL     1      12.416   4.482  53.869  1.00  0.00     0.017 C 
HETATM    2  C2  UNL     1      13.082   3.574  53.439  1.00  0.00    -0.089 C 
HETATM    3  C3  UNL     1      13.886   2.488  52.945  1.00  0.00     0.075 C 
HETATM    4  C4  UNL     1      15.070   2.709  52.399  1.00  0.00    -0.029 A 
HETATM    5  C5  UNL     1      15.565   4.074  52.296  1.00  0.00     0.010 A 
HETATM    6  C6  UNL     1      16.759   4.268  51.742  1.00  0.00     0.005 A 
HETATM    7  C7  UNL     1      17.635   3.185  51.214  1.00  0.00     0.153 A 
HETATM    8  C20 UNL     1      17.009   1.861  51.384  1.00  0.00     0.005 A 
HETATM    9  C21 UNL     1      15.846   1.577  51.914  1.00  0.00     0.010 A 
ENDROOT
BRANCH   7  10
HETATM   10  N1  UNL     1      18.886   3.273  51.909  1.00  0.00    -0.275 NA
BRANCH  10  11
HETATM   11  P1  UNL     1      19.955   2.065  52.012  1.00  0.00     0.114 P 
BRANCH  11  12
HETATM   12  C8  UNL     1      21.669   2.457  51.480  1.00  0.00     0.106 A 
HETATM   13  N2  UNL     1      21.895   3.478  50.617  1.00  0.00    -0.238 NA
HETATM   14  C9  UNL     1      23.158   3.745  50.241  1.00  0.00     0.234 A 
HETATM   15  N3  UNL     1      24.210   3.019  50.705  1.00  0.00    -0.241 NA
HETATM   16  C10 UNL     1      23.964   2.005  51.564  1.00  0.00     0.076 A 
HETATM   17  C11 UNL     1      25.023   1.272  52.033  1.00  0.00     0.072 A 
HETATM   18  C17 UNL     1      22.693   1.685  51.985  1.00  0.00     0.061 A 
HETATM   19  C12 UNL     1      24.870   0.222  52.911  1.00  0.00     0.107 A 
HETATM   20  C15 UNL     1      23.594  -0.110  53.340  1.00  0.00     0.136 A 
HETATM   21  C16 UNL     1      22.510   0.634  52.866  1.00  0.00     0.120 A 
HETATM   22  O3  UNL     1      23.212  -1.120  54.214  1.00  0.00    -0.344 OA
HETATM   23  O2  UNL     1      21.172   0.432  53.199  1.00  0.00    -0.345 OA
HETATM   24  C18 UNL     1      20.843  -0.528  54.196  1.00  0.00     0.202 C 
HETATM   25  C19 UNL     1      22.055  -0.933  54.994  1.00  0.00     0.202 C 
BRANCH  19  26
HETATM   26  O1  UNL     1      25.842  -0.589  53.453  1.00  0.00    -0.348 OA
BRANCH  26  27
HETATM   27  C13 UNL     1      27.244  -0.359  53.280  1.00  0.00     0.171 C 
HETATM   28  C14 UNL     1      27.825   0.323  54.494  1.00  0.00     0.034 C 
ENDBRANCH  26  27
ENDBRANCH  19  26
ENDBRANCH  11  12
ENDBRANCH  10  11
ENDBRANCH   7  10
TORSDOF 5
ENDMDL
MODEL 4
REMARK VINA RESULT:      -7.7      4.275      6.296
REMARK  5 active torsions:
REMARK  status: ('A' for Active; 'I' for Inactive)
REMARK    1  A    between atoms: C7_7  and  N1_8 
REMARK    2  A    between atoms: N1_8  and  P1_9 
REMARK    3  A    between atoms: P1_9  and  C8_10 
REMARK    4  A    between atoms: C12_16  and  O1_17 
REMARK    5  A    between atoms: O1_17  and  C13_18 
ROOT
HETATM    1  C1  UNL     1      15.963  -5.420  54.239  1.00  0.00     0.017 C 
HETATM    2  C2  UNL     1      15.803  -4.507  53.467  1.00  0.00    -0.089 C 
HETATM    3  C3  UNL     1      15.624  -3.429  52.532  1.00  0.00     0.075 C 
HETATM    4  C4  UNL     1      16.445  -2.393  52.521  1.00  0.00    -0.029 A 
HETATM    5  C5  UNL     1      17.547  -2.345  53.472  1.00  0.00     0.010 A 
HETATM    6  C6  UNL     1      18.357  -1.289  53.438  1.00  0.00     0.005 A 
HETATM    7  C7  UNL     1      18.223  -0.145  52.495  1.00  0.00     0.153 A 
HETATM    8  C20 UNL     1      17.070  -0.329  51.594  1.00  0.00     0.005 A 
HETATM    9  C21 UNL     1      16.224  -1.326  51.555  1.00  0.00     0.010 A 
ENDROOT
BRANCH   7  10
HETATM   10  N1  UNL     1      19.454  -0.047  51.766  1.00  0.00    -0.275 NA
BRANCH  10  11
HETATM   11  P1  UNL     1      20.718   0.844  52.233  1.00  0.00     0.114 P 
BRANCH  11  12
HETATM   12  C8  UNL     1      21.975  -0.015  53.262  1.00  0.00     0.106 A 
HETATM   13  N2  UNL     1      21.589  -0.955  54.159  1.00  0.00    -0.238 NA
HETATM   14  C9  UNL     1      22.526  -1.570  54.901  1.00  0.00     0.234 A 
HETATM   15  N3  UNL     1      23.848  -1.272  54.773  1.00  0.00    -0.241 NA
HETATM   16  C10 UNL     1      24.211  -0.332  53.874  1.00  0.00     0.076 A 
HETATM   17  C11 UNL     1      25.541  -0.030  53.743  1.00  0.00     0.072 A 
HETATM   18  C17 UNL     1      23.297   0.331  53.087  1.00  0.00     0.061 A 
HETATM   19  C12 UNL     1      26.007   0.914  52.854  1.00  0.00     0.107 A 
HETATM   20  C15 UNL     1      25.094   1.588  52.057  1.00  0.00     0.136 A 
HETATM   21  C16 UNL     1      23.736   1.284  52.185  1.00  0.00     0.120 A 
HETATM   22  O3  UNL     1      25.339   2.568  51.103  1.00  0.00    -0.344 OA
HETATM   23  O2  UNL     1      22.697   1.866  51.462  1.00  0.00    -0.345 OA
HETATM   24  C18 UNL     1      23.007   2.768  50.406  1.00  0.00     0.202 C 
HETATM   25  C19 UNL     1      24.459   2.677  50.010  1.00  0.00     0.202 C 
BRANCH  19  26
HETATM   26  O1  UNL     1      27.306   1.309  52.628  1.00  0.00    -0.348 OA
BRANCH  26  27
HETATM   27  C13 UNL     1      28.309   1.337  53.649  1.00  0.00     0.171 C 
HETATM   28  C14 UNL     1      29.274   0.190  53.479  1.00  0.00     0.034 C 
ENDBRANCH  26  27
ENDBRANCH  19  26
ENDBRANCH  11  12
ENDBRANCH  10  11
ENDBRANCH   7  10
TORSDOF 5
ENDMDL
MODEL 5
REMARK VINA RESULT:      -7.6      2.211      2.990
REMARK  5 active torsions:
REMARK  status: ('A' for Active; 'I' for Inactive)
REMARK    1  A    between atoms: C7_7  and  N1_8 
REMARK    2  A    between atoms: N1_8  and  P1_9 
REMARK    3  A    between atoms: P1_9  and  C8_10 
REMARK    4  A    between atoms: C12_16  and  O1_17 
REMARK    5  A    between atoms: O1_17  and  C13_18 
ROOT
HETATM    1  C1  UNL     1      16.356  -0.950  50.776  1.00  0.00     0.017 C 
HETATM    2  C2  UNL     1      16.563   0.228  50.623  1.00  0.00    -0.089 C 
HETATM    3  C3  UNL     1      16.819   1.629  50.422  1.00  0.00     0.075 C 
HETATM    4  C4  UNL     1      17.910   2.199  50.906  1.00  0.00    -0.029 A 
HETATM    5  C5  UNL     1      18.865   1.393  51.653  1.00  0.00     0.010 A 
HETATM    6  C6  UNL     1      19.954   1.993  52.127  1.00  0.00     0.005 A 
HETATM    7  C7  UNL     1      20.274   3.437  51.951  1.00  0.00     0.153 A 
HETATM    8  C20 UNL     1      19.223   4.125  51.179  1.00  0.00     0.005 A 
HETATM    9  C21 UNL     1      18.125   3.620  50.675  1.00  0.00     0.010 A 
ENDROOT
BRANCH   7  10
HETATM   10  N1  UNL     1      21.548   3.515  51.300  1.00  0.00    -0.275 NA
BRANCH  10  11
HETATM   11  P1  UNL     1      22.478   2.237  50.967  1.00  0.00     0.114 P 
BRANCH  11  12
HETATM   12  C8  UNL     1      24.288   2.548  50.911  1.00  0.00     0.106 A 
HETATM   13  N2  UNL     1      24.783   3.529  50.117  1.00  0.00    -0.238 NA
HETATM   14  C9  UNL     1      26.112   3.738  50.092  1.00  0.00     0.234 A 
HETATM   15  N3  UNL     1      26.966   2.991  50.842  1.00  0.00    -0.241 NA
HETATM   16  C10 UNL     1      26.453   2.018  51.626  1.00  0.00     0.076 A 
HETATM   17  C11 UNL     1      27.312   1.265  52.382  1.00  0.00     0.072 A 
HETATM   18  C17 UNL     1      25.103   1.758  51.693  1.00  0.00     0.061 A 
HETATM   19  C12 UNL     1      26.881   0.252  53.211  1.00  0.00     0.107 A 
HETATM   20  C15 UNL     1      25.523  -0.019  53.286  1.00  0.00     0.136 A 
HETATM   21  C16 UNL     1      24.642   0.746  52.517  1.00  0.00     0.120 A 
HETATM   22  O3  UNL     1      24.876  -0.983  54.047  1.00  0.00    -0.344 OA
HETATM   23  O2  UNL     1      23.257   0.604  52.479  1.00  0.00    -0.345 OA
HETATM   24  C18 UNL     1      22.628  -0.308  53.372  1.00  0.00     0.202 C 
HETATM   25  C19 UNL     1      23.561  -0.728  54.479  1.00  0.00     0.202 C 
BRANCH  19  26
HETATM   26  O1  UNL     1      27.634  -0.573  54.016  1.00  0.00    -0.348 OA
BRANCH  26  27
HETATM   27  C13 UNL     1      28.944  -0.234  54.484  1.00  0.00     0.171 C 
HETATM   28  C14 UNL     1      29.995  -1.011  53.731  1.00  0.00     0.034 C 
ENDBRANCH  26  27
ENDBRANCH  19  26
ENDBRANCH  11  12
ENDBRANCH  10  11
ENDBRANCH   7  10
TORSDOF 5
ENDMDL
MODEL 6
REMARK VINA RESULT:      -7.6      3.923      7.113
REMARK  5 active torsions:
REMARK  status: ('A' for Active; 'I' for Inactive)
REMARK    1  A    between atoms: C7_7  and  N1_8 
REMARK    2  A    between atoms: N1_8  and  P1_9 
REMARK    3  A    between atoms: P1_9  and  C8_10 
REMARK    4  A    between atoms: C12_16  and  O1_17 
REMARK    5  A    between atoms: O1_17  and  C13_18 
ROOT
HETATM    1  C1  UNL     1      28.615   7.659  47.344  1.00  0.00     0.017 C 
HETATM    2  C2  UNL     1      28.391   6.569  47.809  1.00  0.00    -0.089 C 
HETATM    3  C3  UNL     1      28.115   5.263  48.344  1.00  0.00     0.075 C 
HETATM    4  C4  UNL     1      27.027   5.037  49.062  1.00  0.00    -0.029 A 
HETATM    5  C5  UNL     1      26.097   6.128  49.311  1.00  0.00     0.010 A 
HETATM    6  C6  UNL     1      25.010   5.872  50.036  1.00  0.00     0.005 A 
HETATM    7  C7  UNL     1      24.670   4.543  50.616  1.00  0.00     0.153 A 
HETATM    8  C20 UNL     1      25.697   3.538  50.284  1.00  0.00     0.005 A 
HETATM    9  C21 UNL     1      26.790   3.698  49.582  1.00  0.00     0.010 A 
ENDROOT
BRANCH   7  10
HETATM   10  N1  UNL     1      23.382   4.173  50.107  1.00  0.00    -0.275 NA
BRANCH  10  11
HETATM   11  P1  UNL     1      22.962   2.665  49.708  1.00  0.00     0.114 P 
BRANCH  11  12
HETATM   12  C8  UNL     1      22.702   1.502  51.107  1.00  0.00     0.106 A 
HETATM   13  N2  UNL     1      23.733   1.188  51.928  1.00  0.00    -0.238 NA
HETATM   14  C9  UNL     1      23.519   0.334  52.945  1.00  0.00     0.234 A 
HETATM   15  N3  UNL     1      22.296  -0.219  53.167  1.00  0.00    -0.241 NA
HETATM   16  C10 UNL     1      21.282   0.106  52.337  1.00  0.00     0.076 A 
HETATM   17  C11 UNL     1      20.049  -0.449  52.559  1.00  0.00     0.072 A 
HETATM   18  C17 UNL     1      21.440   0.974  51.280  1.00  0.00     0.061 A 
HETATM   19  C12 UNL     1      18.956  -0.177  51.766  1.00  0.00     0.107 A 
HETATM   20  C15 UNL     1      19.105   0.694  50.698  1.00  0.00     0.136 A 
HETATM   21  C16 UNL     1      20.359   1.265  50.467  1.00  0.00     0.120 A 
HETATM   22  O3  UNL     1      18.148   1.106  49.780  1.00  0.00    -0.344 OA
HETATM   23  O2  UNL     1      20.675   2.156  49.444  1.00  0.00    -0.345 OA
HETATM   24  C18 UNL     1      19.635   2.650  48.608  1.00  0.00     0.202 C 
HETATM   25  C19 UNL     1      18.275   2.384  49.204  1.00  0.00     0.202 C 
BRANCH  19  26
HETATM   26  O1  UNL     1      17.674  -0.666  51.880  1.00  0.00    -0.348 OA
BRANCH  26  27
HETATM   27  C13 UNL     1      17.108  -1.110  53.117  1.00  0.00     0.171 C 
HETATM   28  C14 UNL     1      17.550  -2.519  53.429  1.00  0.00     0.034 C 
ENDBRANCH  26  27
ENDBRANCH  19  26
ENDBRANCH  11  12
ENDBRANCH  10  11
ENDBRANCH   7  10
TORSDOF 5
ENDMDL
MODEL 7
REMARK VINA RESULT:      -7.5      1.942      3.126
REMARK  5 active torsions:
REMARK  status: ('A' for Active; 'I' for Inactive)
REMARK    1  A    between atoms: C7_7  and  N1_8 
REMARK    2  A    between atoms: N1_8  and  P1_9 
REMARK    3  A    between atoms: P1_9  and  C8_10 
REMARK    4  A    between atoms: C12_16  and  O1_17 
REMARK    5  A    between atoms: O1_17  and  C13_18 
ROOT
HETATM    1  C1  UNL     1      21.810   3.714  45.462  1.00  0.00     0.017 C 
HETATM    2  C2  UNL     1      21.495   4.118  46.554  1.00  0.00    -0.089 C 
HETATM    3  C3  UNL     1      21.139   4.596  47.862  1.00  0.00     0.075 C 
HETATM    4  C4  UNL     1      20.660   3.775  48.782  1.00  0.00    -0.029 A 
HETATM    5  C5  UNL     1      20.492   2.365  48.462  1.00  0.00     0.010 A 
HETATM    6  C6  UNL     1      20.008   1.562  49.406  1.00  0.00     0.005 A 
HETATM    7  C7  UNL     1      19.623   1.999  50.777  1.00  0.00     0.153 A 
HETATM    8  C20 UNL     1      19.846   3.445  50.959  1.00  0.00     0.005 A 
HETATM    9  C21 UNL     1      20.315   4.307  50.093  1.00  0.00     0.010 A 
ENDROOT
BRANCH   7  10
HETATM   10  N1  UNL     1      20.394   1.223  51.704  1.00  0.00    -0.275 NA
BRANCH  10  11
HETATM   11  P1  UNL     1      22.009   1.174  51.725  1.00  0.00     0.114 P 
BRANCH  11  12
HETATM   12  C8  UNL     1      22.769   0.208  53.090  1.00  0.00     0.106 A 
HETATM   13  N2  UNL     1      22.014  -0.655  53.813  1.00  0.00    -0.238 NA
HETATM   14  C9  UNL     1      22.592  -1.351  54.808  1.00  0.00     0.234 A 
HETATM   15  N3  UNL     1      23.913  -1.210  55.103  1.00  0.00    -0.241 NA
HETATM   16  C10 UNL     1      24.648  -0.345  54.372  1.00  0.00     0.076 A 
HETATM   17  C11 UNL     1      25.978  -0.201  54.668  1.00  0.00     0.072 A 
HETATM   18  C17 UNL     1      24.112   0.395  53.342  1.00  0.00     0.061 A 
HETATM   19  C12 UNL     1      26.807   0.656  53.978  1.00  0.00     0.107 A 
HETATM   20  C15 UNL     1      26.276   1.406  52.939  1.00  0.00     0.136 A 
HETATM   21  C16 UNL     1      24.920   1.264  52.632  1.00  0.00     0.120 A 
HETATM   22  O3  UNL     1      26.921   2.322  52.118  1.00  0.00    -0.344 OA
HETATM   23  O2  UNL     1      24.236   1.939  51.623  1.00  0.00    -0.345 OA
HETATM   24  C18 UNL     1      24.965   2.768  50.725  1.00  0.00     0.202 C 
HETATM   25  C19 UNL     1      26.446   2.499  50.805  1.00  0.00     0.202 C 
BRANCH  19  26
HETATM   26  O1  UNL     1      28.149   0.893  54.174  1.00  0.00    -0.348 OA
BRANCH  26  27
HETATM   27  C13 UNL     1      29.067  -0.112  54.616  1.00  0.00     0.171 C 
HETATM   28  C14 UNL     1      29.610  -0.890  53.442  1.00  0.00     0.034 C 
ENDBRANCH  26  27
ENDBRANCH  19  26
ENDBRANCH  11  12
ENDBRANCH  10  11
ENDBRANCH   7  10
TORSDOF 5
ENDMDL
MODEL 8
REMARK VINA RESULT:      -7.5      3.461      6.685
REMARK  5 active torsions:
REMARK  status: ('A' for Active; 'I' for Inactive)
REMARK    1  A    between atoms: C7_7  and  N1_8 
REMARK    2  A    between atoms: N1_8  and  P1_9 
REMARK    3  A    between atoms: P1_9  and  C8_10 
REMARK    4  A    between atoms: C12_16  and  O1_17 
REMARK    5  A    between atoms: O1_17  and  C13_18 
ROOT
HETATM    1  C1  UNL     1      26.408   8.844  48.246  1.00  0.00     0.017 C 
HETATM    2  C2  UNL     1      26.791   7.702  48.310  1.00  0.00    -0.089 C 
HETATM    3  C3  UNL     1      27.236   6.336  48.368  1.00  0.00     0.075 C 
HETATM    4  C4  UNL     1      26.574   5.432  49.070  1.00  0.00    -0.029 A 
HETATM    5  C5  UNL     1      25.376   5.829  49.795  1.00  0.00     0.010 A 
HETATM    6  C6  UNL     1      24.729   4.899  50.494  1.00  0.00     0.005 A 
HETATM    7  C7  UNL     1      25.141   3.471  50.591  1.00  0.00     0.153 A 
HETATM    8  C20 UNL     1      26.365   3.214  49.810  1.00  0.00     0.005 A 
HETATM    9  C21 UNL     1      27.064   4.061  49.097  1.00  0.00     0.010 A 
ENDROOT
BRANCH   7  10
HETATM   10  N1  UNL     1      24.040   2.678  50.127  1.00  0.00    -0.275 NA
BRANCH  10  11
HETATM   11  P1  UNL     1      23.081   1.804  51.090  1.00  0.00     0.114 P 
BRANCH  11  12
HETATM   12  C8  UNL     1      21.330   1.645  50.555  1.00  0.00     0.106 A 
HETATM   13  N2  UNL     1      20.905   2.271  49.430  1.00  0.00    -0.238 NA
HETATM   14  C9  UNL     1      19.619   2.141  49.059  1.00  0.00     0.234 A 
HETATM   15  N3  UNL     1      18.739   1.399  49.784  1.00  0.00    -0.241 NA
HETATM   16  C10 UNL     1      19.182   0.784  50.902  1.00  0.00     0.076 A 
HETATM   17  C11 UNL     1      18.296   0.036  51.634  1.00  0.00     0.072 A 
HETATM   18  C17 UNL     1      20.486   0.881  51.332  1.00  0.00     0.061 A 
HETATM   19  C12 UNL     1      18.656  -0.626  52.787  1.00  0.00     0.107 A 
HETATM   20  C15 UNL     1      19.967  -0.535  53.229  1.00  0.00     0.136 A 
HETATM   21  C16 UNL     1      20.875   0.226  52.487  1.00  0.00     0.120 A 
HETATM   22  O3  UNL     1      20.542  -1.115  54.352  1.00  0.00    -0.344 OA
HETATM   23  O2  UNL     1      22.221   0.417  52.791  1.00  0.00    -0.345 OA
HETATM   24  C18 UNL     1      22.796  -0.301  53.877  1.00  0.00     0.202 C 
HETATM   25  C19 UNL     1      21.911  -1.440  54.315  1.00  0.00     0.202 C 
BRANCH  19  26
HETATM   26  O1  UNL     1      17.870  -1.403  53.608  1.00  0.00    -0.348 OA
BRANCH  26  27
HETATM   27  C13 UNL     1      17.974  -2.829  53.676  1.00  0.00     0.171 C 
HETATM   28  C14 UNL     1      16.669  -3.477  53.285  1.00  0.00     0.034 C 
ENDBRANCH  26  27
ENDBRANCH  19  26
ENDBRANCH  11  12
ENDBRANCH  10  11
ENDBRANCH   7  10
TORSDOF 5
ENDMDL
MODEL 9
REMARK VINA RESULT:      -7.5      4.351      8.411
REMARK  5 active torsions:
REMARK  status: ('A' for Active; 'I' for Inactive)
REMARK    1  A    between atoms: C7_7  and  N1_8 
REMARK    2  A    between atoms: N1_8  and  P1_9 
REMARK    3  A    between atoms: P1_9  and  C8_10 
REMARK    4  A    between atoms: C12_16  and  O1_17 
REMARK    5  A    between atoms: O1_17  and  C13_18 
ROOT
HETATM    1  C1  UNL     1      29.814  -0.223  53.574  1.00  0.00     0.017 C 
HETATM    2  C2  UNL     1      28.659  -0.566  53.526  1.00  0.00    -0.089 C 
HETATM    3  C3  UNL     1      27.284  -0.979  53.448  1.00  0.00     0.075 C 
HETATM    4  C4  UNL     1      26.322  -0.106  53.199  1.00  0.00    -0.029 A 
HETATM    5  C5  UNL     1      26.665   1.295  53.000  1.00  0.00     0.010 A 
HETATM    6  C6  UNL     1      25.677   2.152  52.751  1.00  0.00     0.005 A 
HETATM    7  C7  UNL     1      24.237   1.784  52.658  1.00  0.00     0.153 A 
HETATM    8  C20 UNL     1      24.040   0.339  52.879  1.00  0.00     0.005 A 
HETATM    9  C21 UNL     1      24.945  -0.573  53.129  1.00  0.00     0.010 A 
ENDROOT
BRANCH   7  10
HETATM   10  N1  UNL     1      23.776   2.189  51.362  1.00  0.00    -0.275 NA
BRANCH  10  11
HETATM   11  P1  UNL     1      23.646   3.727  50.885  1.00  0.00     0.114 P 
BRANCH  11  12
HETATM   12  C8  UNL     1      25.078   4.407  49.955  1.00  0.00     0.106 A 
HETATM   13  N2  UNL     1      26.131   3.609  49.653  1.00  0.00    -0.238 NA
HETATM   14  C9  UNL     1      27.168   4.129  48.973  1.00  0.00     0.234 A 
HETATM   15  N3  UNL     1      27.183   5.432  48.581  1.00  0.00    -0.241 NA
HETATM   16  C10 UNL     1      26.125   6.211  48.893  1.00  0.00     0.076 A 
HETATM   17  C11 UNL     1      26.138   7.523  48.499  1.00  0.00     0.072 A 
HETATM   18  C17 UNL     1      25.035   5.735  49.587  1.00  0.00     0.061 A 
HETATM   19  C12 UNL     1      25.104   8.393  48.770  1.00  0.00     0.107 A 
HETATM   20  C15 UNL     1      24.003   7.923  49.470  1.00  0.00     0.136 A 
HETATM   21  C16 UNL     1      23.983   6.586  49.873  1.00  0.00     0.120 A 
HETATM   22  O3  UNL     1      22.861   8.617  49.848  1.00  0.00    -0.344 OA
HETATM   23  O2  UNL     1      22.957   5.961  50.579  1.00  0.00    -0.345 OA
HETATM   24  C18 UNL     1      21.752   6.675  50.829  1.00  0.00     0.202 C 
HETATM   25  C19 UNL     1      21.651   7.907  49.967  1.00  0.00     0.202 C 
BRANCH  19  26
HETATM   26  O1  UNL     1      24.996   9.724  48.435  1.00  0.00    -0.348 OA
BRANCH  26  27
HETATM   27  C13 UNL     1      25.904  10.389  47.552  1.00  0.00     0.171 C 
HETATM   28  C14 UNL     1      26.917  11.189  48.334  1.00  0.00     0.034 C 
ENDBRANCH  26  27
ENDBRANCH  19  26
ENDBRANCH  11  12
ENDBRANCH  10  11
ENDBRANCH   7  10
TORSDOF 5
ENDMDL
