MODEL 1
REMARK VINA RESULT:      -7.1      0.000      0.000
REMARK  7 active torsions:
REMARK  status: ('A' for Active; 'I' for Inactive)
REMARK    1  A    between atoms: C2_2  and  C3_3 
REMARK    2  A    between atoms: C2_2  and  O1_11 
REMARK    3  A    between atoms: C3_3  and  C4_4 
REMARK    4  A    between atoms: O1_11  and  N1_12 
REMARK    5  A    between atoms: N1_12  and  S1_13 
REMARK    6  A    between atoms: S1_13  and  C10_16 
REMARK    7  A    between atoms: C10_16  and  C11_17 
ROOT
HETATM    1  N1  UNL     1      22.271   3.218  52.047  1.00  0.00    -0.094 NA
HETATM    2  H11 UNL     1      22.261   4.168  52.517  1.00  0.00     0.173 HD
ENDROOT
BRANCH   1   3
HETATM    3  O1  UNL     1      23.109   3.217  51.009  1.00  0.00    -0.286 OA
BRANCH   3   4
HETATM    4  C2  UNL     1      24.294   2.551  51.194  1.00  0.00     0.146 C 
HETATM    5  C1  UNL     1      25.405   3.400  50.596  1.00  0.00     0.042 C 
BRANCH   4   6
HETATM    6  C3  UNL     1      24.557   2.372  52.681  1.00  0.00     0.072 C 
BRANCH   6   7
HETATM    7  C4  UNL     1      25.785   1.552  52.886  1.00  0.00    -0.056 A 
HETATM    8  C5  UNL     1      25.922   0.317  52.304  1.00  0.00     0.008 A 
HETATM    9  C6  UNL     1      27.054  -0.425  52.500  1.00  0.00     0.019 A 
HETATM   10  C7  UNL     1      28.095   0.038  53.286  1.00  0.00     0.011 A 
HETATM   11 BR1  UNL     1      29.692  -0.985  53.574  1.00  0.00    -0.051 Br
HETATM   12  C8  UNL     1      27.980   1.269  53.877  1.00  0.00     0.019 A 
HETATM   13  C9  UNL     1      26.827   2.011  53.671  1.00  0.00     0.008 A 
ENDBRANCH   6   7
ENDBRANCH   4   6
ENDBRANCH   3   4
ENDBRANCH   1   3
BRANCH   1  14
HETATM   14  S1  UNL     1      20.675   2.855  51.510  1.00  0.00     0.235 S 
HETATM   15  O2  UNL     1      19.673   3.605  52.315  1.00  0.00    -0.209 OA
HETATM   16  O3  UNL     1      20.604   3.334  50.069  1.00  0.00    -0.209 OA
BRANCH  14  17
HETATM   17  C10 UNL     1      20.362   1.112  51.474  1.00  0.00     0.198 C 
BRANCH  17  18
HETATM   18  C11 UNL     1      21.106   0.391  52.540  1.00  0.00    -0.043 A 
HETATM   19  C12 UNL     1      20.620   0.551  53.843  1.00  0.00     0.008 A 
HETATM   20  C13 UNL     1      21.232  -0.073  54.911  1.00  0.00     0.001 A 
HETATM   21  C14 UNL     1      22.351  -0.868  54.650  1.00  0.00     0.000 A 
HETATM   22  C15 UNL     1      22.835  -1.028  53.347  1.00  0.00     0.001 A 
HETATM   23  C16 UNL     1      22.213  -0.397  52.281  1.00  0.00     0.008 A 
ENDBRANCH  17  18
ENDBRANCH  14  17
ENDBRANCH   1  14
TORSDOF 7
ENDMDL
MODEL 2
REMARK VINA RESULT:      -7.0      3.909      6.521
REMARK  7 active torsions:
REMARK  status: ('A' for Active; 'I' for Inactive)
REMARK    1  A    between atoms: C2_2  and  C3_3 
REMARK    2  A    between atoms: C2_2  and  O1_11 
REMARK    3  A    between atoms: C3_3  and  C4_4 
REMARK    4  A    between atoms: O1_11  and  N1_12 
REMARK    5  A    between atoms: N1_12  and  S1_13 
REMARK    6  A    between atoms: S1_13  and  C10_16 
REMARK    7  A    between atoms: C10_16  and  C11_17 
ROOT
HETATM    1  N1  UNL     1      24.581  -0.790  53.149  1.00  0.00    -0.094 NA
HETATM    2  H11 UNL     1      24.351  -0.072  52.404  1.00  0.00     0.173 HD
ENDROOT
BRANCH   1   3
HETATM    3  O1  UNL     1      23.644  -0.799  54.098  1.00  0.00    -0.286 OA
BRANCH   3   4
HETATM    4  C2  UNL     1      22.345  -0.832  53.658  1.00  0.00     0.146 C 
HETATM    5  C1  UNL     1      21.578  -1.805  54.541  1.00  0.00     0.042 C 
BRANCH   4   6
HETATM    6  C3  UNL     1      21.721   0.549  53.791  1.00  0.00     0.072 C 
BRANCH   6   7
HETATM    7  C4  UNL     1      21.353   1.073  52.444  1.00  0.00    -0.056 A 
HETATM    8  C5  UNL     1      21.825   0.485  51.298  1.00  0.00     0.008 A 
HETATM    9  C6  UNL     1      21.478   0.975  50.069  1.00  0.00     0.019 A 
HETATM   10  C7  UNL     1      20.647   2.074  49.936  1.00  0.00     0.011 A 
HETATM   11 BR1  UNL     1      20.148   2.778  48.224  1.00  0.00    -0.051 Br
HETATM   12  C8  UNL     1      20.164   2.677  51.069  1.00  0.00     0.019 A 
HETATM   13  C9  UNL     1      20.522   2.170  52.308  1.00  0.00     0.008 A 
ENDBRANCH   6   7
ENDBRANCH   4   6
ENDBRANCH   3   4
ENDBRANCH   1   3
BRANCH   1  14
HETATM   14  S1  UNL     1      26.108  -0.392  53.839  1.00  0.00     0.235 S 
HETATM   15  O2  UNL     1      26.009  -0.335  55.323  1.00  0.00    -0.209 OA
HETATM   16  O3  UNL     1      27.045  -1.525  53.454  1.00  0.00    -0.209 OA
BRANCH  14  17
HETATM   17  C10 UNL     1      26.793   1.084  53.140  1.00  0.00     0.198 C 
BRANCH  17  18
HETATM   18  C11 UNL     1      25.739   1.998  52.628  1.00  0.00    -0.043 A 
HETATM   19  C12 UNL     1      25.634   2.094  51.235  1.00  0.00     0.008 A 
HETATM   20  C13 UNL     1      24.690   2.912  50.649  1.00  0.00     0.001 A 
HETATM   21  C14 UNL     1      23.844   3.641  51.489  1.00  0.00     0.000 A 
HETATM   22  C15 UNL     1      23.950   3.544  52.881  1.00  0.00     0.001 A 
HETATM   23  C16 UNL     1      24.901   2.719  53.460  1.00  0.00     0.008 A 
ENDBRANCH  17  18
ENDBRANCH  14  17
ENDBRANCH   1  14
TORSDOF 7
ENDMDL
MODEL 3
REMARK VINA RESULT:      -6.8      3.655      6.568
REMARK  7 active torsions:
REMARK  status: ('A' for Active; 'I' for Inactive)
REMARK    1  A    between atoms: C2_2  and  C3_3 
REMARK    2  A    between atoms: C2_2  and  O1_11 
REMARK    3  A    between atoms: C3_3  and  C4_4 
REMARK    4  A    between atoms: O1_11  and  N1_12 
REMARK    5  A    between atoms: N1_12  and  S1_13 
REMARK    6  A    between atoms: S1_13  and  C10_16 
REMARK    7  A    between atoms: C10_16  and  C11_17 
ROOT
HETATM    1  N1  UNL     1      25.307   3.162  53.379  1.00  0.00    -0.094 NA
HETATM    2  H11 UNL     1      24.737   2.954  54.249  1.00  0.00     0.173 HD
ENDROOT
BRANCH   1   3
HETATM    3  O1  UNL     1      24.572   2.978  52.281  1.00  0.00    -0.286 OA
BRANCH   3   4
HETATM    4  C2  UNL     1      23.292   2.529  52.484  1.00  0.00     0.146 C 
HETATM    5  C1  UNL     1      22.337   3.630  52.047  1.00  0.00     0.042 C 
BRANCH   4   6
HETATM    6  C3  UNL     1      23.040   1.293  51.635  1.00  0.00     0.072 C 
BRANCH   6   7
HETATM    7  C4  UNL     1      21.728   0.684  51.999  1.00  0.00    -0.056 A 
HETATM    8  C5  UNL     1      20.679   0.674  51.115  1.00  0.00     0.008 A 
HETATM    9  C6  UNL     1      19.481   0.111  51.461  1.00  0.00     0.019 A 
HETATM   10  C7  UNL     1      19.283  -0.463  52.706  1.00  0.00     0.011 A 
HETATM   11 BR1  UNL     1      17.613  -1.257  53.212  1.00  0.00    -0.051 Br
HETATM   12  C8  UNL     1      20.319  -0.463  53.604  1.00  0.00     0.019 A 
HETATM   13  C9  UNL     1      21.528   0.110  53.241  1.00  0.00     0.008 A 
ENDBRANCH   6   7
ENDBRANCH   4   6
ENDBRANCH   3   4
ENDBRANCH   1   3
BRANCH   1  14
HETATM   14  S1  UNL     1      26.671   2.111  53.353  1.00  0.00     0.235 S 
HETATM   15  O2  UNL     1      27.181   1.956  51.963  1.00  0.00    -0.209 OA
HETATM   16  O3  UNL     1      27.737   2.795  54.193  1.00  0.00    -0.209 OA
BRANCH  14  17
HETATM   17  C10 UNL     1      26.334   0.559  54.137  1.00  0.00     0.198 C 
BRANCH  17  18
HETATM   18  C11 UNL     1      27.285  -0.499  53.708  1.00  0.00    -0.043 A 
HETATM   19  C12 UNL     1      28.619  -0.320  54.093  1.00  0.00     0.008 A 
HETATM   20  C13 UNL     1      29.588  -1.241  53.750  1.00  0.00     0.001 A 
HETATM   21  C14 UNL     1      29.195  -2.357  53.007  1.00  0.00     0.000 A 
HETATM   22  C15 UNL     1      27.861  -2.536  52.623  1.00  0.00     0.001 A 
HETATM   23  C16 UNL     1      26.896  -1.605  52.973  1.00  0.00     0.008 A 
ENDBRANCH  17  18
ENDBRANCH  14  17
ENDBRANCH   1  14
TORSDOF 7
ENDMDL
MODEL 4
REMARK VINA RESULT:      -6.8      2.276      5.217
REMARK  7 active torsions:
REMARK  status: ('A' for Active; 'I' for Inactive)
REMARK    1  A    between atoms: C2_2  and  C3_3 
REMARK    2  A    between atoms: C2_2  and  O1_11 
REMARK    3  A    between atoms: C3_3  and  C4_4 
REMARK    4  A    between atoms: O1_11  and  N1_12 
REMARK    5  A    between atoms: N1_12  and  S1_13 
REMARK    6  A    between atoms: S1_13  and  C10_16 
REMARK    7  A    between atoms: C10_16  and  C11_17 
ROOT
HETATM    1  N1  UNL     1      23.417   4.443  52.530  1.00  0.00    -0.094 NA
HETATM    2  H11 UNL     1      24.453   4.222  52.579  1.00  0.00     0.173 HD
ENDROOT
BRANCH   1   3
HETATM    3  O1  UNL     1      22.713   3.339  52.275  1.00  0.00    -0.286 OA
BRANCH   3   4
HETATM    4  C2  UNL     1      23.300   2.155  52.644  1.00  0.00     0.146 C 
HETATM    5  C1  UNL     1      22.191   1.143  52.889  1.00  0.00     0.042 C 
BRANCH   4   6
HETATM    6  C3  UNL     1      24.188   1.648  51.518  1.00  0.00     0.072 C 
BRANCH   6   7
HETATM    7  C4  UNL     1      25.482   1.155  52.072  1.00  0.00    -0.056 A 
HETATM    8  C5  UNL     1      26.509   2.018  52.357  1.00  0.00     0.008 A 
HETATM    9  C6  UNL     1      27.691   1.553  52.865  1.00  0.00     0.019 A 
HETATM   10  C7  UNL     1      27.892   0.205  53.110  1.00  0.00     0.011 A 
HETATM   11 BR1  UNL     1      29.540  -0.469  53.823  1.00  0.00    -0.051 Br
HETATM   12  C8  UNL     1      26.878  -0.675  52.833  1.00  0.00     0.019 A 
HETATM   13  C9  UNL     1      25.686  -0.190  52.318  1.00  0.00     0.008 A 
ENDBRANCH   6   7
ENDBRANCH   4   6
ENDBRANCH   3   4
ENDBRANCH   1   3
BRANCH   1  14
HETATM   14  S1  UNL     1      23.161   5.602  51.282  1.00  0.00     0.235 S 
HETATM   15  O2  UNL     1      21.798   6.189  51.390  1.00  0.00    -0.209 OA
HETATM   16  O3  UNL     1      24.187   6.697  51.517  1.00  0.00    -0.209 OA
BRANCH  14  17
HETATM   17  C10 UNL     1      23.496   4.937  49.675  1.00  0.00     0.198 C 
BRANCH  17  18
HETATM   18  C11 UNL     1      24.896   5.197  49.246  1.00  0.00    -0.043 A 
HETATM   19  C12 UNL     1      25.812   4.167  49.488  1.00  0.00     0.008 A 
HETATM   20  C13 UNL     1      27.139   4.298  49.130  1.00  0.00     0.001 A 
HETATM   21  C14 UNL     1      27.537   5.491  48.521  1.00  0.00     0.000 A 
HETATM   22  C15 UNL     1      26.619   6.520  48.279  1.00  0.00     0.001 A 
HETATM   23  C16 UNL     1      25.289   6.378  48.641  1.00  0.00     0.008 A 
ENDBRANCH  17  18
ENDBRANCH  14  17
ENDBRANCH   1  14
TORSDOF 7
ENDMDL
MODEL 5
REMARK VINA RESULT:      -6.8      3.644      5.652
REMARK  7 active torsions:
REMARK  status: ('A' for Active; 'I' for Inactive)
REMARK    1  A    between atoms: C2_2  and  C3_3 
REMARK    2  A    between atoms: C2_2  and  O1_11 
REMARK    3  A    between atoms: C3_3  and  C4_4 
REMARK    4  A    between atoms: O1_11  and  N1_12 
REMARK    5  A    between atoms: N1_12  and  S1_13 
REMARK    6  A    between atoms: S1_13  and  C10_16 
REMARK    7  A    between atoms: C10_16  and  C11_17 
ROOT
HETATM    1  N1  UNL     1      25.360   2.835  53.419  1.00  0.00    -0.094 NA
HETATM    2  H11 UNL     1      24.577   2.374  53.964  1.00  0.00     0.173 HD
ENDROOT
BRANCH   1   3
HETATM    3  O1  UNL     1      24.926   3.238  52.224  1.00  0.00    -0.286 OA
BRANCH   3   4
HETATM    4  C2  UNL     1      23.603   3.596  52.156  1.00  0.00     0.146 C 
HETATM    5  C1  UNL     1      23.529   5.115  52.185  1.00  0.00     0.042 C 
BRANCH   4   6
HETATM    6  C3  UNL     1      23.002   3.100  50.850  1.00  0.00     0.072 C 
BRANCH   6   7
HETATM    7  C4  UNL     1      21.816   2.240  51.129  1.00  0.00    -0.056 A 
HETATM    8  C5  UNL     1      21.483   1.197  50.302  1.00  0.00     0.008 A 
HETATM    9  C6  UNL     1      20.392   0.416  50.570  1.00  0.00     0.019 A 
HETATM   10  C7  UNL     1      19.591   0.646  51.675  1.00  0.00     0.011 A 
HETATM   11 BR1  UNL     1      18.058  -0.436  52.070  1.00  0.00    -0.051 Br
HETATM   12  C8  UNL     1      19.906   1.684  52.515  1.00  0.00     0.019 A 
HETATM   13  C9  UNL     1      21.014   2.468  52.232  1.00  0.00     0.008 A 
ENDBRANCH   6   7
ENDBRANCH   4   6
ENDBRANCH   3   4
ENDBRANCH   1   3
BRANCH   1  14
HETATM   14  S1  UNL     1      26.636   1.694  53.222  1.00  0.00     0.235 S 
HETATM   15  O2  UNL     1      27.673   2.228  52.297  1.00  0.00    -0.209 OA
HETATM   16  O3  UNL     1      27.251   1.520  54.601  1.00  0.00    -0.209 OA
BRANCH  14  17
HETATM   17  C10 UNL     1      26.038   0.100  52.735  1.00  0.00     0.198 C 
BRANCH  17  18
HETATM   18  C11 UNL     1      24.899  -0.349  53.579  1.00  0.00    -0.043 A 
HETATM   19  C12 UNL     1      23.627  -0.225  53.008  1.00  0.00     0.008 A 
HETATM   20  C13 UNL     1      22.497  -0.611  53.701  1.00  0.00     0.001 A 
HETATM   21  C14 UNL     1      22.665  -1.129  54.988  1.00  0.00     0.000 A 
HETATM   22  C15 UNL     1      23.937  -1.253  55.557  1.00  0.00     0.001 A 
HETATM   23  C16 UNL     1      25.065  -0.863  54.853  1.00  0.00     0.008 A 
ENDBRANCH  17  18
ENDBRANCH  14  17
ENDBRANCH   1  14
TORSDOF 7
ENDMDL
MODEL 6
REMARK VINA RESULT:      -6.7      1.381      1.858
REMARK  7 active torsions:
REMARK  status: ('A' for Active; 'I' for Inactive)
REMARK    1  A    between atoms: C2_2  and  C3_3 
REMARK    2  A    between atoms: C2_2  and  O1_11 
REMARK    3  A    between atoms: C3_3  and  C4_4 
REMARK    4  A    between atoms: O1_11  and  N1_12 
REMARK    5  A    between atoms: N1_12  and  S1_13 
REMARK    6  A    between atoms: S1_13  and  C10_16 
REMARK    7  A    between atoms: C10_16  and  C11_17 
ROOT
HETATM    1  N1  UNL     1      20.522   2.983  50.411  1.00  0.00    -0.094 NA
HETATM    2  H11 UNL     1      20.683   2.078  49.882  1.00  0.00     0.173 HD
ENDROOT
BRANCH   1   3
HETATM    3  O1  UNL     1      21.675   3.624  50.605  1.00  0.00    -0.286 OA
BRANCH   3   4
HETATM    4  C2  UNL     1      22.814   2.898  50.364  1.00  0.00     0.146 C 
HETATM    5  C1  UNL     1      22.910   2.666  48.864  1.00  0.00     0.042 C 
BRANCH   4   6
HETATM    6  C3  UNL     1      24.032   3.687  50.819  1.00  0.00     0.072 C 
BRANCH   6   7
HETATM    7  C4  UNL     1      24.875   2.848  51.719  1.00  0.00    -0.056 A 
HETATM    8  C5  UNL     1      25.830   2.002  51.215  1.00  0.00     0.008 A 
HETATM    9  C6  UNL     1      26.597   1.238  52.052  1.00  0.00     0.019 A 
HETATM   10  C7  UNL     1      26.439   1.289  53.426  1.00  0.00     0.011 A 
HETATM   11 BR1  UNL     1      27.503   0.228  54.618  1.00  0.00    -0.051 Br
HETATM   12  C8  UNL     1      25.490   2.128  53.951  1.00  0.00     0.019 A 
HETATM   13  C9  UNL     1      24.719   2.897  53.092  1.00  0.00     0.008 A 
ENDBRANCH   6   7
ENDBRANCH   4   6
ENDBRANCH   3   4
ENDBRANCH   1   3
BRANCH   1  14
HETATM   14  S1  UNL     1      19.798   2.609  51.929  1.00  0.00     0.235 S 
HETATM   15  O2  UNL     1      20.526   3.292  53.033  1.00  0.00    -0.209 OA
HETATM   16  O3  UNL     1      18.384   3.160  51.859  1.00  0.00    -0.209 OA
BRANCH  14  17
HETATM   17  C10 UNL     1      19.644   0.864  52.185  1.00  0.00     0.198 C 
BRANCH  17  18
HETATM   18  C11 UNL     1      20.848   0.289  52.841  1.00  0.00    -0.043 A 
HETATM   19  C12 UNL     1      20.707  -0.049  54.192  1.00  0.00     0.008 A 
HETATM   20  C13 UNL     1      21.760  -0.590  54.902  1.00  0.00     0.001 A 
HETATM   21  C14 UNL     1      22.968  -0.790  54.230  1.00  0.00     0.000 A 
HETATM   22  C15 UNL     1      23.107  -0.453  52.879  1.00  0.00     0.001 A 
HETATM   23  C16 UNL     1      22.044   0.090  52.175  1.00  0.00     0.008 A 
ENDBRANCH  17  18
ENDBRANCH  14  17
ENDBRANCH   1  14
TORSDOF 7
ENDMDL
MODEL 7
REMARK VINA RESULT:      -6.6      4.128      5.956
REMARK  7 active torsions:
REMARK  status: ('A' for Active; 'I' for Inactive)
REMARK    1  A    between atoms: C2_2  and  C3_3 
REMARK    2  A    between atoms: C2_2  and  O1_11 
REMARK    3  A    between atoms: C3_3  and  C4_4 
REMARK    4  A    between atoms: O1_11  and  N1_12 
REMARK    5  A    between atoms: N1_12  and  S1_13 
REMARK    6  A    between atoms: S1_13  and  C10_16 
REMARK    7  A    between atoms: C10_16  and  C11_17 
ROOT
HETATM    1  N1  UNL     1      24.294   4.294  51.554  1.00  0.00    -0.094 NA
HETATM    2  H11 UNL     1      23.691   4.723  52.313  1.00  0.00     0.173 HD
ENDROOT
BRANCH   1   3
HETATM    3  O1  UNL     1      23.599   4.158  50.424  1.00  0.00    -0.286 OA
BRANCH   3   4
HETATM    4  C2  UNL     1      24.199   4.641  49.288  1.00  0.00     0.146 C 
HETATM    5  C1  UNL     1      23.130   4.762  48.212  1.00  0.00     0.042 C 
BRANCH   4   6
HETATM    6  C3  UNL     1      24.780   6.020  49.560  1.00  0.00     0.072 C 
BRANCH   6   7
HETATM    7  C4  UNL     1      26.188   6.084  49.071  1.00  0.00    -0.056 A 
HETATM    8  C5  UNL     1      26.936   4.946  48.906  1.00  0.00     0.008 A 
HETATM    9  C6  UNL     1      28.226   5.020  48.456  1.00  0.00     0.019 A 
HETATM   10  C7  UNL     1      28.819   6.233  48.153  1.00  0.00     0.011 A 
HETATM   11 BR1  UNL     1      30.625   6.359  47.521  1.00  0.00    -0.051 Br
HETATM   12  C8  UNL     1      28.088   7.383  48.311  1.00  0.00     0.019 A 
HETATM   13  C9  UNL     1      26.783   7.295  48.768  1.00  0.00     0.008 A 
ENDBRANCH   6   7
ENDBRANCH   4   6
ENDBRANCH   3   4
ENDBRANCH   1   3
BRANCH   1  14
HETATM   14  S1  UNL     1      24.840   2.752  52.094  1.00  0.00     0.235 S 
HETATM   15  O2  UNL     1      24.820   2.685  53.580  1.00  0.00    -0.209 OA
HETATM   16  O3  UNL     1      23.844   1.745  51.544  1.00  0.00    -0.209 OA
BRANCH  14  17
HETATM   17  C10 UNL     1      26.416   2.324  51.408  1.00  0.00     0.198 C 
BRANCH  17  18
HETATM   18  C11 UNL     1      27.105   1.278  52.209  1.00  0.00    -0.043 A 
HETATM   19  C12 UNL     1      28.112   1.729  53.070  1.00  0.00     0.008 A 
HETATM   20  C13 UNL     1      28.818   0.845  53.862  1.00  0.00     0.001 A 
HETATM   21  C14 UNL     1      28.495  -0.511  53.775  1.00  0.00     0.000 A 
HETATM   22  C15 UNL     1      27.488  -0.961  52.914  1.00  0.00     0.001 A 
HETATM   23  C16 UNL     1      26.785  -0.065  52.124  1.00  0.00     0.008 A 
ENDBRANCH  17  18
ENDBRANCH  14  17
ENDBRANCH   1  14
TORSDOF 7
ENDMDL
MODEL 8
REMARK VINA RESULT:      -6.6      3.918      7.196
REMARK  7 active torsions:
REMARK  status: ('A' for Active; 'I' for Inactive)
REMARK    1  A    between atoms: C2_2  and  C3_3 
REMARK    2  A    between atoms: C2_2  and  O1_11 
REMARK    3  A    between atoms: C3_3  and  C4_4 
REMARK    4  A    between atoms: O1_11  and  N1_12 
REMARK    5  A    between atoms: N1_12  and  S1_13 
REMARK    6  A    between atoms: S1_13  and  C10_16 
REMARK    7  A    between atoms: C10_16  and  C11_17 
ROOT
HETATM    1  N1  UNL     1      23.926   0.459  52.702  1.00  0.00    -0.094 NA
HETATM    2  H11 UNL     1      23.110   1.136  52.690  1.00  0.00     0.173 HD
ENDROOT
BRANCH   1   3
HETATM    3  O1  UNL     1      23.656  -0.588  53.482  1.00  0.00    -0.286 OA
BRANCH   3   4
HETATM    4  C2  UNL     1      22.330  -0.917  53.607  1.00  0.00     0.146 C 
HETATM    5  C1  UNL     1      22.157  -1.661  54.923  1.00  0.00     0.042 C 
BRANCH   4   6
HETATM    6  C3  UNL     1      21.487   0.348  53.643  1.00  0.00     0.072 C 
BRANCH   6   7
HETATM    7  C4  UNL     1      20.319   0.209  52.726  1.00  0.00    -0.056 A 
HETATM    8  C5  UNL     1      20.322   0.780  51.478  1.00  0.00     0.008 A 
HETATM    9  C6  UNL     1      19.244   0.643  50.647  1.00  0.00     0.019 A 
HETATM   10  C7  UNL     1      18.121  -0.069  51.029  1.00  0.00     0.011 A 
HETATM   11 BR1  UNL     1      16.599  -0.273  49.880  1.00  0.00    -0.051 Br
HETATM   12  C8  UNL     1      18.098  -0.648  52.272  1.00  0.00     0.019 A 
HETATM   13  C9  UNL     1      19.196  -0.503  53.105  1.00  0.00     0.008 A 
ENDBRANCH   6   7
ENDBRANCH   4   6
ENDBRANCH   3   4
ENDBRANCH   1   3
BRANCH   1  14
HETATM   14  S1  UNL     1      25.315   1.287  53.296  1.00  0.00     0.235 S 
HETATM   15  O2  UNL     1      25.005   2.725  53.523  1.00  0.00    -0.209 OA
HETATM   16  O3  UNL     1      25.644   0.640  54.631  1.00  0.00    -0.209 OA
BRANCH  14  17
HETATM   17  C10 UNL     1      26.731   1.046  52.259  1.00  0.00     0.198 C 
BRANCH  17  18
HETATM   18  C11 UNL     1      27.452  -0.212  52.586  1.00  0.00    -0.043 A 
HETATM   19  C12 UNL     1      28.716  -0.061  53.169  1.00  0.00     0.008 A 
HETATM   20  C13 UNL     1      29.474  -1.162  53.514  1.00  0.00     0.001 A 
HETATM   21  C14 UNL     1      28.941  -2.428  53.263  1.00  0.00     0.000 A 
HETATM   22  C15 UNL     1      27.677  -2.577  52.681  1.00  0.00     0.001 A 
HETATM   23  C16 UNL     1      26.923  -1.466  52.339  1.00  0.00     0.008 A 
ENDBRANCH  17  18
ENDBRANCH  14  17
ENDBRANCH   1  14
TORSDOF 7
ENDMDL
MODEL 9
REMARK VINA RESULT:      -6.4      3.029      4.163
REMARK  7 active torsions:
REMARK  status: ('A' for Active; 'I' for Inactive)
REMARK    1  A    between atoms: C2_2  and  C3_3 
REMARK    2  A    between atoms: C2_2  and  O1_11 
REMARK    3  A    between atoms: C3_3  and  C4_4 
REMARK    4  A    between atoms: O1_11  and  N1_12 
REMARK    5  A    between atoms: N1_12  and  S1_13 
REMARK    6  A    between atoms: S1_13  and  C10_16 
REMARK    7  A    between atoms: C10_16  and  C11_17 
ROOT
HETATM    1  N1  UNL     1      21.924   3.199  50.618  1.00  0.00    -0.094 NA
HETATM    2  H11 UNL     1      22.639   2.422  50.517  1.00  0.00     0.173 HD
ENDROOT
BRANCH   1   3
HETATM    3  O1  UNL     1      22.400   4.177  51.391  1.00  0.00    -0.286 OA
BRANCH   3   4
HETATM    4  C2  UNL     1      23.755   4.165  51.608  1.00  0.00     0.146 C 
HETATM    5  C1  UNL     1      24.011   3.429  52.915  1.00  0.00     0.042 C 
BRANCH   4   6
HETATM    6  C3  UNL     1      24.450   3.419  50.480  1.00  0.00     0.072 C 
BRANCH   6   7
HETATM    7  C4  UNL     1      25.415   4.324  49.790  1.00  0.00    -0.056 A 
HETATM    8  C5  UNL     1      25.097   5.631  49.522  1.00  0.00     0.008 A 
HETATM    9  C6  UNL     1      25.991   6.450  48.889  1.00  0.00     0.019 A 
HETATM   10  C7  UNL     1      27.239   5.996  48.499  1.00  0.00     0.011 A 
HETATM   11 BR1  UNL     1      28.508   7.126  47.611  1.00  0.00    -0.051 Br
HETATM   12  C8  UNL     1      27.577   4.692  48.758  1.00  0.00     0.019 A 
HETATM   13  C9  UNL     1      26.662   3.872  49.400  1.00  0.00     0.008 A 
ENDBRANCH   6   7
ENDBRANCH   4   6
ENDBRANCH   3   4
ENDBRANCH   1   3
BRANCH   1  14
HETATM   14  S1  UNL     1      20.495   2.542  51.320  1.00  0.00     0.235 S 
HETATM   15  O2  UNL     1      20.296   3.080  52.693  1.00  0.00    -0.209 OA
HETATM   16  O3  UNL     1      19.349   3.010  50.439  1.00  0.00    -0.209 OA
BRANCH  14  17
HETATM   17  C10 UNL     1      20.478   0.771  51.267  1.00  0.00     0.198 C 
BRANCH  17  18
HETATM   18  C11 UNL     1      21.161   0.173  52.444  1.00  0.00    -0.043 A 
HETATM   19  C12 UNL     1      22.560   0.215  52.429  1.00  0.00     0.008 A 
HETATM   20  C13 UNL     1      23.297  -0.311  53.471  1.00  0.00     0.001 A 
HETATM   21  C14 UNL     1      22.603  -0.885  54.539  1.00  0.00     0.000 A 
HETATM   22  C15 UNL     1      21.204  -0.926  54.553  1.00  0.00     0.001 A 
HETATM   23  C16 UNL     1      20.473  -0.395  53.502  1.00  0.00     0.008 A 
ENDBRANCH  17  18
ENDBRANCH  14  17
ENDBRANCH   1  14
TORSDOF 7
ENDMDL
