MODEL 1
REMARK VINA RESULT:      -8.1      0.000      0.000
REMARK  6 active torsions:
REMARK  status: ('A' for Active; 'I' for Inactive)
REMARK    1  A    between atoms: N1_7  and  C7_8 
REMARK    2  A    between atoms: C7_8  and  C8_9 
REMARK    3  A    between atoms: C11_12  and  O1_13 
REMARK    4  A    between atoms: C14_16  and  N2_17 
REMARK    5  A    between atoms: C19_22  and  S1_23 
REMARK    6  A    between atoms: C20_24  and  O2_25 
ROOT
HETATM    1  C1  UNL     1      21.003   1.740  48.560  1.00  0.00     0.051 C 
HETATM    2  C2  UNL     1      21.873   1.576  49.737  1.00  0.00    -0.025 C 
HETATM    3  C3  UNL     1      21.433   0.598  50.547  1.00  0.00     0.009 C 
HETATM    4  C4  UNL     1      21.929   0.047  51.828  1.00  0.00    -0.002 C 
HETATM    5  C5  UNL     1      22.543   0.670  52.818  1.00  0.00    -0.007 C 
HETATM    6  C6  UNL     1      23.004   2.042  53.152  1.00  0.00     0.152 C 
HETATM    7  N1  UNL     1      24.009   2.505  52.219  1.00  0.00    -0.357 N 
HETATM    8  C14 UNL     1      23.871   2.817  50.839  1.00  0.00     0.145 C 
HETATM    9  C20 UNL     1      23.047   2.476  49.830  1.00  0.00     0.116 C 
ENDROOT
BRANCH   7  10
HETATM   10  C7  UNL     1      25.367   2.682  52.668  1.00  0.00     0.163 C 
BRANCH  10  11
HETATM   11  C8  UNL     1      26.146   1.434  52.792  1.00  0.00    -0.040 A 
HETATM   12  C9  UNL     1      26.050   0.273  52.057  1.00  0.00     0.011 A 
HETATM   13  C10 UNL     1      26.837  -0.834  52.280  1.00  0.00     0.037 A 
HETATM   14  C11 UNL     1      27.788  -0.838  53.278  1.00  0.00     0.065 A 
HETATM   15  C12 UNL     1      27.942   0.286  54.053  1.00  0.00     0.037 A 
HETATM   16  C13 UNL     1      27.128   1.368  53.791  1.00  0.00     0.011 A 
BRANCH  14  17
HETATM   17  O1  UNL     1      28.577  -1.948  53.502  1.00  0.00    -0.361 OA
HETATM   18  H13 UNL     1      28.459  -2.818  52.989  1.00  0.00     0.217 HD
ENDBRANCH  14  17
ENDBRANCH  10  11
ENDBRANCH   7  10
BRANCH   8  19
HETATM   19  N2  UNL     1      24.797   3.709  50.238  1.00  0.00    -0.300 N 
HETATM   20  C15 UNL     1      25.979   3.280  49.541  1.00  0.00     0.112 C 
HETATM   21  C16 UNL     1      26.943   4.074  49.174  1.00  0.00    -0.008 C 
HETATM   22  C17 UNL     1      26.757   5.340  49.006  1.00  0.00     0.016 C 
HETATM   23  C18 UNL     1      25.615   5.902  49.674  1.00  0.00     0.038 C 
HETATM   24  C19 UNL     1      24.700   5.151  50.249  1.00  0.00     0.074 C 
BRANCH  24  25
HETATM   25  S1  UNL     1      23.284   5.860  51.078  1.00  0.00    -0.125 SA
HETATM   26  H19 UNL     1      23.344   7.266  50.976  1.00  0.00     0.108 HD
ENDBRANCH  24  25
ENDBRANCH   8  19
BRANCH   9  27
HETATM   27  O2  UNL     1      23.281   3.040  48.595  1.00  0.00    -0.357 OA
HETATM   28  H20 UNL     1      23.285   4.036  48.443  1.00  0.00     0.218 HD
ENDBRANCH   9  27
TORSDOF 6
ENDMDL
MODEL 2
REMARK VINA RESULT:      -7.3      2.110      5.416
REMARK  6 active torsions:
REMARK  status: ('A' for Active; 'I' for Inactive)
REMARK    1  A    between atoms: N1_7  and  C7_8 
REMARK    2  A    between atoms: C7_8  and  C8_9 
REMARK    3  A    between atoms: C11_12  and  O1_13 
REMARK    4  A    between atoms: C14_16  and  N2_17 
REMARK    5  A    between atoms: C19_22  and  S1_23 
REMARK    6  A    between atoms: C20_24  and  O2_25 
ROOT
HETATM    1  C1  UNL     1      23.177  -0.423  54.047  1.00  0.00     0.051 C 
HETATM    2  C2  UNL     1      24.069   0.185  53.045  1.00  0.00    -0.025 C 
HETATM    3  C3  UNL     1      25.342  -0.216  53.206  1.00  0.00     0.009 C 
HETATM    4  C4  UNL     1      26.597   0.091  52.485  1.00  0.00    -0.002 C 
HETATM    5  C5  UNL     1      26.965   1.218  51.902  1.00  0.00    -0.007 C 
HETATM    6  C6  UNL     1      26.422   2.582  51.677  1.00  0.00     0.152 C 
HETATM    7  N1  UNL     1      25.215   2.548  50.879  1.00  0.00    -0.357 N 
HETATM    8  C14 UNL     1      23.936   2.023  51.216  1.00  0.00     0.145 C 
HETATM    9  C20 UNL     1      23.443   1.098  52.060  1.00  0.00     0.116 C 
ENDROOT
BRANCH   7  10
HETATM   10  C7  UNL     1      25.232   3.080  49.541  1.00  0.00     0.163 C 
BRANCH  10  11
HETATM   11  C8  UNL     1      25.792   4.442  49.423  1.00  0.00    -0.040 A 
HETATM   12  C9  UNL     1      25.264   5.638  49.854  1.00  0.00     0.011 A 
HETATM   13  C10 UNL     1      25.889   6.852  49.676  1.00  0.00     0.037 A 
HETATM   14  C11 UNL     1      27.108   6.934  49.039  1.00  0.00     0.065 A 
HETATM   15  C12 UNL     1      27.697   5.780  48.581  1.00  0.00     0.037 A 
HETATM   16  C13 UNL     1      27.031   4.590  48.783  1.00  0.00     0.011 A 
BRANCH  14  17
HETATM   17  O1  UNL     1      27.735   8.150  48.859  1.00  0.00    -0.361 OA
HETATM   18  H13 UNL     1      27.248   9.038  48.958  1.00  0.00     0.217 HD
ENDBRANCH  14  17
ENDBRANCH  10  11
ENDBRANCH   7  10
BRANCH   8  19
HETATM   19  N2  UNL     1      22.789   2.519  50.542  1.00  0.00    -0.300 N 
HETATM   20  C15 UNL     1      22.198   1.878  49.400  1.00  0.00     0.112 C 
HETATM   21  C16 UNL     1      21.289   2.422  48.643  1.00  0.00    -0.008 C 
HETATM   22  C17 UNL     1      20.528   3.374  49.068  1.00  0.00     0.016 C 
HETATM   23  C18 UNL     1      21.019   4.114  50.198  1.00  0.00     0.038 C 
HETATM   24  C19 UNL     1      22.070   3.723  50.888  1.00  0.00     0.074 C 
BRANCH  24  25
HETATM   25  S1  UNL     1      22.672   4.650  52.293  1.00  0.00    -0.125 SA
HETATM   26  H19 UNL     1      22.812   3.780  53.395  1.00  0.00     0.108 HD
ENDBRANCH  24  25
ENDBRANCH   8  19
BRANCH   9  27
HETATM   27  O2  UNL     1      22.080   0.900  52.066  1.00  0.00    -0.357 OA
HETATM   28  H20 UNL     1      21.650   0.079  52.462  1.00  0.00     0.218 HD
ENDBRANCH   9  27
TORSDOF 6
ENDMDL
MODEL 3
REMARK VINA RESULT:      -7.2      2.897      3.760
REMARK  6 active torsions:
REMARK  status: ('A' for Active; 'I' for Inactive)
REMARK    1  A    between atoms: N1_7  and  C7_8 
REMARK    2  A    between atoms: C7_8  and  C8_9 
REMARK    3  A    between atoms: C11_12  and  O1_13 
REMARK    4  A    between atoms: C14_16  and  N2_17 
REMARK    5  A    between atoms: C19_22  and  S1_23 
REMARK    6  A    between atoms: C20_24  and  O2_25 
ROOT
HETATM    1  C1  UNL     1      17.624  -0.526  52.354  1.00  0.00     0.051 C 
HETATM    2  C2  UNL     1      19.082  -0.507  52.557  1.00  0.00    -0.025 C 
HETATM    3  C3  UNL     1      19.452  -1.311  53.570  1.00  0.00     0.009 C 
HETATM    4  C4  UNL     1      20.764  -1.642  54.169  1.00  0.00    -0.002 C 
HETATM    5  C5  UNL     1      21.830  -0.874  54.313  1.00  0.00    -0.007 C 
HETATM    6  C6  UNL     1      22.245   0.519  54.008  1.00  0.00     0.152 C 
HETATM    7  N1  UNL     1      22.236   0.775  52.583  1.00  0.00    -0.357 N 
HETATM    8  C14 UNL     1      21.127   0.841  51.695  1.00  0.00     0.145 C 
HETATM    9  C20 UNL     1      19.873   0.355  51.648  1.00  0.00     0.116 C 
ENDROOT
BRANCH   7  10
HETATM   10  C7  UNL     1      23.482   0.983  51.890  1.00  0.00     0.163 C 
BRANCH  10  11
HETATM   11  C8  UNL     1      24.689   0.802  52.721  1.00  0.00    -0.040 A 
HETATM   12  C9  UNL     1      25.380   1.733  53.463  1.00  0.00     0.011 A 
HETATM   13  C10 UNL     1      26.507   1.436  54.196  1.00  0.00     0.037 A 
HETATM   14  C11 UNL     1      27.017   0.156  54.224  1.00  0.00     0.065 A 
HETATM   15  C12 UNL     1      26.380  -0.828  53.507  1.00  0.00     0.037 A 
HETATM   16  C13 UNL     1      25.255  -0.479  52.789  1.00  0.00     0.011 A 
BRANCH  14  17
HETATM   17  O1  UNL     1      28.146  -0.143  54.957  1.00  0.00    -0.361 OA
HETATM   18  H13 UNL     1      28.816   0.566  55.247  1.00  0.00     0.217 HD
ENDBRANCH  14  17
ENDBRANCH  10  11
ENDBRANCH   7  10
BRANCH   8  19
HETATM   19  N2  UNL     1      21.254   1.580  50.490  1.00  0.00    -0.300 N 
HETATM   20  C15 UNL     1      21.543   0.982  49.215  1.00  0.00     0.112 C 
HETATM   21  C16 UNL     1      21.874   1.652  48.149  1.00  0.00    -0.008 C 
HETATM   22  C17 UNL     1      21.563   2.896  48.001  1.00  0.00     0.016 C 
HETATM   23  C18 UNL     1      21.273   3.620  49.209  1.00  0.00     0.038 C 
HETATM   24  C19 UNL     1      21.128   3.015  50.369  1.00  0.00     0.074 C 
BRANCH  24  25
HETATM   25  S1  UNL     1      20.767   3.923  51.866  1.00  0.00    -0.125 SA
HETATM   26  H19 UNL     1      19.369   4.061  51.997  1.00  0.00     0.108 HD
ENDBRANCH  24  25
ENDBRANCH   8  19
BRANCH   9  27
HETATM   27  O2  UNL     1      19.101   0.682  50.555  1.00  0.00    -0.357 OA
HETATM   28  H20 UNL     1      18.129   0.939  50.630  1.00  0.00     0.218 HD
ENDBRANCH   9  27
TORSDOF 6
ENDMDL
MODEL 4
REMARK VINA RESULT:      -7.1      2.754      5.963
REMARK  6 active torsions:
REMARK  status: ('A' for Active; 'I' for Inactive)
REMARK    1  A    between atoms: N1_7  and  C7_8 
REMARK    2  A    between atoms: C7_8  and  C8_9 
REMARK    3  A    between atoms: C11_12  and  O1_13 
REMARK    4  A    between atoms: C14_16  and  N2_17 
REMARK    5  A    between atoms: C19_22  and  S1_23 
REMARK    6  A    between atoms: C20_24  and  O2_25 
ROOT
HETATM    1  C1  UNL     1      23.022  -1.880  55.628  1.00  0.00     0.051 C 
HETATM    2  C2  UNL     1      23.126  -0.801  54.631  1.00  0.00    -0.025 C 
HETATM    3  C3  UNL     1      21.914  -0.343  54.269  1.00  0.00     0.009 C 
HETATM    4  C4  UNL     1      21.473   0.707  53.324  1.00  0.00    -0.002 C 
HETATM    5  C5  UNL     1      22.019   1.078  52.179  1.00  0.00    -0.007 C 
HETATM    6  C6  UNL     1      23.187   0.714  51.336  1.00  0.00     0.152 C 
HETATM    7  N1  UNL     1      24.436   0.956  52.027  1.00  0.00    -0.357 N 
HETATM    8  C14 UNL     1      24.969   0.293  53.166  1.00  0.00     0.145 C 
HETATM    9  C20 UNL     1      24.491  -0.409  54.211  1.00  0.00     0.116 C 
ENDROOT
BRANCH   7  10
HETATM   10  C7  UNL     1      25.308   2.010  51.572  1.00  0.00     0.163 C 
BRANCH  10  11
HETATM   11  C8  UNL     1      24.718   3.363  51.615  1.00  0.00    -0.040 A 
HETATM   12  C9  UNL     1      23.928   3.935  52.586  1.00  0.00     0.011 A 
HETATM   13  C10 UNL     1      23.430   5.217  52.503  1.00  0.00     0.037 A 
HETATM   14  C11 UNL     1      23.706   6.014  51.413  1.00  0.00     0.065 A 
HETATM   15  C12 UNL     1      24.490   5.511  50.403  1.00  0.00     0.037 A 
HETATM   16  C13 UNL     1      24.962   4.222  50.533  1.00  0.00     0.011 A 
BRANCH  14  17
HETATM   17  O1  UNL     1      23.208   7.298  51.329  1.00  0.00    -0.361 OA
HETATM   18  H13 UNL     1      22.335   7.518  50.857  1.00  0.00     0.217 HD
ENDBRANCH  14  17
ENDBRANCH  10  11
ENDBRANCH   7  10
BRANCH   8  19
HETATM   19  N2  UNL     1      26.373   0.313  53.380  1.00  0.00    -0.300 N 
HETATM   20  C15 UNL     1      27.061   1.382  54.050  1.00  0.00     0.112 C 
HETATM   21  C16 UNL     1      28.355   1.525  54.066  1.00  0.00    -0.008 C 
HETATM   22  C17 UNL     1      29.153   0.529  53.872  1.00  0.00     0.016 C 
HETATM   23  C18 UNL     1      28.591  -0.603  53.186  1.00  0.00     0.038 C 
HETATM   24  C19 UNL     1      27.300  -0.710  52.954  1.00  0.00     0.074 C 
BRANCH  24  25
HETATM   25  S1  UNL     1      26.610  -2.121  52.100  1.00  0.00    -0.125 SA
HETATM   26  H19 UNL     1      25.440  -2.539  52.768  1.00  0.00     0.108 HD
ENDBRANCH  24  25
ENDBRANCH   8  19
BRANCH   9  27
HETATM   27  O2  UNL     1      25.400  -0.896  55.123  1.00  0.00    -0.357 OA
HETATM   28  H20 UNL     1      25.239  -1.735  55.659  1.00  0.00     0.218 HD
ENDBRANCH   9  27
TORSDOF 6
ENDMDL
MODEL 5
REMARK VINA RESULT:      -6.9      1.486      2.060
REMARK  6 active torsions:
REMARK  status: ('A' for Active; 'I' for Inactive)
REMARK    1  A    between atoms: N1_7  and  C7_8 
REMARK    2  A    between atoms: C7_8  and  C8_9 
REMARK    3  A    between atoms: C11_12  and  O1_13 
REMARK    4  A    between atoms: C14_16  and  N2_17 
REMARK    5  A    between atoms: C19_22  and  S1_23 
REMARK    6  A    between atoms: C20_24  and  O2_25 
ROOT
HETATM    1  C1  UNL     1      21.050   3.485  46.701  1.00  0.00     0.051 C 
HETATM    2  C2  UNL     1      21.637   2.983  47.955  1.00  0.00    -0.025 C 
HETATM    3  C3  UNL     1      21.189   1.751  48.255  1.00  0.00     0.009 C 
HETATM    4  C4  UNL     1      21.460   0.823  49.375  1.00  0.00    -0.002 C 
HETATM    5  C5  UNL     1      21.714   1.101  50.641  1.00  0.00    -0.007 C 
HETATM    6  C6  UNL     1      21.850   2.298  51.510  1.00  0.00     0.152 C 
HETATM    7  N1  UNL     1      22.954   3.135  51.090  1.00  0.00    -0.357 N 
HETATM    8  C14 UNL     1      23.089   3.903  49.901  1.00  0.00     0.145 C 
HETATM    9  C20 UNL     1      22.591   3.879  48.651  1.00  0.00     0.116 C 
ENDROOT
BRANCH   7  10
HETATM   10  C7  UNL     1      24.122   3.246  51.927  1.00  0.00     0.163 C 
BRANCH  10  11
HETATM   11  C8  UNL     1      24.719   1.956  52.329  1.00  0.00    -0.040 A 
HETATM   12  C9  UNL     1      24.304   1.071  53.298  1.00  0.00     0.011 A 
HETATM   13  C10 UNL     1      24.959  -0.106  53.583  1.00  0.00     0.037 A 
HETATM   14  C11 UNL     1      26.096  -0.468  52.894  1.00  0.00     0.065 A 
HETATM   15  C12 UNL     1      26.571   0.367  51.911  1.00  0.00     0.037 A 
HETATM   16  C13 UNL     1      25.879   1.534  51.664  1.00  0.00     0.011 A 
BRANCH  14  17
HETATM   17  O1  UNL     1      26.754  -1.647  53.179  1.00  0.00    -0.361 OA
HETATM   18  H13 UNL     1      27.201  -1.823  54.076  1.00  0.00     0.217 HD
ENDBRANCH  14  17
ENDBRANCH  10  11
ENDBRANCH   7  10
BRANCH   8  19
HETATM   19  N2  UNL     1      23.969   5.018  49.897  1.00  0.00    -0.300 N 
HETATM   20  C15 UNL     1      25.326   4.960  49.427  1.00  0.00     0.112 C 
HETATM   21  C16 UNL     1      26.206   5.900  49.612  1.00  0.00    -0.008 C 
HETATM   22  C17 UNL     1      25.861   7.124  49.839  1.00  0.00     0.016 C 
HETATM   23  C18 UNL     1      24.527   7.318  50.338  1.00  0.00     0.038 C 
HETATM   24  C19 UNL     1      23.642   6.344  50.369  1.00  0.00     0.074 C 
BRANCH  24  25
HETATM   25  S1  UNL     1      21.985   6.596  50.992  1.00  0.00    -0.125 SA
HETATM   26  H19 UNL     1      21.985   6.409  52.390  1.00  0.00     0.108 HD
ENDBRANCH  24  25
ENDBRANCH   8  19
BRANCH   9  27
HETATM   27  O2  UNL     1      23.008   4.858  47.777  1.00  0.00    -0.357 OA
HETATM   28  H20 UNL     1      23.612   5.615  48.054  1.00  0.00     0.218 HD
ENDBRANCH   9  27
TORSDOF 6
ENDMDL
MODEL 6
REMARK VINA RESULT:      -6.8      2.056      2.584
REMARK  6 active torsions:
REMARK  status: ('A' for Active; 'I' for Inactive)
REMARK    1  A    between atoms: N1_7  and  C7_8 
REMARK    2  A    between atoms: C7_8  and  C8_9 
REMARK    3  A    between atoms: C11_12  and  O1_13 
REMARK    4  A    between atoms: C14_16  and  N2_17 
REMARK    5  A    between atoms: C19_22  and  S1_23 
REMARK    6  A    between atoms: C20_24  and  O2_25 
ROOT
HETATM    1  C1  UNL     1      18.494   3.612  51.579  1.00  0.00     0.051 C 
HETATM    2  C2  UNL     1      19.662   2.716  51.605  1.00  0.00    -0.025 C 
HETATM    3  C3  UNL     1      19.311   1.452  51.900  1.00  0.00     0.009 C 
HETATM    4  C4  UNL     1      20.083   0.198  52.049  1.00  0.00    -0.002 C 
HETATM    5  C5  UNL     1      21.308   0.026  52.512  1.00  0.00    -0.007 C 
HETATM    6  C6  UNL     1      22.418   0.853  53.053  1.00  0.00     0.152 C 
HETATM    7  N1  UNL     1      22.906   1.795  52.068  1.00  0.00    -0.357 N 
HETATM    8  C14 UNL     1      22.249   2.926  51.510  1.00  0.00     0.145 C 
HETATM    9  C20 UNL     1      20.979   3.327  51.310  1.00  0.00     0.116 C 
ENDROOT
BRANCH   7  10
HETATM   10  C7  UNL     1      24.224   1.622  51.512  1.00  0.00     0.163 C 
BRANCH  10  11
HETATM   11  C8  UNL     1      25.260   1.225  52.486  1.00  0.00    -0.040 A 
HETATM   12  C9  UNL     1      25.761   1.930  53.557  1.00  0.00     0.011 A 
HETATM   13  C10 UNL     1      26.741   1.446  54.394  1.00  0.00     0.037 A 
HETATM   14  C11 UNL     1      27.286   0.196  54.198  1.00  0.00     0.065 A 
HETATM   15  C12 UNL     1      26.835  -0.568  53.148  1.00  0.00     0.037 A 
HETATM   16  C13 UNL     1      25.853  -0.037  52.338  1.00  0.00     0.011 A 
BRANCH  14  17
HETATM   17  O1  UNL     1      28.268  -0.290  55.036  1.00  0.00    -0.361 OA
HETATM   18  H13 UNL     1      28.101  -0.490  56.019  1.00  0.00     0.217 HD
ENDBRANCH  14  17
ENDBRANCH  10  11
ENDBRANCH   7  10
BRANCH   8  19
HETATM   19  N2  UNL     1      23.031   3.982  50.974  1.00  0.00    -0.300 N 
HETATM   20  C15 UNL     1      23.539   5.075  51.757  1.00  0.00     0.112 C 
HETATM   21  C16 UNL     1      24.067   6.153  51.256  1.00  0.00    -0.008 C 
HETATM   22  C17 UNL     1      24.578   6.175  50.070  1.00  0.00     0.016 C 
HETATM   23  C18 UNL     1      24.132   5.143  49.174  1.00  0.00     0.038 C 
HETATM   24  C19 UNL     1      23.412   4.121  49.587  1.00  0.00     0.074 C 
BRANCH  24  25
HETATM   25  S1  UNL     1      22.862   2.842  48.465  1.00  0.00    -0.125 SA
HETATM   26  H19 UNL     1      23.564   1.651  48.742  1.00  0.00     0.108 HD
ENDBRANCH  24  25
ENDBRANCH   8  19
BRANCH   9  27
HETATM   27  O2  UNL     1      20.783   4.551  50.710  1.00  0.00    -0.357 OA
HETATM   28  H20 UNL     1      20.029   4.727  50.065  1.00  0.00     0.218 HD
ENDBRANCH   9  27
TORSDOF 6
ENDMDL
MODEL 7
REMARK VINA RESULT:      -6.6      3.169      6.118
REMARK  6 active torsions:
REMARK  status: ('A' for Active; 'I' for Inactive)
REMARK    1  A    between atoms: N1_7  and  C7_8 
REMARK    2  A    between atoms: C7_8  and  C8_9 
REMARK    3  A    between atoms: C11_12  and  O1_13 
REMARK    4  A    between atoms: C14_16  and  N2_17 
REMARK    5  A    between atoms: C19_22  and  S1_23 
REMARK    6  A    between atoms: C20_24  and  O2_25 
ROOT
HETATM    1  C1  UNL     1      26.772   1.370  51.573  1.00  0.00     0.051 C 
HETATM    2  C2  UNL     1      25.486   1.081  52.230  1.00  0.00    -0.025 C 
HETATM    3  C3  UNL     1      25.599   0.083  53.124  1.00  0.00     0.009 C 
HETATM    4  C4  UNL     1      24.631  -0.577  54.029  1.00  0.00    -0.002 C 
HETATM    5  C5  UNL     1      23.345  -0.815  53.840  1.00  0.00    -0.007 C 
HETATM    6  C6  UNL     1      22.317  -0.593  52.791  1.00  0.00     0.152 C 
HETATM    7  N1  UNL     1      22.107   0.818  52.545  1.00  0.00    -0.357 N 
HETATM    8  C14 UNL     1      22.995   1.766  51.966  1.00  0.00     0.145 C 
HETATM    9  C20 UNL     1      24.326   1.906  51.820  1.00  0.00     0.116 C 
ENDROOT
BRANCH   7  10
HETATM   10  C7  UNL     1      20.858   1.428  52.926  1.00  0.00     0.163 C 
BRANCH  10  11
HETATM   11  C8  UNL     1      19.655   0.652  52.568  1.00  0.00    -0.040 A 
HETATM   12  C9  UNL     1      19.093  -0.427  53.214  1.00  0.00     0.011 A 
HETATM   13  C10 UNL     1      17.962  -1.074  52.770  1.00  0.00     0.037 A 
HETATM   14  C11 UNL     1      17.316  -0.664  51.623  1.00  0.00     0.065 A 
HETATM   15  C12 UNL     1      17.819   0.407  50.924  1.00  0.00     0.037 A 
HETATM   16  C13 UNL     1      18.954   1.020  51.410  1.00  0.00     0.011 A 
BRANCH  14  17
HETATM   17  O1  UNL     1      16.183  -1.311  51.177  1.00  0.00    -0.361 OA
HETATM   18  H13 UNL     1      15.243  -0.984  51.389  1.00  0.00     0.217 HD
ENDBRANCH  14  17
ENDBRANCH  10  11
ENDBRANCH   7  10
BRANCH   8  19
HETATM   19  N2  UNL     1      22.459   2.930  51.355  1.00  0.00    -0.300 N 
HETATM   20  C15 UNL     1      22.407   4.215  51.997  1.00  0.00     0.112 C 
HETATM   21  C16 UNL     1      21.732   5.233  51.547  1.00  0.00    -0.008 C 
HETATM   22  C17 UNL     1      21.408   5.340  50.302  1.00  0.00     0.016 C 
HETATM   23  C18 UNL     1      21.398   4.116  49.548  1.00  0.00     0.038 C 
HETATM   24  C19 UNL     1      21.884   2.992  50.031  1.00  0.00     0.074 C 
BRANCH  24  25
HETATM   25  S1  UNL     1      21.866   1.475  49.085  1.00  0.00    -0.125 SA
HETATM   26  H19 UNL     1      22.483   0.453  49.839  1.00  0.00     0.108 HD
ENDBRANCH  24  25
ENDBRANCH   8  19
BRANCH   9  27
HETATM   27  O2  UNL     1      24.782   3.028  51.162  1.00  0.00    -0.357 OA
HETATM   28  H20 UNL     1      24.710   3.141  50.164  1.00  0.00     0.218 HD
ENDBRANCH   9  27
TORSDOF 6
ENDMDL
MODEL 8
REMARK VINA RESULT:      -6.6      2.678      5.877
REMARK  6 active torsions:
REMARK  status: ('A' for Active; 'I' for Inactive)
REMARK    1  A    between atoms: N1_7  and  C7_8 
REMARK    2  A    between atoms: C7_8  and  C8_9 
REMARK    3  A    between atoms: C11_12  and  O1_13 
REMARK    4  A    between atoms: C14_16  and  N2_17 
REMARK    5  A    between atoms: C19_22  and  S1_23 
REMARK    6  A    between atoms: C20_24  and  O2_25 
ROOT
HETATM    1  C1  UNL     1      27.163   0.085  52.328  1.00  0.00     0.051 C 
HETATM    2  C2  UNL     1      25.773   0.175  52.806  1.00  0.00    -0.025 C 
HETATM    3  C3  UNL     1      25.574  -0.582  53.900  1.00  0.00     0.009 C 
HETATM    4  C4  UNL     1      24.390  -0.837  54.750  1.00  0.00    -0.002 C 
HETATM    5  C5  UNL     1      23.117  -0.903  54.402  1.00  0.00    -0.007 C 
HETATM    6  C6  UNL     1      22.292  -0.778  53.173  1.00  0.00     0.152 C 
HETATM    7  N1  UNL     1      22.396   0.546  52.597  1.00  0.00    -0.357 N 
HETATM    8  C14 UNL     1      23.519   1.169  51.986  1.00  0.00     0.145 C 
HETATM    9  C20 UNL     1      24.859   1.053  52.039  1.00  0.00     0.116 C 
ENDROOT
BRANCH   7  10
HETATM   10  C7  UNL     1      21.253   1.424  52.624  1.00  0.00     0.163 C 
BRANCH  10  11
HETATM   11  C8  UNL     1      20.029   0.865  52.017  1.00  0.00    -0.040 A 
HETATM   12  C9  UNL     1      19.144  -0.053  52.535  1.00  0.00     0.011 A 
HETATM   13  C10 UNL     1      18.032  -0.503  51.858  1.00  0.00     0.037 A 
HETATM   14  C11 UNL     1      17.741  -0.045  50.592  1.00  0.00     0.065 A 
HETATM   15  C12 UNL     1      18.579   0.875  50.009  1.00  0.00     0.037 A 
HETATM   16  C13 UNL     1      19.679   1.293  50.727  1.00  0.00     0.011 A 
BRANCH  14  17
HETATM   17  O1  UNL     1      16.627  -0.495  49.913  1.00  0.00    -0.361 OA
HETATM   18  H13 UNL     1      16.201   0.027  49.151  1.00  0.00     0.217 HD
ENDBRANCH  14  17
ENDBRANCH  10  11
ENDBRANCH   7  10
BRANCH   8  19
HETATM   19  N2  UNL     1      23.302   2.221  51.058  1.00  0.00    -0.300 N 
HETATM   20  C15 UNL     1      23.008   2.010  49.667  1.00  0.00     0.112 C 
HETATM   21  C16 UNL     1      23.021   2.947  48.764  1.00  0.00    -0.008 C 
HETATM   22  C17 UNL     1      22.868   4.192  49.071  1.00  0.00     0.016 C 
HETATM   23  C18 UNL     1      23.154   4.543  50.435  1.00  0.00     0.038 C 
HETATM   24  C19 UNL     1      23.358   3.633  51.364  1.00  0.00     0.074 C 
BRANCH  24  25
HETATM   25  S1  UNL     1      23.714   4.079  53.058  1.00  0.00    -0.125 SA
HETATM   26  H19 UNL     1      25.017   3.649  53.385  1.00  0.00     0.108 HD
ENDBRANCH  24  25
ENDBRANCH   8  19
BRANCH   9  27
HETATM   27  O2  UNL     1      25.605   1.893  51.242  1.00  0.00    -0.357 OA
HETATM   28  H20 UNL     1      26.605   1.808  51.146  1.00  0.00     0.218 HD
ENDBRANCH   9  27
TORSDOF 6
ENDMDL
MODEL 9
REMARK VINA RESULT:      -6.6      2.417      5.039
REMARK  6 active torsions:
REMARK  status: ('A' for Active; 'I' for Inactive)
REMARK    1  A    between atoms: N1_7  and  C7_8 
REMARK    2  A    between atoms: C7_8  and  C8_9 
REMARK    3  A    between atoms: C11_12  and  O1_13 
REMARK    4  A    between atoms: C14_16  and  N2_17 
REMARK    5  A    between atoms: C19_22  and  S1_23 
REMARK    6  A    between atoms: C20_24  and  O2_25 
ROOT
HETATM    1  C1  UNL     1      25.388   7.133  49.060  1.00  0.00     0.051 C 
HETATM    2  C2  UNL     1      24.521   5.954  48.898  1.00  0.00    -0.025 C 
HETATM    3  C3  UNL     1      23.673   6.100  47.864  1.00  0.00     0.009 C 
HETATM    4  C4  UNL     1      22.621   5.232  47.290  1.00  0.00    -0.002 C 
HETATM    5  C5  UNL     1      21.815   4.386  47.906  1.00  0.00    -0.007 C 
HETATM    6  C6  UNL     1      21.552   3.906  49.287  1.00  0.00     0.152 C 
HETATM    7  N1  UNL     1      22.706   3.233  49.843  1.00  0.00    -0.357 N 
HETATM    8  C14 UNL     1      23.970   3.778  50.203  1.00  0.00     0.145 C 
HETATM    9  C20 UNL     1      24.718   4.842  49.857  1.00  0.00     0.116 C 
ENDROOT
BRANCH   7  10
HETATM   10  C7  UNL     1      22.657   1.812  50.078  1.00  0.00     0.163 C 
BRANCH  10  11
HETATM   11  C8  UNL     1      22.008   1.416  51.344  1.00  0.00    -0.040 A 
HETATM   12  C9  UNL     1      20.862   1.912  51.925  1.00  0.00     0.011 A 
HETATM   13  C10 UNL     1      20.360   1.458  53.124  1.00  0.00     0.037 A 
HETATM   14  C11 UNL     1      20.997   0.456  53.824  1.00  0.00     0.065 A 
HETATM   15  C12 UNL     1      22.148  -0.088  53.306  1.00  0.00     0.037 A 
HETATM   16  C13 UNL     1      22.610   0.402  52.102  1.00  0.00     0.011 A 
BRANCH  14  17
HETATM   17  O1  UNL     1      20.496   0.000  55.026  1.00  0.00    -0.361 OA
HETATM   18  H13 UNL     1      21.088  -0.388  55.756  1.00  0.00     0.217 HD
ENDBRANCH  14  17
ENDBRANCH  10  11
ENDBRANCH   7  10
BRANCH   8  19
HETATM   19  N2  UNL     1      24.761   3.102  51.169  1.00  0.00    -0.300 N 
HETATM   20  C15 UNL     1      25.785   2.150  50.836  1.00  0.00     0.112 C 
HETATM   21  C16 UNL     1      26.366   1.367  51.698  1.00  0.00    -0.008 C 
HETATM   22  C17 UNL     1      26.410   1.651  52.957  1.00  0.00     0.016 C 
HETATM   23  C18 UNL     1      25.418   2.580  53.426  1.00  0.00     0.038 C 
HETATM   24  C19 UNL     1      24.648   3.258  52.601  1.00  0.00     0.074 C 
BRANCH  24  25
HETATM   25  S1  UNL     1      23.417   4.411  53.195  1.00  0.00    -0.125 SA
HETATM   26  H19 UNL     1      22.489   4.667  52.163  1.00  0.00     0.108 HD
ENDBRANCH  24  25
ENDBRANCH   8  19
BRANCH   9  27
HETATM   27  O2  UNL     1      25.935   4.999  50.483  1.00  0.00    -0.357 OA
HETATM   28  H20 UNL     1      26.779   5.230  49.984  1.00  0.00     0.218 HD
ENDBRANCH   9  27
TORSDOF 6
ENDMDL
