MODEL 1
REMARK VINA RESULT:      -7.1      0.000      0.000
REMARK  6 active torsions:
REMARK  status: ('A' for Active; 'I' for Inactive)
REMARK    1  A    between atoms: N1_2  and  C2_3 
REMARK    2  A    between atoms: C2_3  and  C3_4 
REMARK    3  A    between atoms: C4_5  and  O1_6 
REMARK    4  A    between atoms: O1_6  and  C5_7 
REMARK    5  A    between atoms: C6_8  and  C7_9 
REMARK    6  A    between atoms: C11_14  and  O2_15 
ROOT
HETATM    1  C7  UNL     1      24.910   1.458  51.614  1.00  0.00     0.138 C 
HETATM    2  N2  UNL     1      25.681   2.495  50.847  1.00  0.00    -0.401 N 
HETATM    3  C8  UNL     1      24.944   3.638  50.329  1.00  0.00     0.039 A 
HETATM    4  C9  UNL     1      25.089   4.582  49.295  1.00  0.00    -0.002 A 
HETATM    5  C10 UNL     1      24.070   5.553  49.277  1.00  0.00     0.010 A 
HETATM    6  C11 UNL     1      23.033   5.516  50.240  1.00  0.00     0.102 A 
HETATM    7  C13 UNL     1      22.513   4.826  51.362  1.00  0.00     0.072 A 
HETATM    8  C14 UNL     1      23.749   4.194  50.863  1.00  0.00     0.179 A 
HETATM    9  C15 UNL     1      22.740   3.699  52.240  1.00  0.00     0.167 A 
HETATM   10  N3  UNL     1      23.806   4.011  53.121  1.00  0.00    -0.266 NA
HETATM   11  C16 UNL     1      24.542   2.798  53.167  1.00  0.00     0.124 A 
HETATM   12  C17 UNL     1      23.704   2.074  52.293  1.00  0.00     0.002 A 
HETATM   13  C18 UNL     1      22.702   1.598  51.409  1.00  0.00     0.124 A 
HETATM   14  N4  UNL     1      22.002   2.828  51.392  1.00  0.00    -0.266 NA
HETATM   15  H10 UNL     1      26.602   2.790  50.490  1.00  0.00     0.154 HD
ENDROOT
BRANCH   1  16
HETATM   16  C6  UNL     1      25.802   0.668  52.406  1.00  0.00     0.027 C 
HETATM   17  C5  UNL     1      26.331  -0.477  52.769  1.00  0.00     0.139 C 
BRANCH  17  18
HETATM   18  O1  UNL     1      27.171  -1.297  53.502  1.00  0.00    -0.335 OA
BRANCH  18  19
HETATM   19  C4  UNL     1      28.547  -1.260  53.248  1.00  0.00     0.139 C 
HETATM   20  C3  UNL     1      29.308  -0.390  53.920  1.00  0.00     0.019 C 
BRANCH  20  21
HETATM   21  C2  UNL     1      28.667   0.509  54.915  1.00  0.00     0.176 C 
BRANCH  21  22
HETATM   22  N1  UNL     1      29.185   1.838  54.693  1.00  0.00    -0.309 NA
HETATM   23  C1  UNL     1      28.744   2.415  53.619  1.00  0.00     0.142 C 
ENDBRANCH  21  22
ENDBRANCH  20  21
ENDBRANCH  18  19
ENDBRANCH  17  18
ENDBRANCH   1  16
BRANCH   6  24
HETATM   24  O2  UNL     1      21.888   6.240  50.571  1.00  0.00    -0.379 OA
HETATM   25  C12 UNL     1      21.922   7.634  50.548  1.00  0.00     0.203 C 
ENDBRANCH   6  24
TORSDOF 6
ENDMDL
MODEL 2
REMARK VINA RESULT:      -6.8      1.689      2.788
REMARK  6 active torsions:
REMARK  status: ('A' for Active; 'I' for Inactive)
REMARK    1  A    between atoms: N1_2  and  C2_3 
REMARK    2  A    between atoms: C2_3  and  C3_4 
REMARK    3  A    between atoms: C4_5  and  O1_6 
REMARK    4  A    between atoms: O1_6  and  C5_7 
REMARK    5  A    between atoms: C6_8  and  C7_9 
REMARK    6  A    between atoms: C11_14  and  O2_15 
ROOT
HETATM    1  C7  UNL     1      23.792   1.821  53.079  1.00  0.00     0.138 C 
HETATM    2  N2  UNL     1      22.425   1.232  52.866  1.00  0.00    -0.401 N 
HETATM    3  C8  UNL     1      21.376   2.120  52.390  1.00  0.00     0.039 A 
HETATM    4  C9  UNL     1      19.969   2.172  52.422  1.00  0.00    -0.002 A 
HETATM    5  C10 UNL     1      19.434   3.269  51.721  1.00  0.00     0.010 A 
HETATM    6  C11 UNL     1      20.293   4.189  51.073  1.00  0.00     0.102 A 
HETATM    7  C13 UNL     1      21.641   4.521  50.792  1.00  0.00     0.072 A 
HETATM    8  C14 UNL     1      21.544   3.295  51.606  1.00  0.00     0.179 A 
HETATM    9  C15 UNL     1      23.008   4.102  51.003  1.00  0.00     0.167 A 
HETATM   10  N3  UNL     1      23.277   2.978  50.181  1.00  0.00    -0.266 NA
HETATM   11  C16 UNL     1      24.037   2.136  51.033  1.00  0.00     0.124 A 
HETATM   12  C17 UNL     1      24.025   2.996  52.152  1.00  0.00     0.002 A 
HETATM   13  C18 UNL     1      23.858   4.041  53.097  1.00  0.00     0.124 A 
HETATM   14  N4  UNL     1      23.101   4.846  52.212  1.00  0.00    -0.266 NA
HETATM   15  H10 UNL     1      21.840   0.386  52.909  1.00  0.00     0.154 HD
ENDROOT
BRANCH   1  16
HETATM   16  C6  UNL     1      24.775   0.782  53.113  1.00  0.00     0.027 C 
HETATM   17  C5  UNL     1      25.550  -0.066  53.748  1.00  0.00     0.139 C 
BRANCH  17  18
HETATM   18  O1  UNL     1      26.497  -1.071  53.850  1.00  0.00    -0.335 OA
BRANCH  18  19
HETATM   19  C4  UNL     1      27.640  -1.008  53.044  1.00  0.00     0.139 C 
HETATM   20  C3  UNL     1      28.713  -0.346  53.489  1.00  0.00     0.019 C 
BRANCH  20  21
HETATM   21  C2  UNL     1      28.654   0.303  54.826  1.00  0.00     0.176 C 
BRANCH  21  22
HETATM   22  N1  UNL     1      29.139   1.654  54.671  1.00  0.00    -0.309 NA
HETATM   23  C1  UNL     1      28.629   2.296  53.665  1.00  0.00     0.142 C 
ENDBRANCH  21  22
ENDBRANCH  20  21
ENDBRANCH  18  19
ENDBRANCH  17  18
ENDBRANCH   1  16
BRANCH   6  24
HETATM   24  O2  UNL     1      20.193   5.352  50.309  1.00  0.00    -0.379 OA
HETATM   25  C12 UNL     1      19.893   5.261  48.950  1.00  0.00     0.203 C 
ENDBRANCH   6  24
TORSDOF 6
ENDMDL
MODEL 3
REMARK VINA RESULT:      -6.7      3.355      5.685
REMARK  6 active torsions:
REMARK  status: ('A' for Active; 'I' for Inactive)
REMARK    1  A    between atoms: N1_2  and  C2_3 
REMARK    2  A    between atoms: C2_3  and  C3_4 
REMARK    3  A    between atoms: C4_5  and  O1_6 
REMARK    4  A    between atoms: O1_6  and  C5_7 
REMARK    5  A    between atoms: C6_8  and  C7_9 
REMARK    6  A    between atoms: C11_14  and  O2_15 
ROOT
HETATM    1  C7  UNL     1      25.144   3.604  50.880  1.00  0.00     0.138 C 
HETATM    2  N2  UNL     1      25.721   2.257  51.218  1.00  0.00    -0.401 N 
HETATM    3  C8  UNL     1      24.894   1.344  51.992  1.00  0.00     0.039 A 
HETATM    4  C9  UNL     1      25.088   0.241  52.844  1.00  0.00    -0.002 A 
HETATM    5  C10 UNL     1      23.886  -0.337  53.294  1.00  0.00     0.010 A 
HETATM    6  C11 UNL     1      22.641   0.198  52.884  1.00  0.00     0.102 A 
HETATM    7  C13 UNL     1      22.004   1.201  52.113  1.00  0.00     0.072 A 
HETATM    8  C14 UNL     1      23.473   1.303  52.028  1.00  0.00     0.179 A 
HETATM    9  C15 UNL     1      22.251   2.326  51.240  1.00  0.00     0.167 A 
HETATM   10  N3  UNL     1      22.676   1.843  49.976  1.00  0.00    -0.266 NA
HETATM   11  C16 UNL     1      23.718   2.741  49.628  1.00  0.00     0.124 A 
HETATM   12  C17 UNL     1      23.633   3.537  50.790  1.00  0.00     0.002 A 
HETATM   13  C18 UNL     1      23.324   4.152  52.031  1.00  0.00     0.124 A 
HETATM   14  N4  UNL     1      22.294   3.230  52.337  1.00  0.00    -0.266 NA
HETATM   15  H10 UNL     1      26.529   1.625  51.132  1.00  0.00     0.154 HD
ENDROOT
BRANCH   1  16
HETATM   16  C6  UNL     1      25.861   4.186  49.788  1.00  0.00     0.027 C 
HETATM   17  C5  UNL     1      26.967   4.576  49.199  1.00  0.00     0.139 C 
BRANCH  17  18
HETATM   18  O1  UNL     1      27.720   5.130  48.178  1.00  0.00    -0.335 OA
BRANCH  18  19
HETATM   19  C4  UNL     1      28.165   6.451  48.303  1.00  0.00     0.139 C 
HETATM   20  C3  UNL     1      29.474   6.707  48.209  1.00  0.00     0.019 C 
BRANCH  20  21
HETATM   21  C2  UNL     1      30.413   5.578  47.975  1.00  0.00     0.176 C 
BRANCH  21  22
HETATM   22  N1  UNL     1      31.124   5.345  49.209  1.00  0.00    -0.309 NA
HETATM   23  C1  UNL     1      31.894   6.321  49.579  1.00  0.00     0.142 C 
ENDBRANCH  21  22
ENDBRANCH  20  21
ENDBRANCH  18  19
ENDBRANCH  17  18
ENDBRANCH   1  16
BRANCH   6  24
HETATM   24  O2  UNL     1      21.282  -0.049  53.079  1.00  0.00    -0.379 OA
HETATM   25  C12 UNL     1      20.693   0.258  54.305  1.00  0.00     0.203 C 
ENDBRANCH   6  24
TORSDOF 6
ENDMDL
MODEL 4
REMARK VINA RESULT:      -6.7      1.632      2.347
REMARK  6 active torsions:
REMARK  status: ('A' for Active; 'I' for Inactive)
REMARK    1  A    between atoms: N1_2  and  C2_3 
REMARK    2  A    between atoms: C2_3  and  C3_4 
REMARK    3  A    between atoms: C4_5  and  O1_6 
REMARK    4  A    between atoms: O1_6  and  C5_7 
REMARK    5  A    between atoms: C6_8  and  C7_9 
REMARK    6  A    between atoms: C11_14  and  O2_15 
ROOT
HETATM    1  C7  UNL     1      24.091   1.877  52.422  1.00  0.00     0.138 C 
HETATM    2  N2  UNL     1      23.425   1.149  51.288  1.00  0.00    -0.401 N 
HETATM    3  C8  UNL     1      22.823   1.950  50.233  1.00  0.00     0.039 A 
HETATM    4  C9  UNL     1      21.816   1.796  49.261  1.00  0.00    -0.002 A 
HETATM    5  C10 UNL     1      21.677   2.914  48.418  1.00  0.00     0.010 A 
HETATM    6  C11 UNL     1      22.506   4.047  48.594  1.00  0.00     0.102 A 
HETATM    7  C13 UNL     1      23.556   4.612  49.359  1.00  0.00     0.072 A 
HETATM    8  C14 UNL     1      23.210   3.259  49.831  1.00  0.00     0.179 A 
HETATM    9  C15 UNL     1      24.453   4.360  50.464  1.00  0.00     0.167 A 
HETATM   10  N3  UNL     1      25.457   3.452  50.043  1.00  0.00    -0.266 NA
HETATM   11  C16 UNL     1      25.591   2.587  51.160  1.00  0.00     0.124 A 
HETATM   12  C17 UNL     1      24.620   3.221  51.965  1.00  0.00     0.002 A 
HETATM   13  C18 UNL     1      23.619   4.045  52.542  1.00  0.00     0.124 A 
HETATM   14  N4  UNL     1      23.520   4.880  51.403  1.00  0.00    -0.266 NA
HETATM   15  H10 UNL     1      23.183   0.235  50.881  1.00  0.00     0.154 HD
ENDROOT
BRANCH   1  16
HETATM   16  C6  UNL     1      24.984   0.999  53.113  1.00  0.00     0.027 C 
HETATM   17  C5  UNL     1      25.747  -0.067  53.180  1.00  0.00     0.139 C 
BRANCH  17  18
HETATM   18  O1  UNL     1      26.614  -0.956  53.792  1.00  0.00    -0.335 OA
BRANCH  18  19
HETATM   19  C4  UNL     1      27.890  -1.141  53.248  1.00  0.00     0.139 C 
HETATM   20  C3  UNL     1      28.921  -0.465  53.766  1.00  0.00     0.019 C 
BRANCH  20  21
HETATM   21  C2  UNL     1      28.676   0.461  54.904  1.00  0.00     0.176 C 
BRANCH  21  22
HETATM   22  N1  UNL     1      29.259   1.735  54.556  1.00  0.00    -0.309 NA
HETATM   23  C1  UNL     1      28.599   2.401  53.660  1.00  0.00     0.142 C 
ENDBRANCH  21  22
ENDBRANCH  20  21
ENDBRANCH  18  19
ENDBRANCH  17  18
ENDBRANCH   1  16
BRANCH   6  24
HETATM   24  O2  UNL     1      22.697   5.303  48.016  1.00  0.00    -0.379 OA
HETATM   25  C12 UNL     1      22.308   5.520  46.694  1.00  0.00     0.203 C 
ENDBRANCH   6  24
TORSDOF 6
ENDMDL
MODEL 5
REMARK VINA RESULT:      -6.6      2.011      7.353
REMARK  6 active torsions:
REMARK  status: ('A' for Active; 'I' for Inactive)
REMARK    1  A    between atoms: N1_2  and  C2_3 
REMARK    2  A    between atoms: C2_3  and  C3_4 
REMARK    3  A    between atoms: C4_5  and  O1_6 
REMARK    4  A    between atoms: O1_6  and  C5_7 
REMARK    5  A    between atoms: C6_8  and  C7_9 
REMARK    6  A    between atoms: C11_14  and  O2_15 
ROOT
HETATM    1  C7  UNL     1      25.205   1.958  53.631  1.00  0.00     0.138 C 
HETATM    2  N2  UNL     1      26.554   2.623  53.636  1.00  0.00    -0.401 N 
HETATM    3  C8  UNL     1      27.723   1.775  53.818  1.00  0.00     0.039 A 
HETATM    4  C9  UNL     1      29.047   1.921  54.272  1.00  0.00    -0.002 A 
HETATM    5  C10 UNL     1      29.805   0.738  54.176  1.00  0.00     0.010 A 
HETATM    6  C11 UNL     1      29.219  -0.444  53.663  1.00  0.00     0.102 A 
HETATM    7  C13 UNL     1      28.038  -1.021  53.135  1.00  0.00     0.072 A 
HETATM    8  C14 UNL     1      27.842   0.401  53.471  1.00  0.00     0.179 A 
HETATM    9  C15 UNL     1      26.664  -0.740  52.784  1.00  0.00     0.167 A 
HETATM   10  N3  UNL     1      26.642   0.019  51.586  1.00  0.00    -0.266 NA
HETATM   11  C16 UNL     1      25.630   0.981  51.840  1.00  0.00     0.124 A 
HETATM   12  C17 UNL     1      25.309   0.530  53.137  1.00  0.00     0.002 A 
HETATM   13  C18 UNL     1      25.194  -0.130  54.388  1.00  0.00     0.124 A 
HETATM   14  N4  UNL     1      26.212  -1.068  54.091  1.00  0.00    -0.266 NA
HETATM   15  H10 UNL     1      27.074   3.508  53.554  1.00  0.00     0.154 HD
ENDROOT
BRANCH   1  16
HETATM   16  C6  UNL     1      24.237   2.816  53.021  1.00  0.00     0.027 C 
HETATM   17  C5  UNL     1      23.674   3.987  52.834  1.00  0.00     0.139 C 
BRANCH  17  18
HETATM   18  O1  UNL     1      22.764   4.870  52.279  1.00  0.00    -0.335 OA
BRANCH  18  19
HETATM   19  C4  UNL     1      21.486   4.406  51.946  1.00  0.00     0.139 C 
HETATM   20  C3  UNL     1      21.223   4.083  50.676  1.00  0.00     0.019 C 
BRANCH  20  21
HETATM   21  C2  UNL     1      22.297   4.229  49.658  1.00  0.00     0.176 C 
BRANCH  21  22
HETATM   22  N1  UNL     1      22.833   2.913  49.404  1.00  0.00    -0.309 NA
HETATM   23  C1  UNL     1      22.658   2.486  48.192  1.00  0.00     0.142 C 
ENDBRANCH  21  22
ENDBRANCH  20  21
ENDBRANCH  18  19
ENDBRANCH  17  18
ENDBRANCH   1  16
BRANCH   6  24
HETATM   24  O2  UNL     1      29.585  -1.765  53.406  1.00  0.00    -0.379 OA
HETATM   25  C12 UNL     1      30.542  -2.385  54.209  1.00  0.00     0.203 C 
ENDBRANCH   6  24
TORSDOF 6
ENDMDL
MODEL 6
REMARK VINA RESULT:      -6.5      2.623      3.671
REMARK  6 active torsions:
REMARK  status: ('A' for Active; 'I' for Inactive)
REMARK    1  A    between atoms: N1_2  and  C2_3 
REMARK    2  A    between atoms: C2_3  and  C3_4 
REMARK    3  A    between atoms: C4_5  and  O1_6 
REMARK    4  A    between atoms: O1_6  and  C5_7 
REMARK    5  A    between atoms: C6_8  and  C7_9 
REMARK    6  A    between atoms: C11_14  and  O2_15 
ROOT
HETATM    1  C7  UNL     1      24.682   3.470  50.270  1.00  0.00     0.138 C 
HETATM    2  N2  UNL     1      26.158   3.744  50.189  1.00  0.00    -0.401 N 
HETATM    3  C8  UNL     1      26.597   4.817  49.310  1.00  0.00     0.039 A 
HETATM    4  C9  UNL     1      27.769   5.176  48.618  1.00  0.00    -0.002 A 
HETATM    5  C10 UNL     1      27.663   6.402  47.935  1.00  0.00     0.010 A 
HETATM    6  C11 UNL     1      26.460   7.145  47.987  1.00  0.00     0.102 A 
HETATM    7  C13 UNL     1      25.140   7.186  48.501  1.00  0.00     0.072 A 
HETATM    8  C14 UNL     1      25.852   5.968  48.933  1.00  0.00     0.179 A 
HETATM    9  C15 UNL     1      24.189   6.467  49.318  1.00  0.00     0.167 A 
HETATM   10  N3  UNL     1      24.557   6.604  50.680  1.00  0.00    -0.266 NA
HETATM   11  C16 UNL     1      24.336   5.303  51.201  1.00  0.00     0.124 A 
HETATM   12  C17 UNL     1      23.883   4.728  49.995  1.00  0.00     0.002 A 
HETATM   13  C18 UNL     1      23.468   4.424  48.673  1.00  0.00     0.124 A 
HETATM   14  N4  UNL     1      23.706   5.736  48.198  1.00  0.00    -0.266 NA
HETATM   15  H10 UNL     1      27.098   3.482  50.518  1.00  0.00     0.154 HD
ENDROOT
BRANCH   1  16
HETATM   16  C6  UNL     1      24.385   2.727  51.456  1.00  0.00     0.027 C 
HETATM   17  C5  UNL     1      24.239   1.602  52.118  1.00  0.00     0.139 C 
BRANCH  17  18
HETATM   18  O1  UNL     1      23.963   0.825  53.229  1.00  0.00    -0.335 OA
BRANCH  18  19
HETATM   19  C4  UNL     1      24.407  -0.502  53.255  1.00  0.00     0.139 C 
HETATM   20  C3  UNL     1      25.555  -0.791  53.877  1.00  0.00     0.019 C 
BRANCH  20  21
HETATM   21  C2  UNL     1      26.322   0.309  54.520  1.00  0.00     0.176 C 
BRANCH  21  22
HETATM   22  N1  UNL     1      27.513  -0.273  55.092  1.00  0.00    -0.309 NA
HETATM   23  C1  UNL     1      28.616   0.324  54.759  1.00  0.00     0.142 C 
ENDBRANCH  21  22
ENDBRANCH  20  21
ENDBRANCH  18  19
ENDBRANCH  17  18
ENDBRANCH   1  16
BRANCH   6  24
HETATM   24  O2  UNL     1      25.949   8.343  47.487  1.00  0.00    -0.379 OA
HETATM   25  C12 UNL     1      25.382   8.374  46.213  1.00  0.00     0.203 C 
ENDBRANCH   6  24
TORSDOF 6
ENDMDL
MODEL 7
REMARK VINA RESULT:      -6.5      1.601      2.304
REMARK  6 active torsions:
REMARK  status: ('A' for Active; 'I' for Inactive)
REMARK    1  A    between atoms: N1_2  and  C2_3 
REMARK    2  A    between atoms: C2_3  and  C3_4 
REMARK    3  A    between atoms: C4_5  and  O1_6 
REMARK    4  A    between atoms: O1_6  and  C5_7 
REMARK    5  A    between atoms: C6_8  and  C7_9 
REMARK    6  A    between atoms: C11_14  and  O2_15 
ROOT
HETATM    1  C7  UNL     1      24.147   3.135  50.874  1.00  0.00     0.138 C 
HETATM    2  N2  UNL     1      24.908   4.370  51.268  1.00  0.00    -0.401 N 
HETATM    3  C8  UNL     1      24.297   5.659  50.984  1.00  0.00     0.039 A 
HETATM    4  C9  UNL     1      24.721   6.986  50.787  1.00  0.00    -0.002 A 
HETATM    5  C10 UNL     1      23.660   7.892  50.600  1.00  0.00     0.010 A 
HETATM    6  C11 UNL     1      22.321   7.433  50.620  1.00  0.00     0.102 A 
HETATM    7  C13 UNL     1      21.481   6.302  50.767  1.00  0.00     0.072 A 
HETATM    8  C14 UNL     1      22.906   5.938  50.883  1.00  0.00     0.179 A 
HETATM    9  C15 UNL     1      21.485   4.875  50.998  1.00  0.00     0.167 A 
HETATM   10  N3  UNL     1      21.791   4.632  52.362  1.00  0.00    -0.266 NA
HETATM   11  C16 UNL     1      22.672   3.522  52.295  1.00  0.00     0.124 A 
HETATM   12  C17 UNL     1      22.654   3.393  50.890  1.00  0.00     0.002 A 
HETATM   13  C18 UNL     1      22.446   3.492  49.490  1.00  0.00     0.124 A 
HETATM   14  N4  UNL     1      21.573   4.601  49.606  1.00  0.00    -0.266 NA
HETATM   15  H10 UNL     1      25.763   4.749  51.701  1.00  0.00     0.154 HD
ENDROOT
BRANCH   1  16
HETATM   16  C6  UNL     1      24.645   2.001  51.589  1.00  0.00     0.027 C 
HETATM   17  C5  UNL     1      25.597   1.159  51.918  1.00  0.00     0.139 C 
BRANCH  17  18
HETATM   18  O1  UNL     1      26.141   0.072  52.580  1.00  0.00    -0.335 OA
BRANCH  18  19
HETATM   19  C4  UNL     1      25.762  -0.172  53.905  1.00  0.00     0.139 C 
HETATM   20  C3  UNL     1      26.644   0.051  54.885  1.00  0.00     0.019 C 
BRANCH  20  21
HETATM   21  C2  UNL     1      27.999   0.551  54.533  1.00  0.00     0.176 C 
BRANCH  21  22
HETATM   22  N1  UNL     1      28.906  -0.570  54.611  1.00  0.00    -0.309 NA
HETATM   23  C1  UNL     1      29.657  -0.728  53.565  1.00  0.00     0.142 C 
ENDBRANCH  21  22
ENDBRANCH  20  21
ENDBRANCH  18  19
ENDBRANCH  17  18
ENDBRANCH   1  16
BRANCH   6  24
HETATM   24  O2  UNL     1      21.035   7.958  50.484  1.00  0.00    -0.379 OA
HETATM   25  C12 UNL     1      20.562   8.308  49.220  1.00  0.00     0.203 C 
ENDBRANCH   6  24
TORSDOF 6
ENDMDL
MODEL 8
REMARK VINA RESULT:      -6.5      3.268      6.049
REMARK  6 active torsions:
REMARK  status: ('A' for Active; 'I' for Inactive)
REMARK    1  A    between atoms: N1_2  and  C2_3 
REMARK    2  A    between atoms: C2_3  and  C3_4 
REMARK    3  A    between atoms: C4_5  and  O1_6 
REMARK    4  A    between atoms: O1_6  and  C5_7 
REMARK    5  A    between atoms: C6_8  and  C7_9 
REMARK    6  A    between atoms: C11_14  and  O2_15 
ROOT
HETATM    1  C7  UNL     1      25.008   3.075  50.009  1.00  0.00     0.138 C 
HETATM    2  N2  UNL     1      23.613   2.824  49.510  1.00  0.00    -0.401 N 
HETATM    3  C8  UNL     1      22.803   1.854  50.232  1.00  0.00     0.039 A 
HETATM    4  C9  UNL     1      21.697   1.025  49.965  1.00  0.00    -0.002 A 
HETATM    5  C10 UNL     1      21.256   0.301  51.089  1.00  0.00     0.010 A 
HETATM    6  C11 UNL     1      21.915   0.447  52.333  1.00  0.00     0.102 A 
HETATM    7  C13 UNL     1      22.970   1.096  53.022  1.00  0.00     0.072 A 
HETATM    8  C14 UNL     1      22.914   1.505  51.606  1.00  0.00     0.179 A 
HETATM    9  C15 UNL     1      24.051   2.042  52.863  1.00  0.00     0.167 A 
HETATM   10  N3  UNL     1      23.508   3.350  52.780  1.00  0.00    -0.266 NA
HETATM   11  C16 UNL     1      24.286   3.952  51.757  1.00  0.00     0.124 A 
HETATM   12  C17 UNL     1      25.101   2.829  51.501  1.00  0.00     0.002 A 
HETATM   13  C18 UNL     1      25.762   1.574  51.463  1.00  0.00     0.124 A 
HETATM   14  N4  UNL     1      24.959   1.015  52.486  1.00  0.00    -0.266 NA
HETATM   15  H10 UNL     1      22.897   3.062  48.809  1.00  0.00     0.154 HD
ENDROOT
BRANCH   1  16
HETATM   16  C6  UNL     1      25.496   4.319  49.498  1.00  0.00     0.027 C 
HETATM   17  C5  UNL     1      26.447   5.086  49.017  1.00  0.00     0.139 C 
BRANCH  17  18
HETATM   18  O1  UNL     1      26.982   6.260  48.516  1.00  0.00    -0.335 OA
BRANCH  18  19
HETATM   19  C4  UNL     1      28.331   6.287  48.147  1.00  0.00     0.139 C 
HETATM   20  C3  UNL     1      28.931   7.468  47.963  1.00  0.00     0.019 C 
BRANCH  20  21
HETATM   21  C2  UNL     1      28.142   8.714  48.155  1.00  0.00     0.176 C 
BRANCH  21  22
HETATM   22  N1  UNL     1      28.443   9.216  49.474  1.00  0.00    -0.309 NA
HETATM   23  C1  UNL     1      27.417   9.305  50.263  1.00  0.00     0.142 C 
ENDBRANCH  21  22
ENDBRANCH  20  21
ENDBRANCH  18  19
ENDBRANCH  17  18
ENDBRANCH   1  16
BRANCH   6  24
HETATM   24  O2  UNL     1      21.816  -0.051  53.633  1.00  0.00    -0.379 OA
HETATM   25  C12 UNL     1      20.731   0.311  54.430  1.00  0.00     0.203 C 
ENDBRANCH   6  24
TORSDOF 6
ENDMDL
MODEL 9
REMARK VINA RESULT:      -6.4      3.626      5.407
REMARK  6 active torsions:
REMARK  status: ('A' for Active; 'I' for Inactive)
REMARK    1  A    between atoms: N1_2  and  C2_3 
REMARK    2  A    between atoms: C2_3  and  C3_4 
REMARK    3  A    between atoms: C4_5  and  O1_6 
REMARK    4  A    between atoms: O1_6  and  C5_7 
REMARK    5  A    between atoms: C6_8  and  C7_9 
REMARK    6  A    between atoms: C11_14  and  O2_15 
ROOT
HETATM    1  C7  UNL     1      22.293   1.031  53.078  1.00  0.00     0.138 C 
HETATM    2  N2  UNL     1      21.778  -0.322  53.485  1.00  0.00    -0.401 N 
HETATM    3  C8  UNL     1      20.361  -0.590  53.292  1.00  0.00     0.039 A 
HETATM    4  C9  UNL     1      19.386  -1.450  53.832  1.00  0.00    -0.002 A 
HETATM    5  C10 UNL     1      18.129  -1.333  53.210  1.00  0.00     0.010 A 
HETATM    6  C11 UNL     1      17.942  -0.414  52.149  1.00  0.00     0.102 A 
HETATM    7  C13 UNL     1      18.562   0.569  51.340  1.00  0.00     0.072 A 
HETATM    8  C14 UNL     1      19.506   0.001  52.321  1.00  0.00     0.179 A 
HETATM    9  C15 UNL     1      19.813   1.252  51.096  1.00  0.00     0.167 A 
HETATM   10  N3  UNL     1      20.697   0.368  50.428  1.00  0.00    -0.266 NA
HETATM   11  C16 UNL     1      21.940   0.623  51.065  1.00  0.00     0.124 A 
HETATM   12  C17 UNL     1      21.461   1.610  51.952  1.00  0.00     0.002 A 
HETATM   13  C18 UNL     1      20.718   2.554  52.707  1.00  0.00     0.124 A 
HETATM   14  N4  UNL     1      19.501   2.264  52.045  1.00  0.00    -0.266 NA
HETATM   15  H10 UNL     1      22.010  -1.245  53.879  1.00  0.00     0.154 HD
ENDROOT
BRANCH   1  16
HETATM   16  C6  UNL     1      23.713   0.987  52.915  1.00  0.00     0.027 C 
HETATM   17  C5  UNL     1      24.920   0.658  53.314  1.00  0.00     0.139 C 
BRANCH  17  18
HETATM   18  O1  UNL     1      26.299   0.583  53.217  1.00  0.00    -0.335 OA
BRANCH  18  19
HETATM   19  C4  UNL     1      27.020   1.739  52.897  1.00  0.00     0.139 C 
HETATM   20  C3  UNL     1      28.218   1.933  53.457  1.00  0.00     0.019 C 
BRANCH  20  21
HETATM   21  C2  UNL     1      28.745   0.913  54.403  1.00  0.00     0.176 C 
BRANCH  21  22
HETATM   22  N1  UNL     1      29.812   0.212  53.730  1.00  0.00    -0.309 NA
HETATM   23  C1  UNL     1      29.552  -1.030  53.458  1.00  0.00     0.142 C 
ENDBRANCH  21  22
ENDBRANCH  20  21
ENDBRANCH  18  19
ENDBRANCH  17  18
ENDBRANCH   1  16
BRANCH   6  24
HETATM   24  O2  UNL     1      16.920   0.004  51.297  1.00  0.00    -0.379 OA
HETATM   25  C12 UNL     1      15.616   0.106  51.780  1.00  0.00     0.203 C 
ENDBRANCH   6  24
TORSDOF 6
ENDMDL
