MODEL 1
REMARK VINA RESULT:      -8.1      0.000      0.000
REMARK  8 active torsions:
REMARK  status: ('A' for Active; 'I' for Inactive)
REMARK    1  A    between atoms: N1_1  and  C1_2 
REMARK    2  A    between atoms: C1_2  and  C13_20 
REMARK    3  A    between atoms: C2_3  and  C3_4 
REMARK    4  A    between atoms: C5_7  and  N3_8 
REMARK    5  A    between atoms: C6_10  and  N5_11 
REMARK    6  A    between atoms: N5_11  and  C7_12 
REMARK    7  A    between atoms: C13_20  and  C14_21 
REMARK    8  A    between atoms: C14_21  and  C15_22 
ROOT
HETATM    1  C3  UNL     1      26.376  -0.485  53.396  1.00  0.00     0.030 A 
HETATM    2  C4  UNL     1      27.069  -1.667  53.267  1.00  0.00     0.151 A 
HETATM    3  N2  UNL     1      28.426  -1.502  53.288  1.00  0.00    -0.074 NA
HETATM    4  C5  UNL     1      28.952  -0.270  53.425  1.00  0.00     0.721 A 
HETATM    5  N4  UNL     1      28.212   0.873  53.549  1.00  0.00    -0.044 NA
HETATM    6  C6  UNL     1      26.877   0.803  53.539  1.00  0.00     0.159 A 
ENDROOT
BRANCH   1   7
HETATM    7  C2  UNL     1      24.917  -0.525  53.417  1.00  0.00     0.041 C 
HETATM    8  C1  UNL     1      24.277  -0.910  54.499  1.00  0.00     0.004 C 
BRANCH   8   9
HETATM    9  N1  UNL     1      24.975  -1.294  55.673  1.00  0.00    -0.402 N 
HETATM   10  H1  UNL     1      24.965  -1.512  56.699  1.00  0.00     0.156 HD
HETATM   11  H2  UNL     1      25.524  -1.578  56.510  1.00  0.00     0.156 HD
ENDBRANCH   8   9
BRANCH   8  12
HETATM   12  C13 UNL     1      22.846  -1.054  54.857  1.00  0.00     0.060 C 
BRANCH  12  13
HETATM   13  C14 UNL     1      22.022  -1.121  53.579  1.00  0.00     0.034 C 
BRANCH  13  14
HETATM   14  C15 UNL     1      21.306   0.195  53.392  1.00  0.00    -0.015 C 
HETATM   15  C16 UNL     1      20.995   0.909  52.291  1.00  0.00    -0.039 A 
HETATM   16  C17 UNL     1      20.290   2.124  52.638  1.00  0.00     0.007 A 
HETATM   17  C20 UNL     1      21.369   0.395  50.990  1.00  0.00     0.023 A 
HETATM   18  C18 UNL     1      19.941   2.867  51.587  1.00  0.00    -0.021 A 
HETATM   19  C19 UNL     1      20.029   2.882  50.111  1.00  0.00     0.070 A 
HETATM   20  P1  UNL     1      20.947   1.302  49.669  1.00  0.00    -0.057 P 
ENDBRANCH  13  14
ENDBRANCH  12  13
ENDBRANCH   8  12
ENDBRANCH   1   7
BRANCH   6  21
HETATM   21  N5  UNL     1      26.022   1.941  53.640  1.00  0.00    -0.337 N 
HETATM   22  H7  UNL     1      25.787   2.340  54.557  1.00  0.00     0.167 HD
BRANCH  21  23
HETATM   23  C7  UNL     1      25.504   2.500  52.415  1.00  0.00     0.072 A 
HETATM   24  C8  UNL     1      26.360   2.589  51.324  1.00  0.00     0.034 A 
HETATM   25  C9  UNL     1      25.726   3.141  50.249  1.00  0.00     0.026 A 
HETATM   26  C10 UNL     1      24.473   3.605  50.034  1.00  0.00     0.037 A 
HETATM   27 CL1  UNL     1      23.767   4.292  48.612  1.00  0.00    -0.084 Cl
HETATM   28  C11 UNL     1      23.715   3.458  51.209  1.00  0.00     0.068 A 
HETATM   29  C12 UNL     1      24.159   2.918  52.425  1.00  0.00     0.144 A 
HETATM   30  F1  UNL     1      23.382   2.808  53.507  1.00  0.00    -0.204 F 
ENDBRANCH  21  23
ENDBRANCH   6  21
BRANCH   4  31
HETATM   31  N3  UNL     1      30.361  -0.161  53.436  1.00  0.00    -0.231 N 
HETATM   32  H5  UNL     1      30.869  -0.258  54.368  1.00  0.00     0.174 HD
HETATM   33  H6  UNL     1      31.378  -0.080  53.427  1.00  0.00     0.174 HD
ENDBRANCH   4  31
TORSDOF 8
ENDMDL
MODEL 2
REMARK VINA RESULT:      -7.8      3.716      6.838
REMARK  8 active torsions:
REMARK  status: ('A' for Active; 'I' for Inactive)
REMARK    1  A    between atoms: N1_1  and  C1_2 
REMARK    2  A    between atoms: C1_2  and  C13_20 
REMARK    3  A    between atoms: C2_3  and  C3_4 
REMARK    4  A    between atoms: C5_7  and  N3_8 
REMARK    5  A    between atoms: C6_10  and  N5_11 
REMARK    6  A    between atoms: N5_11  and  C7_12 
REMARK    7  A    between atoms: C13_20  and  C14_21 
REMARK    8  A    between atoms: C14_21  and  C15_22 
ROOT
HETATM    1  C3  UNL     1      22.553   1.065  51.616  1.00  0.00     0.030 A 
HETATM    2  C4  UNL     1      21.328   0.463  51.439  1.00  0.00     0.151 A 
HETATM    3  N2  UNL     1      20.868  -0.166  52.562  1.00  0.00    -0.074 NA
HETATM    4  C5  UNL     1      21.603  -0.152  53.691  1.00  0.00     0.721 A 
HETATM    5  N4  UNL     1      22.819   0.464  53.809  1.00  0.00    -0.044 NA
HETATM    6  C6  UNL     1      23.343   1.104  52.758  1.00  0.00     0.159 A 
ENDROOT
BRANCH   1   7
HETATM    7  C2  UNL     1      23.145   1.796  50.500  1.00  0.00     0.041 C 
HETATM    8  C1  UNL     1      22.743   3.015  50.215  1.00  0.00     0.004 C 
BRANCH   8   9
HETATM    9  N1  UNL     1      21.733   3.657  50.977  1.00  0.00    -0.402 N 
HETATM   10  H1  UNL     1      21.018   4.419  51.069  1.00  0.00     0.156 HD
HETATM   11  H2  UNL     1      20.998   4.098  51.567  1.00  0.00     0.156 HD
ENDBRANCH   8   9
BRANCH   8  12
HETATM   12  C13 UNL     1      23.124   4.016  49.191  1.00  0.00     0.060 C 
BRANCH  12  13
HETATM   13  C14 UNL     1      24.069   5.031  49.819  1.00  0.00     0.034 C 
BRANCH  13  14
HETATM   14  C15 UNL     1      25.478   4.729  49.368  1.00  0.00    -0.015 C 
HETATM   15  C16 UNL     1      26.502   5.526  49.001  1.00  0.00    -0.039 A 
HETATM   16  C17 UNL     1      27.670   4.747  48.651  1.00  0.00     0.007 A 
HETATM   17  C20 UNL     1      26.316   6.962  49.015  1.00  0.00     0.023 A 
HETATM   18  C18 UNL     1      28.724   5.482  48.292  1.00  0.00    -0.021 A 
HETATM   19  C19 UNL     1      29.135   6.892  48.118  1.00  0.00     0.070 A 
HETATM   20  P1  UNL     1      27.611   7.896  48.571  1.00  0.00    -0.057 P 
ENDBRANCH  13  14
ENDBRANCH  12  13
ENDBRANCH   8  12
ENDBRANCH   1   7
BRANCH   6  21
HETATM   21  N5  UNL     1      24.612   1.755  52.779  1.00  0.00    -0.337 N 
HETATM   22  H7  UNL     1      24.678   2.778  52.707  1.00  0.00     0.167 HD
BRANCH  21  23
HETATM   23  C7  UNL     1      25.787   0.926  52.902  1.00  0.00     0.072 A 
HETATM   24  C8  UNL     1      25.744  -0.353  52.363  1.00  0.00     0.034 A 
HETATM   25  C9  UNL     1      26.924  -1.008  52.564  1.00  0.00     0.026 A 
HETATM   26  C10 UNL     1      28.092  -0.678  53.164  1.00  0.00     0.037 A 
HETATM   27 CL1  UNL     1      29.543  -1.599  53.362  1.00  0.00    -0.084 Cl
HETATM   28  C11 UNL     1      28.003   0.633  53.663  1.00  0.00     0.068 A 
HETATM   29  C12 UNL     1      26.894   1.487  53.570  1.00  0.00     0.144 A 
HETATM   30  F1  UNL     1      26.878   2.726  54.070  1.00  0.00    -0.204 F 
ENDBRANCH  21  23
ENDBRANCH   6  21
BRANCH   4  31
HETATM   31  N3  UNL     1      21.079  -0.822  54.818  1.00  0.00    -0.231 N 
HETATM   32  H5  UNL     1      20.975  -1.883  54.773  1.00  0.00     0.174 HD
HETATM   33  H6  UNL     1      20.698  -1.292  55.640  1.00  0.00     0.174 HD
ENDBRANCH   4  31
TORSDOF 8
ENDMDL
MODEL 3
REMARK VINA RESULT:      -7.7      3.607      6.323
REMARK  8 active torsions:
REMARK  status: ('A' for Active; 'I' for Inactive)
REMARK    1  A    between atoms: N1_1  and  C1_2 
REMARK    2  A    between atoms: C1_2  and  C13_20 
REMARK    3  A    between atoms: C2_3  and  C3_4 
REMARK    4  A    between atoms: C5_7  and  N3_8 
REMARK    5  A    between atoms: C6_10  and  N5_11 
REMARK    6  A    between atoms: N5_11  and  C7_12 
REMARK    7  A    between atoms: C13_20  and  C14_21 
REMARK    8  A    between atoms: C14_21  and  C15_22 
ROOT
HETATM    1  C3  UNL     1      19.829   1.042  52.057  1.00  0.00     0.030 A 
HETATM    2  C4  UNL     1      18.525   0.756  51.722  1.00  0.00     0.151 A 
HETATM    3  N2  UNL     1      17.768   1.873  51.500  1.00  0.00    -0.074 NA
HETATM    4  C5  UNL     1      18.320   3.095  51.617  1.00  0.00     0.721 A 
HETATM    5  N4  UNL     1      19.627   3.320  51.955  1.00  0.00    -0.044 NA
HETATM    6  C6  UNL     1      20.438   2.283  52.189  1.00  0.00     0.159 A 
ENDROOT
BRANCH   1   7
HETATM    7  C2  UNL     1      20.752  -0.064  52.293  1.00  0.00     0.041 C 
HETATM    8  C1  UNL     1      20.914  -0.549  53.504  1.00  0.00     0.004 C 
BRANCH   8   9
HETATM    9  N1  UNL     1      20.203  -0.021  54.612  1.00  0.00    -0.402 N 
HETATM   10  H1  UNL     1      19.619   0.744  55.029  1.00  0.00     0.156 HD
HETATM   11  H2  UNL     1      19.693   0.330  55.448  1.00  0.00     0.156 HD
ENDBRANCH   8   9
BRANCH   8  12
HETATM   12  C13 UNL     1      21.737  -1.639  54.078  1.00  0.00     0.060 C 
BRANCH  12  13
HETATM   13  C14 UNL     1      22.992  -1.039  54.696  1.00  0.00     0.034 C 
BRANCH  13  14
HETATM   14  C15 UNL     1      23.801  -0.377  53.607  1.00  0.00    -0.015 C 
HETATM   15  C16 UNL     1      25.089   0.021  53.549  1.00  0.00    -0.039 A 
HETATM   16  C17 UNL     1      25.397   0.609  52.264  1.00  0.00     0.007 A 
HETATM   17  C20 UNL     1      25.942  -0.191  54.700  1.00  0.00     0.023 A 
HETATM   18  C18 UNL     1      26.663   1.009  52.141  1.00  0.00    -0.021 A 
HETATM   19  C19 UNL     1      27.930   1.064  52.902  1.00  0.00     0.070 A 
HETATM   20  P1  UNL     1      27.520   0.300  54.571  1.00  0.00    -0.057 P 
ENDBRANCH  13  14
ENDBRANCH  12  13
ENDBRANCH   8  12
ENDBRANCH   1   7
BRANCH   6  21
HETATM   21  N5  UNL     1      21.807   2.418  52.567  1.00  0.00    -0.337 N 
HETATM   22  H7  UNL     1      22.158   1.990  53.433  1.00  0.00     0.167 HD
BRANCH  21  23
HETATM   23  C7  UNL     1      22.670   3.178  51.694  1.00  0.00     0.072 A 
HETATM   24  C8  UNL     1      23.018   4.467  52.079  1.00  0.00     0.034 A 
HETATM   25  C9  UNL     1      23.829   5.051  51.150  1.00  0.00     0.026 A 
HETATM   26  C10 UNL     1      24.348   4.647  49.968  1.00  0.00     0.037 A 
HETATM   27 CL1  UNL     1      25.380   5.482  48.859  1.00  0.00    -0.084 Cl
HETATM   28  C11 UNL     1      23.921   3.335  49.698  1.00  0.00     0.068 A 
HETATM   29  C12 UNL     1      23.091   2.546  50.507  1.00  0.00     0.144 A 
HETATM   30  F1  UNL     1      22.722   1.301  50.188  1.00  0.00    -0.204 F 
ENDBRANCH  21  23
ENDBRANCH   6  21
BRANCH   4  31
HETATM   31  N3  UNL     1      17.488   4.212  51.380  1.00  0.00    -0.231 N 
HETATM   32  H5  UNL     1      16.790   4.161  50.575  1.00  0.00     0.174 HD
HETATM   33  H6  UNL     1      16.894   5.027  51.221  1.00  0.00     0.174 HD
ENDBRANCH   4  31
TORSDOF 8
ENDMDL
MODEL 4
REMARK VINA RESULT:      -7.6      2.258      2.516
REMARK  8 active torsions:
REMARK  status: ('A' for Active; 'I' for Inactive)
REMARK    1  A    between atoms: N1_1  and  C1_2 
REMARK    2  A    between atoms: C1_2  and  C13_20 
REMARK    3  A    between atoms: C2_3  and  C3_4 
REMARK    4  A    between atoms: C5_7  and  N3_8 
REMARK    5  A    between atoms: C6_10  and  N5_11 
REMARK    6  A    between atoms: N5_11  and  C7_12 
REMARK    7  A    between atoms: C13_20  and  C14_21 
REMARK    8  A    between atoms: C14_21  and  C15_22 
ROOT
HETATM    1  C3  UNL     1      25.065   0.039  53.504  1.00  0.00     0.030 A 
HETATM    2  C4  UNL     1      26.019  -0.924  53.741  1.00  0.00     0.151 A 
HETATM    3  N2  UNL     1      27.230  -0.407  54.105  1.00  0.00    -0.074 NA
HETATM    4  C5  UNL     1      27.392   0.927  54.201  1.00  0.00     0.721 A 
HETATM    5  N4  UNL     1      26.405   1.840  53.952  1.00  0.00    -0.044 NA
HETATM    6  C6  UNL     1      25.188   1.420  53.590  1.00  0.00     0.159 A 
ENDROOT
BRANCH   1   7
HETATM    7  C2  UNL     1      23.718  -0.382  53.134  1.00  0.00     0.041 C 
HETATM    8  C1  UNL     1      22.928  -0.944  54.022  1.00  0.00     0.004 C 
BRANCH   8   9
HETATM    9  N1  UNL     1      23.353  -1.156  55.359  1.00  0.00    -0.402 N 
HETATM   10  H1  UNL     1      23.794  -0.787  56.236  1.00  0.00     0.156 HD
HETATM   11  H2  UNL     1      23.650  -1.353  56.336  1.00  0.00     0.156 HD
ENDBRANCH   8   9
BRANCH   8  12
HETATM   12  C13 UNL     1      21.541  -1.465  53.989  1.00  0.00     0.060 C 
BRANCH  12  13
HETATM   13  C14 UNL     1      20.572  -0.303  54.150  1.00  0.00     0.034 C 
BRANCH  13  14
HETATM   14  C15 UNL     1      19.971   0.020  52.803  1.00  0.00    -0.015 C 
HETATM   15  C16 UNL     1      18.766  -0.247  52.261  1.00  0.00    -0.039 A 
HETATM   16  C17 UNL     1      18.667   0.285  50.919  1.00  0.00     0.007 A 
HETATM   17  C20 UNL     1      17.787  -0.972  53.045  1.00  0.00     0.023 A 
HETATM   18  C18 UNL     1      17.489   0.064  50.334  1.00  0.00    -0.021 A 
HETATM   19  C19 UNL     1      16.177  -0.569  50.595  1.00  0.00     0.070 A 
HETATM   20  P1  UNL     1      16.316  -1.259  52.339  1.00  0.00    -0.057 P 
ENDBRANCH  13  14
ENDBRANCH  12  13
ENDBRANCH   8  12
ENDBRANCH   1   7
BRANCH   6  21
HETATM   21  N5  UNL     1      24.104   2.297  53.290  1.00  0.00    -0.337 N 
HETATM   22  H7  UNL     1      23.270   2.326  53.890  1.00  0.00     0.167 HD
BRANCH  21  23
HETATM   23  C7  UNL     1      24.223   3.131  52.118  1.00  0.00     0.072 A 
HETATM   24  C8  UNL     1      24.677   2.546  50.943  1.00  0.00     0.034 A 
HETATM   25  C9  UNL     1      24.738   3.462  49.933  1.00  0.00     0.026 A 
HETATM   26  C10 UNL     1      24.457   4.782  49.844  1.00  0.00     0.037 A 
HETATM   27 CL1  UNL     1      24.572   5.859  48.494  1.00  0.00    -0.084 Cl
HETATM   28  C11 UNL     1      24.011   5.247  51.094  1.00  0.00     0.068 A 
HETATM   29  C12 UNL     1      23.868   4.487  52.263  1.00  0.00     0.144 A 
HETATM   30  F1  UNL     1      23.437   4.996  53.422  1.00  0.00    -0.204 F 
ENDBRANCH  21  23
ENDBRANCH   6  21
BRANCH   4  31
HETATM   31  N3  UNL     1      28.667   1.403  54.578  1.00  0.00    -0.231 N 
HETATM   32  H5  UNL     1      28.733   2.364  55.036  1.00  0.00     0.174 HD
HETATM   33  H6  UNL     1      29.596   1.733  54.844  1.00  0.00     0.174 HD
ENDBRANCH   4  31
TORSDOF 8
ENDMDL
MODEL 5
REMARK VINA RESULT:      -7.4      4.899      8.350
REMARK  8 active torsions:
REMARK  status: ('A' for Active; 'I' for Inactive)
REMARK    1  A    between atoms: N1_1  and  C1_2 
REMARK    2  A    between atoms: C1_2  and  C13_20 
REMARK    3  A    between atoms: C2_3  and  C3_4 
REMARK    4  A    between atoms: C5_7  and  N3_8 
REMARK    5  A    between atoms: C6_10  and  N5_11 
REMARK    6  A    between atoms: N5_11  and  C7_12 
REMARK    7  A    between atoms: C13_20  and  C14_21 
REMARK    8  A    between atoms: C14_21  and  C15_22 
ROOT
HETATM    1  C3  UNL     1      24.475   3.034  50.622  1.00  0.00     0.030 A 
HETATM    2  C4  UNL     1      23.212   2.922  50.085  1.00  0.00     0.151 A 
HETATM    3  N2  UNL     1      22.322   2.310  50.923  1.00  0.00    -0.074 NA
HETATM    4  C5  UNL     1      22.722   1.887  52.137  1.00  0.00     0.721 A 
HETATM    5  N4  UNL     1      23.995   2.024  52.619  1.00  0.00    -0.044 NA
HETATM    6  C6  UNL     1      24.929   2.612  51.864  1.00  0.00     0.159 A 
ENDROOT
BRANCH   1   7
HETATM    7  C2  UNL     1      25.514   3.695  49.839  1.00  0.00     0.041 C 
HETATM    8  C1  UNL     1      25.508   5.002  49.693  1.00  0.00     0.004 C 
BRANCH   8   9
HETATM    9  N1  UNL     1      24.502   5.806  50.286  1.00  0.00    -0.402 N 
HETATM   10  H1  UNL     1      24.174   6.395  51.090  1.00  0.00     0.156 HD
HETATM   11  H2  UNL     1      23.740   6.390  50.686  1.00  0.00     0.156 HD
ENDBRANCH   8   9
BRANCH   8  12
HETATM   12  C13 UNL     1      26.389   5.967  48.995  1.00  0.00     0.060 C 
BRANCH  12  13
HETATM   13  C14 UNL     1      27.680   5.262  48.601  1.00  0.00     0.034 C 
BRANCH  13  14
HETATM   14  C15 UNL     1      28.621   6.275  47.994  1.00  0.00    -0.015 C 
HETATM   15  C16 UNL     1      29.924   6.210  47.652  1.00  0.00    -0.039 A 
HETATM   16  C17 UNL     1      30.381   7.464  47.095  1.00  0.00     0.007 A 
HETATM   17  C20 UNL     1      30.645   4.971  47.860  1.00  0.00     0.023 A 
HETATM   18  C18 UNL     1      31.662   7.457  46.723  1.00  0.00    -0.021 A 
HETATM   19  C19 UNL     1      32.841   6.565  46.679  1.00  0.00     0.070 A 
HETATM   20  P1  UNL     1      32.238   4.938  47.406  1.00  0.00    -0.057 P 
ENDBRANCH  13  14
ENDBRANCH  12  13
ENDBRANCH   8  12
ENDBRANCH   1   7
BRANCH   6  21
HETATM   21  N5  UNL     1      26.286   2.781  52.272  1.00  0.00    -0.337 N 
HETATM   22  H7  UNL     1      26.700   3.718  52.344  1.00  0.00     0.167 HD
BRANCH  21  23
HETATM   23  C7  UNL     1      27.046   1.591  52.573  1.00  0.00     0.072 A 
HETATM   24  C8  UNL     1      26.543   0.368  52.146  1.00  0.00     0.034 A 
HETATM   25  C9  UNL     1      27.371  -0.654  52.510  1.00  0.00     0.026 A 
HETATM   26  C10 UNL     1      28.544  -0.719  53.181  1.00  0.00     0.037 A 
HETATM   27 CL1  UNL     1      29.520  -2.088  53.589  1.00  0.00    -0.084 Cl
HETATM   28  C11 UNL     1      28.940   0.578  53.553  1.00  0.00     0.068 A 
HETATM   29  C12 UNL     1      28.249   1.768  53.285  1.00  0.00     0.144 A 
HETATM   30  F1  UNL     1      28.684   2.972  53.671  1.00  0.00    -0.204 F 
ENDBRANCH  21  23
ENDBRANCH   6  21
BRANCH   4  31
HETATM   31  N3  UNL     1      21.759   1.257  52.957  1.00  0.00    -0.231 N 
HETATM   32  H5  UNL     1      21.918   1.253  54.012  1.00  0.00     0.174 HD
HETATM   33  H6  UNL     1      21.054   0.798  53.536  1.00  0.00     0.174 HD
ENDBRANCH   4  31
TORSDOF 8
ENDMDL
MODEL 6
REMARK VINA RESULT:      -7.4      3.275      5.519
REMARK  8 active torsions:
REMARK  status: ('A' for Active; 'I' for Inactive)
REMARK    1  A    between atoms: N1_1  and  C1_2 
REMARK    2  A    between atoms: C1_2  and  C13_20 
REMARK    3  A    between atoms: C2_3  and  C3_4 
REMARK    4  A    between atoms: C5_7  and  N3_8 
REMARK    5  A    between atoms: C6_10  and  N5_11 
REMARK    6  A    between atoms: N5_11  and  C7_12 
REMARK    7  A    between atoms: C13_20  and  C14_21 
REMARK    8  A    between atoms: C14_21  and  C15_22 
ROOT
HETATM    1  C3  UNL     1      24.076   4.391  49.872  1.00  0.00     0.030 A 
HETATM    2  C4  UNL     1      24.302   5.574  49.207  1.00  0.00     0.151 A 
HETATM    3  N2  UNL     1      25.620   5.784  48.912  1.00  0.00    -0.074 NA
HETATM    4  C5  UNL     1      26.544   4.873  49.272  1.00  0.00     0.721 A 
HETATM    5  N4  UNL     1      26.261   3.711  49.935  1.00  0.00    -0.044 NA
HETATM    6  C6  UNL     1      24.996   3.426  50.262  1.00  0.00     0.159 A 
ENDROOT
BRANCH   1   7
HETATM    7  C2  UNL     1      22.705   4.032  50.222  1.00  0.00     0.041 C 
HETATM    8  C1  UNL     1      21.910   3.488  49.327  1.00  0.00     0.004 C 
BRANCH   8   9
HETATM    9  N1  UNL     1      22.353   3.231  48.005  1.00  0.00    -0.402 N 
HETATM   10  H1  UNL     1      22.157   2.865  47.041  1.00  0.00     0.156 HD
HETATM   11  H2  UNL     1      22.717   3.060  47.045  1.00  0.00     0.156 HD
ENDBRANCH   8   9
BRANCH   8  12
HETATM   12  C13 UNL     1      20.509   3.007  49.347  1.00  0.00     0.060 C 
BRANCH  12  13
HETATM   13  C14 UNL     1      20.502   1.496  49.159  1.00  0.00     0.034 C 
BRANCH  13  14
HETATM   14  C15 UNL     1      19.836   0.860  50.356  1.00  0.00    -0.015 C 
HETATM   15  C16 UNL     1      20.331   0.336  51.495  1.00  0.00    -0.039 A 
HETATM   16  C17 UNL     1      19.270  -0.155  52.348  1.00  0.00     0.007 A 
HETATM   17  C20 UNL     1      21.763   0.344  51.710  1.00  0.00     0.023 A 
HETATM   18  C18 UNL     1      19.697  -0.674  53.500  1.00  0.00    -0.021 A 
HETATM   19  C19 UNL     1      20.945  -0.936  54.250  1.00  0.00     0.070 A 
HETATM   20  P1  UNL     1      22.318  -0.297  53.134  1.00  0.00    -0.057 P 
ENDBRANCH  13  14
ENDBRANCH  12  13
ENDBRANCH   8  12
ENDBRANCH   1   7
BRANCH   6  21
HETATM   21  N5  UNL     1      24.607   2.251  50.971  1.00  0.00    -0.337 N 
HETATM   22  H7  UNL     1      23.699   1.806  50.792  1.00  0.00     0.167 HD
BRANCH  21  23
HETATM   23  C7  UNL     1      25.532   1.721  51.945  1.00  0.00     0.072 A 
HETATM   24  C8  UNL     1      26.422   0.737  51.533  1.00  0.00     0.034 A 
HETATM   25  C9  UNL     1      27.220   0.338  52.565  1.00  0.00     0.026 A 
HETATM   26  C10 UNL     1      27.320   0.692  53.867  1.00  0.00     0.037 A 
HETATM   27 CL1  UNL     1      28.385   0.114  55.102  1.00  0.00    -0.084 Cl
HETATM   28  C11 UNL     1      26.370   1.689  54.152  1.00  0.00     0.068 A 
HETATM   29  C12 UNL     1      25.453   2.247  53.250  1.00  0.00     0.144 A 
HETATM   30  F1  UNL     1      24.573   3.194  53.589  1.00  0.00    -0.204 F 
ENDBRANCH  21  23
ENDBRANCH   6  21
BRANCH   4  31
HETATM   31  N3  UNL     1      27.891   5.147  48.943  1.00  0.00    -0.231 N 
HETATM   32  H5  UNL     1      28.246   6.146  49.056  1.00  0.00     0.174 HD
HETATM   33  H6  UNL     1      28.866   5.328  48.702  1.00  0.00     0.174 HD
ENDBRANCH   4  31
TORSDOF 8
ENDMDL
MODEL 7
REMARK VINA RESULT:      -7.4      2.174      2.815
REMARK  8 active torsions:
REMARK  status: ('A' for Active; 'I' for Inactive)
REMARK    1  A    between atoms: N1_1  and  C1_2 
REMARK    2  A    between atoms: C1_2  and  C13_20 
REMARK    3  A    between atoms: C2_3  and  C3_4 
REMARK    4  A    between atoms: C5_7  and  N3_8 
REMARK    5  A    between atoms: C6_10  and  N5_11 
REMARK    6  A    between atoms: N5_11  and  C7_12 
REMARK    7  A    between atoms: C13_20  and  C14_21 
REMARK    8  A    between atoms: C14_21  and  C15_22 
ROOT
HETATM    1  C3  UNL     1      25.519   1.723  53.219  1.00  0.00     0.030 A 
HETATM    2  C4  UNL     1      26.023   1.401  54.458  1.00  0.00     0.151 A 
HETATM    3  N2  UNL     1      27.379   1.551  54.545  1.00  0.00    -0.074 NA
HETATM    4  C5  UNL     1      28.079   1.976  53.476  1.00  0.00     0.721 A 
HETATM    5  N4  UNL     1      27.523   2.282  52.265  1.00  0.00    -0.044 NA
HETATM    6  C6  UNL     1      26.202   2.164  52.093  1.00  0.00     0.159 A 
ENDROOT
BRANCH   1   7
HETATM    7  C2  UNL     1      24.079   1.634  53.001  1.00  0.00     0.041 C 
HETATM    8  C1  UNL     1      23.478   0.464  52.995  1.00  0.00     0.004 C 
BRANCH   8   9
HETATM    9  N1  UNL     1      24.201  -0.739  53.200  1.00  0.00    -0.402 N 
HETATM   10  H1  UNL     1      25.110  -1.261  53.177  1.00  0.00     0.156 HD
HETATM   11  H2  UNL     1      24.694  -1.640  53.363  1.00  0.00     0.156 HD
ENDBRANCH   8   9
BRANCH   8  12
HETATM   12  C13 UNL     1      22.073   0.025  52.819  1.00  0.00     0.060 C 
BRANCH  12  13
HETATM   13  C14 UNL     1      21.645   0.302  51.384  1.00  0.00     0.034 C 
BRANCH  13  14
HETATM   14  C15 UNL     1      21.220   1.747  51.274  1.00  0.00    -0.015 C 
HETATM   15  C16 UNL     1      21.458   2.693  50.343  1.00  0.00    -0.039 A 
HETATM   16  C17 UNL     1      20.819   3.942  50.692  1.00  0.00     0.007 A 
HETATM   17  C20 UNL     1      22.259   2.354  49.185  1.00  0.00     0.023 A 
HETATM   18  C18 UNL     1      21.006   4.916  49.799  1.00  0.00    -0.021 A 
HETATM   19  C19 UNL     1      21.677   5.175  48.507  1.00  0.00     0.070 A 
HETATM   20  P1  UNL     1      22.508   3.547  48.062  1.00  0.00    -0.057 P 
ENDBRANCH  13  14
ENDBRANCH  12  13
ENDBRANCH   8  12
ENDBRANCH   1   7
BRANCH   6  21
HETATM   21  N5  UNL     1      25.536   2.439  50.862  1.00  0.00    -0.337 N 
HETATM   22  H7  UNL     1      24.908   1.744  50.438  1.00  0.00     0.167 HD
BRANCH  21  23
HETATM   23  C7  UNL     1      25.781   3.718  50.240  1.00  0.00     0.072 A 
HETATM   24  C8  UNL     1      26.818   3.809  49.319  1.00  0.00     0.034 A 
HETATM   25  C9  UNL     1      26.924   5.078  48.827  1.00  0.00     0.026 A 
HETATM   26  C10 UNL     1      26.248   6.230  49.045  1.00  0.00     0.037 A 
HETATM   27 CL1  UNL     1      26.471   7.800  48.355  1.00  0.00    -0.084 Cl
HETATM   28  C11 UNL     1      25.233   6.001  49.991  1.00  0.00     0.068 A 
HETATM   29  C12 UNL     1      24.943   4.784  50.624  1.00  0.00     0.144 A 
HETATM   30  F1  UNL     1      23.960   4.637  51.517  1.00  0.00    -0.204 F 
ENDBRANCH  21  23
ENDBRANCH   6  21
BRANCH   4  31
HETATM   31  N3  UNL     1      29.478   2.108  53.624  1.00  0.00    -0.231 N 
HETATM   32  H5  UNL     1      30.106   1.753  52.838  1.00  0.00     0.174 HD
HETATM   33  H6  UNL     1      30.486   2.210  53.747  1.00  0.00     0.174 HD
ENDBRANCH   4  31
TORSDOF 8
ENDMDL
MODEL 8
REMARK VINA RESULT:      -7.3      1.856      2.807
REMARK  8 active torsions:
REMARK  status: ('A' for Active; 'I' for Inactive)
REMARK    1  A    between atoms: N1_1  and  C1_2 
REMARK    2  A    between atoms: C1_2  and  C13_20 
REMARK    3  A    between atoms: C2_3  and  C3_4 
REMARK    4  A    between atoms: C5_7  and  N3_8 
REMARK    5  A    between atoms: C6_10  and  N5_11 
REMARK    6  A    between atoms: N5_11  and  C7_12 
REMARK    7  A    between atoms: C13_20  and  C14_21 
REMARK    8  A    between atoms: C14_21  and  C15_22 
ROOT
HETATM    1  C3  UNL     1      23.402  -0.495  53.559  1.00  0.00     0.030 A 
HETATM    2  C4  UNL     1      23.779  -1.171  54.696  1.00  0.00     0.151 A 
HETATM    3  N2  UNL     1      25.022  -0.823  55.145  1.00  0.00    -0.074 NA
HETATM    4  C5  UNL     1      25.743   0.101  54.481  1.00  0.00     0.721 A 
HETATM    5  N4  UNL     1      25.317   0.742  53.351  1.00  0.00    -0.044 NA
HETATM    6  C6  UNL     1      24.112   0.461  52.844  1.00  0.00     0.159 A 
ENDROOT
BRANCH   1   7
HETATM    7  C2  UNL     1      22.083  -0.754  52.991  1.00  0.00     0.041 C 
HETATM    8  C1  UNL     1      20.996  -0.415  53.650  1.00  0.00     0.004 C 
BRANCH   8   9
HETATM    9  N1  UNL     1      21.068   0.209  54.921  1.00  0.00    -0.402 N 
HETATM   10  H1  UNL     1      21.277   0.148  55.948  1.00  0.00     0.156 HD
HETATM   11  H2  UNL     1      21.108   0.705  55.835  1.00  0.00     0.156 HD
ENDBRANCH   8   9
BRANCH   8  12
HETATM   12  C13 UNL     1      19.545  -0.520  53.372  1.00  0.00     0.060 C 
BRANCH  12  13
HETATM   13  C14 UNL     1      19.313  -0.332  51.879  1.00  0.00     0.034 C 
BRANCH  13  14
HETATM   14  C15 UNL     1      19.341   1.145  51.565  1.00  0.00    -0.015 C 
HETATM   15  C16 UNL     1      19.948   1.852  50.590  1.00  0.00    -0.039 A 
HETATM   16  C17 UNL     1      19.663   3.264  50.715  1.00  0.00     0.007 A 
HETATM   17  C20 UNL     1      20.741   1.150  49.602  1.00  0.00     0.023 A 
HETATM   18  C18 UNL     1      20.226   4.017  49.768  1.00  0.00    -0.021 A 
HETATM   19  C19 UNL     1      21.085   3.902  48.570  1.00  0.00     0.070 A 
HETATM   20  P1  UNL     1      21.451   2.064  48.416  1.00  0.00    -0.057 P 
ENDBRANCH  13  14
ENDBRANCH  12  13
ENDBRANCH   8  12
ENDBRANCH   1   7
BRANCH   6  21
HETATM   21  N5  UNL     1      23.591   1.062  51.659  1.00  0.00    -0.337 N 
HETATM   22  H7  UNL     1      23.135   0.491  50.937  1.00  0.00     0.167 HD
BRANCH  21  23
HETATM   23  C7  UNL     1      23.734   2.492  51.516  1.00  0.00     0.072 A 
HETATM   24  C8  UNL     1      24.708   2.967  50.648  1.00  0.00     0.034 A 
HETATM   25  C9  UNL     1      24.721   4.332  50.628  1.00  0.00     0.026 A 
HETATM   26  C10 UNL     1      24.001   5.287  51.261  1.00  0.00     0.037 A 
HETATM   27 CL1  UNL     1      24.102   7.011  51.157  1.00  0.00    -0.084 Cl
HETATM   28  C11 UNL     1      23.057   4.675  52.103  1.00  0.00     0.068 A 
HETATM   29  C12 UNL     1      22.866   3.298  52.280  1.00  0.00     0.144 A 
HETATM   30  F1  UNL     1      21.946   2.782  53.101  1.00  0.00    -0.204 F 
ENDBRANCH  21  23
ENDBRANCH   6  21
BRANCH   4  31
HETATM   31  N3  UNL     1      27.023   0.417  54.989  1.00  0.00    -0.231 N 
HETATM   32  H5  UNL     1      27.860   0.342  54.333  1.00  0.00     0.174 HD
HETATM   33  H6  UNL     1      27.940   0.649  55.372  1.00  0.00     0.174 HD
ENDBRANCH   4  31
TORSDOF 8
ENDMDL
MODEL 9
REMARK VINA RESULT:      -7.3      2.690      3.224
REMARK  8 active torsions:
REMARK  status: ('A' for Active; 'I' for Inactive)
REMARK    1  A    between atoms: N1_1  and  C1_2 
REMARK    2  A    between atoms: C1_2  and  C13_20 
REMARK    3  A    between atoms: C2_3  and  C3_4 
REMARK    4  A    between atoms: C5_7  and  N3_8 
REMARK    5  A    between atoms: C6_10  and  N5_11 
REMARK    6  A    between atoms: N5_11  and  C7_12 
REMARK    7  A    between atoms: C13_20  and  C14_21 
REMARK    8  A    between atoms: C14_21  and  C15_22 
ROOT
HETATM    1  C3  UNL     1      25.626   1.515  53.207  1.00  0.00     0.030 A 
HETATM    2  C4  UNL     1      26.185   1.211  54.427  1.00  0.00     0.151 A 
HETATM    3  N2  UNL     1      27.498   1.577  54.526  1.00  0.00    -0.074 NA
HETATM    4  C5  UNL     1      28.111   2.172  53.485  1.00  0.00     0.721 A 
HETATM    5  N4  UNL     1      27.504   2.450  52.291  1.00  0.00    -0.044 NA
HETATM    6  C6  UNL     1      26.219   2.126  52.110  1.00  0.00     0.159 A 
ENDROOT
BRANCH   1   7
HETATM    7  C2  UNL     1      24.219   1.202  52.981  1.00  0.00     0.041 C 
HETATM    8  C1  UNL     1      23.787  -0.036  53.082  1.00  0.00     0.004 C 
BRANCH   8   9
HETATM    9  N1  UNL     1      24.666  -1.099  53.414  1.00  0.00    -0.402 N 
HETATM   10  H1  UNL     1      25.326  -1.855  53.108  1.00  0.00     0.156 HD
HETATM   11  H2  UNL     1      25.302  -1.872  53.700  1.00  0.00     0.156 HD
ENDBRANCH   8   9
BRANCH   8  12
HETATM   12  C13 UNL     1      22.463  -0.685  52.932  1.00  0.00     0.060 C 
BRANCH  12  13
HETATM   13  C14 UNL     1      21.375   0.354  53.167  1.00  0.00     0.034 C 
BRANCH  13  14
HETATM   14  C15 UNL     1      20.060  -0.358  53.373  1.00  0.00    -0.015 C 
HETATM   15  C16 UNL     1      18.929  -0.401  52.640  1.00  0.00    -0.039 A 
HETATM   16  C17 UNL     1      17.931  -1.240  53.267  1.00  0.00     0.007 A 
HETATM   17  C20 UNL     1      18.868   0.338  51.396  1.00  0.00     0.023 A 
HETATM   18  C18 UNL     1      16.792  -1.334  52.580  1.00  0.00    -0.021 A 
HETATM   19  C19 UNL     1      16.160  -0.854  51.333  1.00  0.00     0.070 A 
HETATM   20  P1  UNL     1      17.461   0.237  50.525  1.00  0.00    -0.057 P 
ENDBRANCH  13  14
ENDBRANCH  12  13
ENDBRANCH   8  12
ENDBRANCH   1   7
BRANCH   6  21
HETATM   21  N5  UNL     1      25.509   2.356  50.894  1.00  0.00    -0.337 N 
HETATM   22  H7  UNL     1      25.144   1.570  50.342  1.00  0.00     0.167 HD
BRANCH  21  23
HETATM   23  C7  UNL     1      25.328   3.725  50.474  1.00  0.00     0.072 A 
HETATM   24  C8  UNL     1      24.314   4.463  51.070  1.00  0.00     0.034 A 
HETATM   25  C9  UNL     1      24.269   5.730  50.563  1.00  0.00     0.026 A 
HETATM   26  C10 UNL     1      24.988   6.394  49.629  1.00  0.00     0.037 A 
HETATM   27 CL1  UNL     1      24.844   8.021  49.059  1.00  0.00    -0.084 Cl
HETATM   28  C11 UNL     1      25.976   5.539  49.108  1.00  0.00     0.068 A 
HETATM   29  C12 UNL     1      26.204   4.206  49.480  1.00  0.00     0.144 A 
HETATM   30  F1  UNL     1      27.163   3.447  48.941  1.00  0.00    -0.204 F 
ENDBRANCH  21  23
ENDBRANCH   6  21
BRANCH   4  31
HETATM   31  N3  UNL     1      29.470   2.524  53.644  1.00  0.00    -0.231 N 
HETATM   32  H5  UNL     1      30.187   2.079  52.992  1.00  0.00     0.174 HD
HETATM   33  H6  UNL     1      30.448   2.788  53.772  1.00  0.00     0.174 HD
ENDBRANCH   4  31
TORSDOF 8
ENDMDL
