MODEL 1
REMARK VINA RESULT:      -8.1      0.000      0.000
REMARK  6 active torsions:
REMARK  status: ('A' for Active; 'I' for Inactive)
REMARK    1  A    between atoms: C2_2  and  C3_3 
REMARK    2  A    between atoms: C2_2  and  C17_21 
REMARK    3  A    between atoms: C4_4  and  C5_5 
REMARK    4  A    between atoms: C12_14  and  C13_15 
REMARK    5  A    between atoms: C12_14  and  O2_18 
REMARK    6  A    between atoms: C13_15  and  O1_16 
ROOT
HETATM    1  C5  UNL     1      29.548   6.672  48.130  1.00  0.00     0.032 C 
HETATM    2  C6  UNL     1      29.982   7.863  48.515  1.00  0.00    -0.048 C 
HETATM    3  C7  UNL     1      29.091   8.937  49.015  1.00  0.00     0.046 C 
HETATM    4  C8  UNL     1      31.451   8.249  48.471  1.00  0.00     0.061 C 
HETATM    5  C9  UNL     1      31.761   8.280  46.992  1.00  0.00     0.095 C 
HETATM    6  N1  UNL     1      31.612   7.248  46.251  1.00  0.00    -0.275 NA
HETATM    7  C10 UNL     1      31.635   5.906  46.840  1.00  0.00     0.237 C 
HETATM    8  N2  UNL     1      30.240   5.725  47.272  1.00  0.00    -0.363 N 
HETATM    9  C11 UNL     1      32.562   6.067  47.987  1.00  0.00    -0.004 C 
HETATM   10  C12 UNL     1      33.674   5.373  48.213  1.00  0.00     0.075 C 
HETATM   11  C16 UNL     1      32.258   7.114  49.023  1.00  0.00     0.055 C 
HETATM   12  H11 UNL     1      29.742   4.888  46.946  1.00  0.00     0.162 HD
ENDROOT
BRANCH   1  13
HETATM   13  C4  UNL     1      28.263   6.133  48.538  1.00  0.00     0.030 C 
HETATM   14  C3  UNL     1      27.435   5.215  48.925  1.00  0.00     0.012 C 
BRANCH  14  15
HETATM   15  C2  UNL     1      26.166   4.653  49.336  1.00  0.00    -0.022 C 
HETATM   16  C1  UNL     1      25.050   5.194  48.892  1.00  0.00     0.046 C 
BRANCH  15  17
HETATM   17  C17 UNL     1      26.020   3.512  50.221  1.00  0.00     0.105 A 
HETATM   18  N3  UNL     1      26.791   2.687  50.715  1.00  0.00    -0.240 NA
HETATM   19  C18 UNL     1      26.392   1.718  51.510  1.00  0.00     0.075 A 
HETATM   20  C19 UNL     1      27.165   0.748  52.113  1.00  0.00     0.033 A 
HETATM   21  C23 UNL     1      25.028   1.610  51.815  1.00  0.00     0.035 A 
HETATM   22  C20 UNL     1      26.598  -0.189  52.913  1.00  0.00     0.002 A 
HETATM   23  C21 UNL     1      25.239  -0.282  53.207  1.00  0.00     0.002 A 
HETATM   24  C22 UNL     1      24.405   0.653  52.639  1.00  0.00     0.021 A 
HETATM   25  S1  UNL     1      24.347   3.066  50.831  1.00  0.00    -0.068 SA
ENDBRANCH  15  17
ENDBRANCH  14  15
ENDBRANCH   1  13
BRANCH  10  26
HETATM   26  C13 UNL     1      34.397   4.283  47.534  1.00  0.00     0.231 C 
BRANCH  26  27
HETATM   27  O1  UNL     1      34.061   3.012  47.977  1.00  0.00    -0.390 OA
HETATM   28  C14 UNL     1      33.036   2.415  47.260  1.00  0.00     0.201 C 
ENDBRANCH  26  27
ENDBRANCH  10  26
BRANCH  10  29
HETATM   29  O2  UNL     1      34.457   5.640  49.353  1.00  0.00    -0.358 OA
HETATM   30  C15 UNL     1      35.814   5.959  49.106  1.00  0.00     0.209 C 
ENDBRANCH  10  29
TORSDOF 6
ENDMDL
MODEL 2
REMARK VINA RESULT:      -8.0      3.455      8.854
REMARK  6 active torsions:
REMARK  status: ('A' for Active; 'I' for Inactive)
REMARK    1  A    between atoms: C2_2  and  C3_3 
REMARK    2  A    between atoms: C2_2  and  C17_21 
REMARK    3  A    between atoms: C4_4  and  C5_5 
REMARK    4  A    between atoms: C12_14  and  C13_15 
REMARK    5  A    between atoms: C12_14  and  O2_18 
REMARK    6  A    between atoms: C13_15  and  O1_16 
ROOT
HETATM    1  C5  UNL     1      24.922   3.528  50.730  1.00  0.00     0.032 C 
HETATM    2  C6  UNL     1      23.841   2.874  50.330  1.00  0.00    -0.048 C 
HETATM    3  C7  UNL     1      23.084   3.217  49.103  1.00  0.00     0.046 C 
HETATM    4  C8  UNL     1      23.264   1.702  51.106  1.00  0.00     0.061 C 
HETATM    5  C9  UNL     1      22.774   2.338  52.387  1.00  0.00     0.095 C 
HETATM    6  N1  UNL     1      23.564   2.967  53.172  1.00  0.00    -0.275 NA
HETATM    7  C10 UNL     1      25.002   2.683  53.156  1.00  0.00     0.237 C 
HETATM    8  N2  UNL     1      25.485   3.549  52.069  1.00  0.00    -0.363 N 
HETATM    9  C11 UNL     1      25.048   1.245  52.790  1.00  0.00    -0.004 C 
HETATM   10  C12 UNL     1      25.621   0.267  53.485  1.00  0.00     0.075 C 
HETATM   11  C16 UNL     1      24.388   0.801  51.513  1.00  0.00     0.055 C 
HETATM   12  H11 UNL     1      26.255   4.196  52.278  1.00  0.00     0.162 HD
ENDROOT
BRANCH   1  13
HETATM   13  C4  UNL     1      25.723   4.344  49.835  1.00  0.00     0.030 C 
HETATM   14  C3  UNL     1      26.184   5.447  49.335  1.00  0.00     0.012 C 
BRANCH  14  15
HETATM   15  C2  UNL     1      26.972   6.284  48.457  1.00  0.00    -0.022 C 
HETATM   16  C1  UNL     1      26.370   7.211  47.740  1.00  0.00     0.046 C 
BRANCH  15  17
HETATM   17  C17 UNL     1      28.412   6.183  48.298  1.00  0.00     0.105 A 
HETATM   18  N3  UNL     1      29.202   5.264  48.073  1.00  0.00    -0.240 NA
HETATM   19  C18 UNL     1      30.501   5.443  47.973  1.00  0.00     0.075 A 
HETATM   20  C19 UNL     1      31.468   4.491  47.725  1.00  0.00     0.033 A 
HETATM   21  C23 UNL     1      31.021   6.736  48.129  1.00  0.00     0.035 A 
HETATM   22  C20 UNL     1      32.777   4.839  47.651  1.00  0.00     0.002 A 
HETATM   23  C21 UNL     1      33.278   6.130  47.808  1.00  0.00     0.002 A 
HETATM   24  C22 UNL     1      32.370   7.134  48.059  1.00  0.00     0.021 A 
HETATM   25  S1  UNL     1      29.433   7.701  48.441  1.00  0.00    -0.068 SA
ENDBRANCH  15  17
ENDBRANCH  14  15
ENDBRANCH   1  13
BRANCH  10  26
HETATM   26  C13 UNL     1      26.366   0.165  54.753  1.00  0.00     0.231 C 
BRANCH  26  27
HETATM   27  O1  UNL     1      27.453   1.023  54.846  1.00  0.00    -0.390 OA
HETATM   28  C14 UNL     1      28.680   0.379  54.890  1.00  0.00     0.201 C 
ENDBRANCH  26  27
ENDBRANCH  10  26
BRANCH  10  29
HETATM   29  O2  UNL     1      25.583  -1.059  53.008  1.00  0.00    -0.358 OA
HETATM   30  C15 UNL     1      26.826  -1.603  52.604  1.00  0.00     0.209 C 
ENDBRANCH  10  29
TORSDOF 6
ENDMDL
MODEL 3
REMARK VINA RESULT:      -7.9      3.522      6.237
REMARK  6 active torsions:
REMARK  status: ('A' for Active; 'I' for Inactive)
REMARK    1  A    between atoms: C2_2  and  C3_3 
REMARK    2  A    between atoms: C2_2  and  C17_21 
REMARK    3  A    between atoms: C4_4  and  C5_5 
REMARK    4  A    between atoms: C12_14  and  C13_15 
REMARK    5  A    between atoms: C12_14  and  O2_18 
REMARK    6  A    between atoms: C13_15  and  O1_16 
ROOT
HETATM    1  C5  UNL     1      23.982   4.855  50.340  1.00  0.00     0.032 C 
HETATM    2  C6  UNL     1      23.202   5.850  50.739  1.00  0.00    -0.048 C 
HETATM    3  C7  UNL     1      21.986   5.656  51.565  1.00  0.00     0.046 C 
HETATM    4  C8  UNL     1      23.478   7.298  50.376  1.00  0.00     0.061 C 
HETATM    5  C9  UNL     1      23.265   7.332  48.880  1.00  0.00     0.095 C 
HETATM    6  N1  UNL     1      23.949   6.599  48.085  1.00  0.00    -0.275 NA
HETATM    7  C10 UNL     1      25.265   6.098  48.492  1.00  0.00     0.237 C 
HETATM    8  N2  UNL     1      24.924   4.874  49.234  1.00  0.00    -0.363 N 
HETATM    9  C11 UNL     1      25.765   7.174  49.383  1.00  0.00    -0.004 C 
HETATM   10  C12 UNL     1      26.897   7.858  49.245  1.00  0.00     0.075 C 
HETATM   11  C16 UNL     1      24.938   7.569  50.576  1.00  0.00     0.055 C 
HETATM   12  H11 UNL     1      25.377   3.998  48.948  1.00  0.00     0.162 HD
ENDROOT
BRANCH   1  13
HETATM   13  C4  UNL     1      23.996   3.557  50.990  1.00  0.00     0.030 C 
HETATM   14  C3  UNL     1      24.337   2.688  51.889  1.00  0.00     0.012 C 
BRANCH  14  15
HETATM   15  C2  UNL     1      24.368   1.406  52.557  1.00  0.00    -0.022 C 
HETATM   16  C1  UNL     1      23.248   0.901  53.033  1.00  0.00     0.046 C 
BRANCH  15  17
HETATM   17  C17 UNL     1      25.566   0.608  52.750  1.00  0.00     0.105 A 
HETATM   18  N3  UNL     1      25.852  -0.583  52.613  1.00  0.00    -0.240 NA
HETATM   19  C18 UNL     1      27.048  -1.067  52.864  1.00  0.00     0.075 A 
HETATM   20  C19 UNL     1      27.472  -2.374  52.745  1.00  0.00     0.033 A 
HETATM   21  C23 UNL     1      28.052  -0.196  53.311  1.00  0.00     0.035 A 
HETATM   22  C20 UNL     1      28.751  -2.716  53.045  1.00  0.00     0.002 A 
HETATM   23  C21 UNL     1      29.737  -1.837  53.489  1.00  0.00     0.002 A 
HETATM   24  C22 UNL     1      29.385  -0.514  53.632  1.00  0.00     0.021 A 
HETATM   25  S1  UNL     1      27.098   1.429  53.339  1.00  0.00    -0.068 SA
ENDBRANCH  15  17
ENDBRANCH  14  15
ENDBRANCH   1  13
BRANCH  10  26
HETATM   26  C13 UNL     1      28.017   7.868  48.286  1.00  0.00     0.231 C 
BRANCH  26  27
HETATM   27  O1  UNL     1      28.739   6.685  48.242  1.00  0.00    -0.390 OA
HETATM   28  C14 UNL     1      30.110   6.854  48.365  1.00  0.00     0.201 C 
ENDBRANCH  26  27
ENDBRANCH  10  26
BRANCH  10  29
HETATM   29  O2  UNL     1      27.240   8.857  50.177  1.00  0.00    -0.358 OA
HETATM   30  C15 UNL     1      28.147   9.842  49.718  1.00  0.00     0.209 C 
ENDBRANCH  10  29
TORSDOF 6
ENDMDL
MODEL 4
REMARK VINA RESULT:      -7.8      6.264      8.972
REMARK  6 active torsions:
REMARK  status: ('A' for Active; 'I' for Inactive)
REMARK    1  A    between atoms: C2_2  and  C3_3 
REMARK    2  A    between atoms: C2_2  and  C17_21 
REMARK    3  A    between atoms: C4_4  and  C5_5 
REMARK    4  A    between atoms: C12_14  and  C13_15 
REMARK    5  A    between atoms: C12_14  and  O2_18 
REMARK    6  A    between atoms: C13_15  and  O1_16 
ROOT
HETATM    1  C5  UNL     1      22.389   2.733  50.014  1.00  0.00     0.032 C 
HETATM    2  C6  UNL     1      21.160   2.722  49.519  1.00  0.00    -0.048 C 
HETATM    3  C7  UNL     1      20.307   1.510  49.474  1.00  0.00     0.046 C 
HETATM    4  C8  UNL     1      20.505   3.961  48.934  1.00  0.00     0.061 C 
HETATM    5  C9  UNL     1      21.326   4.240  47.696  1.00  0.00     0.095 C 
HETATM    6  N1  UNL     1      22.584   4.463  47.757  1.00  0.00    -0.275 NA
HETATM    7  C10 UNL     1      23.187   4.955  48.999  1.00  0.00     0.237 C 
HETATM    8  N2  UNL     1      23.429   3.713  49.749  1.00  0.00    -0.363 N 
HETATM    9  C11 UNL     1      22.097   5.768  49.593  1.00  0.00    -0.004 C 
HETATM   10  C12 UNL     1      22.158   7.052  49.933  1.00  0.00     0.075 C 
HETATM   11  C16 UNL     1      20.766   5.115  49.853  1.00  0.00     0.055 C 
HETATM   12  H11 UNL     1      24.380   3.540  50.096  1.00  0.00     0.162 HD
ENDROOT
BRANCH   1  13
HETATM   13  C4  UNL     1      22.877   1.719  50.931  1.00  0.00     0.030 C 
HETATM   14  C3  UNL     1      23.406   1.270  52.026  1.00  0.00     0.012 C 
BRANCH  14  15
HETATM   15  C2  UNL     1      23.898   0.280  52.958  1.00  0.00    -0.022 C 
HETATM   16  C1  UNL     1      23.042  -0.354  53.734  1.00  0.00     0.046 C 
BRANCH  15  17
HETATM   17  C17 UNL     1      25.295  -0.082  53.112  1.00  0.00     0.105 A 
HETATM   18  N3  UNL     1      25.960  -1.099  52.907  1.00  0.00    -0.240 NA
HETATM   19  C18 UNL     1      27.253  -1.170  53.138  1.00  0.00     0.075 A 
HETATM   20  C19 UNL     1      28.088  -2.251  52.945  1.00  0.00     0.033 A 
HETATM   21  C23 UNL     1      27.914  -0.041  53.642  1.00  0.00     0.035 A 
HETATM   22  C20 UNL     1      29.410  -2.163  53.233  1.00  0.00     0.002 A 
HETATM   23  C21 UNL     1      30.053  -1.032  53.734  1.00  0.00     0.002 A 
HETATM   24  C22 UNL     1      29.282   0.087  53.952  1.00  0.00     0.021 A 
HETATM   25  S1  UNL     1      26.474   1.168  53.758  1.00  0.00    -0.068 SA
ENDBRANCH  15  17
ENDBRANCH  14  15
ENDBRANCH   1  13
BRANCH  10  26
HETATM   26  C13 UNL     1      23.181   8.112  49.884  1.00  0.00     0.231 C 
BRANCH  26  27
HETATM   27  O1  UNL     1      24.157   8.008  50.865  1.00  0.00    -0.390 OA
HETATM   28  C14 UNL     1      25.385   7.569  50.396  1.00  0.00     0.201 C 
ENDBRANCH  26  27
ENDBRANCH  10  26
BRANCH  10  29
HETATM   29  O2  UNL     1      21.033   7.692  50.491  1.00  0.00    -0.358 OA
HETATM   30  C15 UNL     1      20.452   8.713  49.701  1.00  0.00     0.209 C 
ENDBRANCH  10  29
TORSDOF 6
ENDMDL
MODEL 5
REMARK VINA RESULT:      -7.8      3.735      8.599
REMARK  6 active torsions:
REMARK  status: ('A' for Active; 'I' for Inactive)
REMARK    1  A    between atoms: C2_2  and  C3_3 
REMARK    2  A    between atoms: C2_2  and  C17_21 
REMARK    3  A    between atoms: C4_4  and  C5_5 
REMARK    4  A    between atoms: C12_14  and  C13_15 
REMARK    5  A    between atoms: C12_14  and  O2_18 
REMARK    6  A    between atoms: C13_15  and  O1_16 
ROOT
HETATM    1  C5  UNL     1      25.844   6.019  48.943  1.00  0.00     0.032 C 
HETATM    2  C6  UNL     1      24.702   6.477  48.451  1.00  0.00    -0.048 C 
HETATM    3  C7  UNL     1      24.617   7.603  47.491  1.00  0.00     0.046 C 
HETATM    4  C8  UNL     1      23.355   5.890  48.837  1.00  0.00     0.061 C 
HETATM    5  C9  UNL     1      23.220   6.253  50.298  1.00  0.00     0.095 C 
HETATM    6  N1  UNL     1      24.072   5.866  51.170  1.00  0.00    -0.275 NA
HETATM    7  C10 UNL     1      24.896   4.679  50.921  1.00  0.00     0.237 C 
HETATM    8  N2  UNL     1      26.022   5.230  50.150  1.00  0.00    -0.363 N 
HETATM    9  C11 UNL     1      24.007   3.832  50.089  1.00  0.00    -0.004 C 
HETATM   10  C12 UNL     1      23.620   2.587  50.354  1.00  0.00     0.075 C 
HETATM   11  C16 UNL     1      23.460   4.396  48.806  1.00  0.00     0.055 C 
HETATM   12  H11 UNL     1      26.972   5.044  50.491  1.00  0.00     0.162 HD
ENDROOT
BRANCH   1  13
HETATM   13  C4  UNL     1      27.127   6.256  48.305  1.00  0.00     0.030 C 
HETATM   14  C3  UNL     1      28.298   6.794  48.167  1.00  0.00     0.012 C 
BRANCH  14  15
HETATM   15  C2  UNL     1      29.582   7.048  47.552  1.00  0.00    -0.022 C 
HETATM   16  C1  UNL     1      29.763   8.166  46.878  1.00  0.00     0.046 C 
BRANCH  15  17
HETATM   17  C17 UNL     1      30.719   6.148  47.620  1.00  0.00     0.105 A 
HETATM   18  N3  UNL     1      30.893   4.946  47.411  1.00  0.00    -0.240 NA
HETATM   19  C18 UNL     1      32.059   4.355  47.549  1.00  0.00     0.075 A 
HETATM   20  C19 UNL     1      32.363   3.025  47.343  1.00  0.00     0.033 A 
HETATM   21  C23 UNL     1      33.163   5.120  47.956  1.00  0.00     0.035 A 
HETATM   22  C20 UNL     1      33.626   2.567  47.530  1.00  0.00     0.002 A 
HETATM   23  C21 UNL     1      34.712   3.341  47.934  1.00  0.00     0.002 A 
HETATM   24  C22 UNL     1      34.484   4.679  48.160  1.00  0.00     0.021 A 
HETATM   25  S1  UNL     1      32.354   6.813  48.125  1.00  0.00    -0.068 SA
ENDBRANCH  15  17
ENDBRANCH  14  15
ENDBRANCH   1  13
BRANCH  10  26
HETATM   26  C13 UNL     1      23.854   1.614  51.436  1.00  0.00     0.231 C 
BRANCH  26  27
HETATM   27  O1  UNL     1      25.192   1.332  51.668  1.00  0.00    -0.390 OA
HETATM   28  C14 UNL     1      25.589   1.514  52.983  1.00  0.00     0.201 C 
ENDBRANCH  26  27
ENDBRANCH  10  26
BRANCH  10  29
HETATM   29  O2  UNL     1      22.768   1.905  49.463  1.00  0.00    -0.358 OA
HETATM   30  C15 UNL     1      21.759   1.113  50.061  1.00  0.00     0.209 C 
ENDBRANCH  10  29
TORSDOF 6
ENDMDL
MODEL 6
REMARK VINA RESULT:      -7.7      6.247      8.819
REMARK  6 active torsions:
REMARK  status: ('A' for Active; 'I' for Inactive)
REMARK    1  A    between atoms: C2_2  and  C3_3 
REMARK    2  A    between atoms: C2_2  and  C17_21 
REMARK    3  A    between atoms: C4_4  and  C5_5 
REMARK    4  A    between atoms: C12_14  and  C13_15 
REMARK    5  A    between atoms: C12_14  and  O2_18 
REMARK    6  A    between atoms: C13_15  and  O1_16 
ROOT
HETATM    1  C5  UNL     1      24.165   4.954  50.629  1.00  0.00     0.032 C 
HETATM    2  C6  UNL     1      24.917   5.381  49.624  1.00  0.00    -0.048 C 
HETATM    3  C7  UNL     1      26.242   4.807  49.292  1.00  0.00     0.046 C 
HETATM    4  C8  UNL     1      24.490   6.519  48.713  1.00  0.00     0.061 C 
HETATM    5  C9  UNL     1      24.498   7.722  49.628  1.00  0.00     0.095 C 
HETATM    6  N1  UNL     1      23.770   7.776  50.678  1.00  0.00    -0.275 NA
HETATM    7  C10 UNL     1      22.560   6.955  50.780  1.00  0.00     0.237 C 
HETATM    8  N2  UNL     1      23.085   5.675  51.280  1.00  0.00    -0.363 N 
HETATM    9  C11 UNL     1      22.106   6.863  49.370  1.00  0.00    -0.004 C 
HETATM   10  C12 UNL     1      20.919   7.226  48.892  1.00  0.00     0.075 C 
HETATM   11  C16 UNL     1      23.054   6.315  48.338  1.00  0.00     0.055 C 
HETATM   12  H11 UNL     1      22.662   5.283  52.130  1.00  0.00     0.162 HD
ENDROOT
BRANCH   1  13
HETATM   13  C4  UNL     1      24.332   3.645  51.235  1.00  0.00     0.030 C 
HETATM   14  C3  UNL     1      24.084   2.690  52.075  1.00  0.00     0.012 C 
BRANCH  14  15
HETATM   15  C2  UNL     1      24.229   1.392  52.696  1.00  0.00    -0.022 C 
HETATM   16  C1  UNL     1      23.156   0.764  53.133  1.00  0.00     0.046 C 
BRANCH  15  17
HETATM   17  C17 UNL     1      25.495   0.706  52.881  1.00  0.00     0.105 A 
HETATM   18  N3  UNL     1      25.894  -0.447  52.713  1.00  0.00    -0.240 NA
HETATM   19  C18 UNL     1      27.129  -0.824  52.966  1.00  0.00     0.075 A 
HETATM   20  C19 UNL     1      27.677  -2.080  52.814  1.00  0.00     0.033 A 
HETATM   21  C23 UNL     1      28.040   0.125  53.450  1.00  0.00     0.035 A 
HETATM   22  C20 UNL     1      28.979  -2.308  53.120  1.00  0.00     0.002 A 
HETATM   23  C21 UNL     1      29.872  -1.353  53.601  1.00  0.00     0.002 A 
HETATM   24  C22 UNL     1      29.395  -0.074  53.779  1.00  0.00     0.021 A 
HETATM   25  S1  UNL     1      26.936   1.651  53.513  1.00  0.00    -0.068 SA
ENDBRANCH  15  17
ENDBRANCH  14  15
ENDBRANCH   1  13
BRANCH  10  26
HETATM   26  C13 UNL     1      19.683   7.802  49.453  1.00  0.00     0.231 C 
BRANCH  26  27
HETATM   27  O1  UNL     1      19.865   9.010  50.109  1.00  0.00    -0.390 OA
HETATM   28  C14 UNL     1      20.286  10.043  49.286  1.00  0.00     0.201 C 
ENDBRANCH  26  27
ENDBRANCH  10  26
BRANCH  10  29
HETATM   29  O2  UNL     1      20.631   7.078  47.520  1.00  0.00    -0.358 OA
HETATM   30  C15 UNL     1      19.258   7.003  47.185  1.00  0.00     0.209 C 
ENDBRANCH  10  29
TORSDOF 6
ENDMDL
MODEL 7
REMARK VINA RESULT:      -7.6      3.935      5.878
REMARK  6 active torsions:
REMARK  status: ('A' for Active; 'I' for Inactive)
REMARK    1  A    between atoms: C2_2  and  C3_3 
REMARK    2  A    between atoms: C2_2  and  C17_21 
REMARK    3  A    between atoms: C4_4  and  C5_5 
REMARK    4  A    between atoms: C12_14  and  C13_15 
REMARK    5  A    between atoms: C12_14  and  O2_18 
REMARK    6  A    between atoms: C13_15  and  O1_16 
ROOT
HETATM    1  C5  UNL     1      27.221   6.781  48.885  1.00  0.00     0.032 C 
HETATM    2  C6  UNL     1      28.390   6.704  48.264  1.00  0.00    -0.048 C 
HETATM    3  C7  UNL     1      29.145   5.440  48.094  1.00  0.00     0.046 C 
HETATM    4  C8  UNL     1      29.077   7.920  47.668  1.00  0.00     0.061 C 
HETATM    5  C9  UNL     1      29.436   8.749  48.881  1.00  0.00     0.095 C 
HETATM    6  N1  UNL     1      28.544   9.172  49.696  1.00  0.00    -0.275 NA
HETATM    7  C10 UNL     1      27.154   9.323  49.256  1.00  0.00     0.237 C 
HETATM    8  N2  UNL     1      26.610   7.970  49.452  1.00  0.00    -0.363 N 
HETATM    9  C11 UNL     1      27.301   9.667  47.820  1.00  0.00    -0.004 C 
HETATM   10  C12 UNL     1      26.827  10.750  47.210  1.00  0.00     0.075 C 
HETATM   11  C16 UNL     1      28.059   8.726  46.923  1.00  0.00     0.055 C 
HETATM   12  H11 UNL     1      25.759   7.874  50.018  1.00  0.00     0.162 HD
ENDROOT
BRANCH   1  13
HETATM   13  C4  UNL     1      26.360   5.629  49.086  1.00  0.00     0.030 C 
HETATM   14  C3  UNL     1      25.246   5.013  49.325  1.00  0.00     0.012 C 
BRANCH  14  15
HETATM   15  C2  UNL     1      24.366   3.883  49.528  1.00  0.00    -0.022 C 
HETATM   16  C1  UNL     1      23.304   3.748  48.759  1.00  0.00     0.046 C 
BRANCH  15  17
HETATM   17  C17 UNL     1      24.564   2.857  50.537  1.00  0.00     0.105 A 
HETATM   18  N3  UNL     1      23.822   2.120  51.187  1.00  0.00    -0.240 NA
HETATM   19  C18 UNL     1      24.266   1.250  52.067  1.00  0.00     0.075 A 
HETATM   20  C19 UNL     1      23.528   0.383  52.845  1.00  0.00     0.033 A 
HETATM   21  C23 UNL     1      25.649   1.150  52.283  1.00  0.00     0.035 A 
HETATM   22  C20 UNL     1      24.142  -0.461  53.713  1.00  0.00     0.002 A 
HETATM   23  C21 UNL     1      25.518  -0.548  53.915  1.00  0.00     0.002 A 
HETATM   24  C22 UNL     1      26.319   0.289  53.172  1.00  0.00     0.021 A 
HETATM   25  S1  UNL     1      26.272   2.453  51.074  1.00  0.00    -0.068 SA
ENDBRANCH  15  17
ENDBRANCH  14  15
ENDBRANCH   1  13
BRANCH  10  26
HETATM   26  C13 UNL     1      26.052  11.938  47.613  1.00  0.00     0.231 C 
BRANCH  26  27
HETATM   27  O1  UNL     1      26.649  12.696  48.609  1.00  0.00    -0.390 OA
HETATM   28  C14 UNL     1      27.643  13.547  48.155  1.00  0.00     0.201 C 
ENDBRANCH  26  27
ENDBRANCH  10  26
BRANCH  10  29
HETATM   29  O2  UNL     1      27.047  10.940  45.831  1.00  0.00    -0.358 OA
HETATM   30  C15 UNL     1      26.063  11.698  45.150  1.00  0.00     0.209 C 
ENDBRANCH  10  29
TORSDOF 6
ENDMDL
MODEL 8
REMARK VINA RESULT:      -7.4      4.632      9.962
REMARK  6 active torsions:
REMARK  status: ('A' for Active; 'I' for Inactive)
REMARK    1  A    between atoms: C2_2  and  C3_3 
REMARK    2  A    between atoms: C2_2  and  C17_21 
REMARK    3  A    between atoms: C4_4  and  C5_5 
REMARK    4  A    between atoms: C12_14  and  C13_15 
REMARK    5  A    between atoms: C12_14  and  O2_18 
REMARK    6  A    between atoms: C13_15  and  O1_16 
ROOT
HETATM    1  C5  UNL     1      24.411   5.683  50.021  1.00  0.00     0.032 C 
HETATM    2  C6  UNL     1      23.356   5.713  49.219  1.00  0.00    -0.048 C 
HETATM    3  C7  UNL     1      23.249   6.606  48.041  1.00  0.00     0.046 C 
HETATM    4  C8  UNL     1      22.139   4.832  49.439  1.00  0.00     0.061 C 
HETATM    5  C9  UNL     1      21.552   5.360  50.729  1.00  0.00     0.095 C 
HETATM    6  N1  UNL     1      22.221   5.372  51.819  1.00  0.00    -0.275 NA
HETATM    7  C10 UNL     1      23.343   4.448  52.006  1.00  0.00     0.237 C 
HETATM    8  N2  UNL     1      24.460   5.173  51.380  1.00  0.00    -0.363 N 
HETATM    9  C11 UNL     1      22.929   3.264  51.214  1.00  0.00    -0.004 C 
HETATM   10  C12 UNL     1      22.800   2.017  51.657  1.00  0.00     0.075 C 
HETATM   11  C16 UNL     1      22.607   3.444  49.755  1.00  0.00     0.055 C 
HETATM   12  H11 UNL     1      25.308   5.322  51.940  1.00  0.00     0.162 HD
ENDROOT
BRANCH   1  13
HETATM   13  C4  UNL     1      25.717   6.177  49.622  1.00  0.00     0.030 C 
HETATM   14  C3  UNL     1      26.789   6.233  48.896  1.00  0.00     0.012 C 
BRANCH  14  15
HETATM   15  C2  UNL     1      28.089   6.707  48.477  1.00  0.00    -0.022 C 
HETATM   16  C1  UNL     1      28.941   5.858  47.938  1.00  0.00     0.046 C 
BRANCH  15  17
HETATM   17  C17 UNL     1      28.545   8.080  48.604  1.00  0.00     0.105 A 
HETATM   18  N3  UNL     1      28.000   9.185  48.580  1.00  0.00    -0.240 NA
HETATM   19  C18 UNL     1      28.659  10.313  48.724  1.00  0.00     0.075 A 
HETATM   20  C19 UNL     1      28.152  11.596  48.713  1.00  0.00     0.033 A 
HETATM   21  C23 UNL     1      30.048  10.267  48.913  1.00  0.00     0.035 A 
HETATM   22  C20 UNL     1      28.971  12.665  48.877  1.00  0.00     0.002 A 
HETATM   23  C21 UNL     1      30.351  12.602  49.064  1.00  0.00     0.002 A 
HETATM   24  C22 UNL     1      30.928  11.353  49.086  1.00  0.00     0.021 A 
HETATM   25  S1  UNL     1      30.332   8.405  48.866  1.00  0.00    -0.068 SA
ENDBRANCH  15  17
ENDBRANCH  14  15
ENDBRANCH   1  13
BRANCH  10  26
HETATM   26  C13 UNL     1      22.980   1.329  52.949  1.00  0.00     0.231 C 
BRANCH  26  27
HETATM   27  O1  UNL     1      24.298   1.026  53.254  1.00  0.00    -0.390 OA
HETATM   28  C14 UNL     1      24.577  -0.332  53.277  1.00  0.00     0.201 C 
ENDBRANCH  26  27
ENDBRANCH  10  26
BRANCH  10  29
HETATM   29  O2  UNL     1      22.395   0.990  50.781  1.00  0.00    -0.358 OA
HETATM   30  C15 UNL     1      21.250   0.259  51.177  1.00  0.00     0.209 C 
ENDBRANCH  10  29
TORSDOF 6
ENDMDL
MODEL 9
REMARK VINA RESULT:      -7.3      2.847      4.471
REMARK  6 active torsions:
REMARK  status: ('A' for Active; 'I' for Inactive)
REMARK    1  A    between atoms: C2_2  and  C3_3 
REMARK    2  A    between atoms: C2_2  and  C17_21 
REMARK    3  A    between atoms: C4_4  and  C5_5 
REMARK    4  A    between atoms: C12_14  and  C13_15 
REMARK    5  A    between atoms: C12_14  and  O2_18 
REMARK    6  A    between atoms: C13_15  and  O1_16 
ROOT
HETATM    1  C5  UNL     1      25.610   7.048  49.010  1.00  0.00     0.032 C 
HETATM    2  C6  UNL     1      25.250   8.058  49.787  1.00  0.00    -0.048 C 
HETATM    3  C7  UNL     1      24.084   8.012  50.702  1.00  0.00     0.046 C 
HETATM    4  C8  UNL     1      26.001   9.378  49.809  1.00  0.00     0.061 C 
HETATM    5  C9  UNL     1      25.743   9.951  48.434  1.00  0.00     0.095 C 
HETATM    6  N1  UNL     1      26.088   9.330  47.370  1.00  0.00    -0.275 NA
HETATM    7  C10 UNL     1      27.161   8.332  47.412  1.00  0.00     0.237 C 
HETATM    8  N2  UNL     1      26.446   7.113  47.823  1.00  0.00    -0.363 N 
HETATM    9  C11 UNL     1      28.049   8.850  48.483  1.00  0.00    -0.004 C 
HETATM   10  C12 UNL     1      29.341   9.143  48.371  1.00  0.00     0.075 C 
HETATM   11  C16 UNL     1      27.470   9.089  49.851  1.00  0.00     0.055 C 
HETATM   12  H11 UNL     1      26.549   6.278  47.236  1.00  0.00     0.162 HD
ENDROOT
BRANCH   1  13
HETATM   13  C4  UNL     1      25.198   5.678  49.258  1.00  0.00     0.030 C 
HETATM   14  C3  UNL     1      24.377   4.675  49.278  1.00  0.00     0.012 C 
BRANCH  14  15
HETATM   15  C2  UNL     1      23.940   3.317  49.515  1.00  0.00    -0.022 C 
HETATM   16  C1  UNL     1      23.050   2.777  48.707  1.00  0.00     0.046 C 
BRANCH  15  17
HETATM   17  C17 UNL     1      24.416   2.477  50.600  1.00  0.00     0.105 A 
HETATM   18  N3  UNL     1      23.898   1.654  51.357  1.00  0.00    -0.240 NA
HETATM   19  C18 UNL     1      24.571   1.011  52.285  1.00  0.00     0.075 A 
HETATM   20  C19 UNL     1      24.093   0.076  53.180  1.00  0.00     0.033 A 
HETATM   21  C23 UNL     1      25.942   1.267  52.429  1.00  0.00     0.035 A 
HETATM   22  C20 UNL     1      24.923  -0.503  54.084  1.00  0.00     0.002 A 
HETATM   23  C21 UNL     1      26.285  -0.237  54.213  1.00  0.00     0.002 A 
HETATM   24  C22 UNL     1      26.832   0.687  53.353  1.00  0.00     0.021 A 
HETATM   25  S1  UNL     1      26.188   2.551  51.072  1.00  0.00    -0.068 SA
ENDBRANCH  15  17
ENDBRANCH  14  15
ENDBRANCH   1  13
BRANCH  10  26
HETATM   26  C13 UNL     1      30.347   9.097  47.294  1.00  0.00     0.231 C 
BRANCH  26  27
HETATM   27  O1  UNL     1      30.611   7.823  46.814  1.00  0.00    -0.390 OA
HETATM   28  C14 UNL     1      31.539   7.117  47.563  1.00  0.00     0.201 C 
ENDBRANCH  26  27
ENDBRANCH  10  26
BRANCH  10  29
HETATM   29  O2  UNL     1      30.057   9.629  49.483  1.00  0.00    -0.358 OA
HETATM   30  C15 UNL     1      30.744  10.851  49.285  1.00  0.00     0.209 C 
ENDBRANCH  10  29
TORSDOF 6
ENDMDL
