MODEL 1
REMARK VINA RESULT:      -9.2      0.000      0.000
REMARK  3 active torsions:
REMARK  status: ('A' for Active; 'I' for Inactive)
REMARK    1  A    between atoms: O1_2  and  C2_3 
REMARK    2  A    between atoms: C6_7  and  N1_8 
REMARK    3  A    between atoms: N1_8  and  C7_9 
ROOT
HETATM    1  C2  UNL     1      19.515  -0.379  52.720  1.00  0.00     0.070 A 
HETATM    2  C3  UNL     1      20.392   0.295  51.849  1.00  0.00     0.038 A 
HETATM    3  C4  UNL     1      21.756   0.319  52.144  1.00  0.00     0.020 A 
HETATM    4  C5  UNL     1      22.247  -0.309  53.269  1.00  0.00     0.039 A 
HETATM    5  C6  UNL     1      23.603  -0.271  53.554  1.00  0.00     0.143 A 
HETATM    6  N2  UNL     1      24.106  -0.866  54.647  1.00  0.00    -0.223 NA
HETATM    7  C15 UNL     1      23.272  -1.511  55.478  1.00  0.00     0.236 A 
HETATM    8  N3  UNL     1      21.967  -1.548  55.206  1.00  0.00    -0.241 NA
HETATM    9  C16 UNL     1      21.443  -0.977  54.147  1.00  0.00     0.074 A 
HETATM   10  C17 UNL     1      20.096  -0.974  53.814  1.00  0.00     0.069 A 
ENDROOT
BRANCH   5  11
HETATM   11  N1  UNL     1      24.513   0.391  52.694  1.00  0.00    -0.320 N 
HETATM   12  H6  UNL     1      24.395   1.204  52.060  1.00  0.00     0.169 HD
BRANCH  11  13
HETATM   13  C7  UNL     1      25.911   0.239  52.324  1.00  0.00     0.155 C 
HETATM   14  C8  UNL     1      26.478   1.394  52.683  1.00  0.00     0.027 C 
HETATM   15  C9  UNL     1      27.164   1.267  53.774  1.00  0.00     0.018 C 
HETATM   16  C10 UNL     1      28.486   0.753  53.780  1.00  0.00     0.080 A 
HETATM   17 CL1  UNL     1      29.018   2.396  53.949  1.00  0.00    -0.197 Cl
HETATM   18  C11 UNL     1      29.785   0.459  53.853  1.00  0.00     0.119 A 
HETATM   19  C12 UNL     1      28.874  -0.377  53.463  1.00  0.00     0.078 A 
HETATM   20  C13 UNL     1      28.130  -1.039  53.135  1.00  0.00    -0.141 C 
HETATM   21  C14 UNL     1      27.124  -1.899  52.680  1.00  0.00     0.258 C 
HETATM   22  O2  UNL     1      26.582  -0.764  51.760  1.00  0.00    -0.324 OA
ENDBRANCH  11  13
ENDBRANCH   5  11
BRANCH   1  23
HETATM   23  O1  UNL     1      18.141  -0.435  52.482  1.00  0.00    -0.356 OA
HETATM   24  C1  UNL     1      17.368  -1.448  53.086  1.00  0.00     0.210 C 
ENDBRANCH   1  23
TORSDOF 3
ENDMDL
MODEL 2
REMARK VINA RESULT:      -8.8      4.024      6.116
REMARK  3 active torsions:
REMARK  status: ('A' for Active; 'I' for Inactive)
REMARK    1  A    between atoms: O1_2  and  C2_3 
REMARK    2  A    between atoms: C6_7  and  N1_8 
REMARK    3  A    between atoms: N1_8  and  C7_9 
ROOT
HETATM    1  C2  UNL     1      26.352   4.856  49.292  1.00  0.00     0.070 A 
HETATM    2  C3  UNL     1      26.943   3.649  49.711  1.00  0.00     0.038 A 
HETATM    3  C4  UNL     1      26.285   2.865  50.660  1.00  0.00     0.020 A 
HETATM    4  C5  UNL     1      25.072   3.259  51.183  1.00  0.00     0.039 A 
HETATM    5  C6  UNL     1      24.433   2.475  52.132  1.00  0.00     0.143 A 
HETATM    6  N2  UNL     1      23.255   2.839  52.663  1.00  0.00    -0.223 NA
HETATM    7  C15 UNL     1      22.689   3.988  52.264  1.00  0.00     0.236 A 
HETATM    8  N3  UNL     1      23.302   4.744  51.353  1.00  0.00    -0.241 NA
HETATM    9  C16 UNL     1      24.453   4.419  50.813  1.00  0.00     0.074 A 
HETATM   10  C17 UNL     1      25.144   5.164  49.869  1.00  0.00     0.069 A 
ENDROOT
BRANCH   5  11
HETATM   11  N1  UNL     1      24.996   1.251  52.568  1.00  0.00    -0.320 N 
HETATM   12  H6  UNL     1      24.759   0.265  52.347  1.00  0.00     0.169 HD
BRANCH  11  13
HETATM   13  C7  UNL     1      26.067   0.847  53.464  1.00  0.00     0.155 C 
HETATM   14  C8  UNL     1      26.174  -0.473  53.282  1.00  0.00     0.027 C 
HETATM   15  C9  UNL     1      27.205  -0.770  52.557  1.00  0.00     0.018 C 
HETATM   16  C10 UNL     1      28.511  -0.860  53.102  1.00  0.00     0.080 A 
HETATM   17 CL1  UNL     1      28.308  -2.582  53.048  1.00  0.00    -0.197 Cl
HETATM   18  C11 UNL     1      29.730  -1.146  53.561  1.00  0.00     0.119 A 
HETATM   19  C12 UNL     1      29.193   0.033  53.616  1.00  0.00     0.078 A 
HETATM   20  C13 UNL     1      28.742   0.978  53.670  1.00  0.00    -0.141 C 
HETATM   21  C14 UNL     1      28.114   2.225  53.749  1.00  0.00     0.258 C 
HETATM   22  O2  UNL     1      26.833   1.535  54.309  1.00  0.00    -0.324 OA
ENDBRANCH  11  13
ENDBRANCH   5  11
BRANCH   1  23
HETATM   23  O1  UNL     1      26.962   5.684  48.349  1.00  0.00    -0.356 OA
HETATM   24  C1  UNL     1      28.365   5.671  48.211  1.00  0.00     0.210 C 
ENDBRANCH   1  23
TORSDOF 3
ENDMDL
MODEL 3
REMARK VINA RESULT:      -8.7      1.905      2.812
REMARK  3 active torsions:
REMARK  status: ('A' for Active; 'I' for Inactive)
REMARK    1  A    between atoms: O1_2  and  C2_3 
REMARK    2  A    between atoms: C6_7  and  N1_8 
REMARK    3  A    between atoms: N1_8  and  C7_9 
ROOT
HETATM    1  C2  UNL     1      20.087  -0.511  53.440  1.00  0.00     0.070 A 
HETATM    2  C3  UNL     1      21.249  -1.300  53.525  1.00  0.00     0.038 A 
HETATM    3  C4  UNL     1      22.487  -0.720  53.245  1.00  0.00     0.020 A 
HETATM    4  C5  UNL     1      22.579   0.610  52.893  1.00  0.00     0.039 A 
HETATM    5  C6  UNL     1      23.814   1.174  52.610  1.00  0.00     0.143 A 
HETATM    6  N2  UNL     1      23.931   2.464  52.256  1.00  0.00    -0.223 NA
HETATM    7  C15 UNL     1      22.825   3.219  52.177  1.00  0.00     0.236 A 
HETATM    8  N3  UNL     1      21.636   2.679  52.448  1.00  0.00    -0.241 NA
HETATM    9  C16 UNL     1      21.486   1.423  52.797  1.00  0.00     0.074 A 
HETATM   10  C17 UNL     1      20.279   0.802  53.083  1.00  0.00     0.069 A 
ENDROOT
BRANCH   5  11
HETATM   11  N1  UNL     1      25.003   0.409  52.694  1.00  0.00    -0.320 N 
HETATM   12  H6  UNL     1      25.366  -0.369  52.110  1.00  0.00     0.169 HD
BRANCH  11  13
HETATM   13  C7  UNL     1      26.160   0.356  53.573  1.00  0.00     0.155 C 
HETATM   14  C8  UNL     1      26.575  -0.912  53.501  1.00  0.00     0.027 C 
HETATM   15  C9  UNL     1      27.630  -1.025  52.760  1.00  0.00     0.018 C 
HETATM   16  C10 UNL     1      28.932  -0.751  53.251  1.00  0.00     0.080 A 
HETATM   17 CL1  UNL     1      29.146  -2.470  53.356  1.00  0.00    -0.197 Cl
HETATM   18  C11 UNL     1      30.195  -0.697  53.679  1.00  0.00     0.119 A 
HETATM   19  C12 UNL     1      29.392   0.322  53.655  1.00  0.00     0.078 A 
HETATM   20  C13 UNL     1      28.730   1.134  53.647  1.00  0.00    -0.141 C 
HETATM   21  C14 UNL     1      27.823   2.199  53.645  1.00  0.00     0.258 C 
HETATM   22  O2  UNL     1      26.758   1.282  54.319  1.00  0.00    -0.324 OA
ENDBRANCH  11  13
ENDBRANCH   5  11
BRANCH   1  23
HETATM   23  O1  UNL     1      18.821  -1.035  53.705  1.00  0.00    -0.356 OA
HETATM   24  C1  UNL     1      17.787  -0.873  52.761  1.00  0.00     0.210 C 
ENDBRANCH   1  23
TORSDOF 3
ENDMDL
MODEL 4
REMARK VINA RESULT:      -8.5      2.462      3.660
REMARK  3 active torsions:
REMARK  status: ('A' for Active; 'I' for Inactive)
REMARK    1  A    between atoms: O1_2  and  C2_3 
REMARK    2  A    between atoms: C6_7  and  N1_8 
REMARK    3  A    between atoms: N1_8  and  C7_9 
ROOT
HETATM    1  C2  UNL     1      21.293   0.754  51.436  1.00  0.00     0.070 A 
HETATM    2  C3  UNL     1      21.809   0.432  52.705  1.00  0.00     0.038 A 
HETATM    3  C4  UNL     1      23.088   0.868  53.049  1.00  0.00     0.020 A 
HETATM    4  C5  UNL     1      23.844   1.608  52.164  1.00  0.00     0.039 A 
HETATM    5  C6  UNL     1      25.118   2.029  52.514  1.00  0.00     0.143 A 
HETATM    6  N2  UNL     1      25.877   2.743  51.668  1.00  0.00    -0.223 NA
HETATM    7  C15 UNL     1      25.387   3.053  50.459  1.00  0.00     0.236 A 
HETATM    8  N3  UNL     1      24.163   2.649  50.119  1.00  0.00    -0.241 NA
HETATM    9  C16 UNL     1      23.394   1.950  50.920  1.00  0.00     0.074 A 
HETATM   10  C17 UNL     1      22.118   1.494  50.624  1.00  0.00     0.069 A 
ENDROOT
BRANCH   5  11
HETATM   11  N1  UNL     1      25.662   1.729  53.787  1.00  0.00    -0.320 N 
HETATM   12  H6  UNL     1      25.434   2.082  54.735  1.00  0.00     0.169 HD
BRANCH  11  13
HETATM   13  C7  UNL     1      26.715   0.870  54.304  1.00  0.00     0.155 C 
HETATM   14  C8  UNL     1      26.383  -0.354  53.882  1.00  0.00     0.027 C 
HETATM   15  C9  UNL     1      27.116  -0.727  52.883  1.00  0.00     0.018 C 
HETATM   16  C10 UNL     1      28.415  -1.268  53.058  1.00  0.00     0.080 A 
HETATM   17 CL1  UNL     1      27.698  -2.822  52.770  1.00  0.00    -0.197 Cl
HETATM   18  C11 UNL     1      29.557  -1.953  53.141  1.00  0.00     0.119 A 
HETATM   19  C12 UNL     1      29.420  -0.722  53.525  1.00  0.00     0.078 A 
HETATM   20  C13 UNL     1      29.293   0.267  53.848  1.00  0.00    -0.141 C 
HETATM   21  C14 UNL     1      29.095   1.580  54.290  1.00  0.00     0.258 C 
HETATM   22  O2  UNL     1      27.801   1.127  55.031  1.00  0.00    -0.324 OA
ENDBRANCH  11  13
ENDBRANCH   5  11
BRANCH   1  23
HETATM   23  O1  UNL     1      20.022   0.344  51.033  1.00  0.00    -0.356 OA
HETATM   24  C1  UNL     1      18.892   0.734  51.782  1.00  0.00     0.210 C 
ENDBRANCH   1  23
TORSDOF 3
ENDMDL
MODEL 5
REMARK VINA RESULT:      -8.5      1.884      2.436
REMARK  3 active torsions:
REMARK  status: ('A' for Active; 'I' for Inactive)
REMARK    1  A    between atoms: O1_2  and  C2_3 
REMARK    2  A    between atoms: C6_7  and  N1_8 
REMARK    3  A    between atoms: N1_8  and  C7_9 
ROOT
HETATM    1  C2  UNL     1      20.177   0.999  50.636  1.00  0.00     0.070 A 
HETATM    2  C3  UNL     1      21.504   1.390  50.378  1.00  0.00     0.038 A 
HETATM    3  C4  UNL     1      22.505   1.029  51.280  1.00  0.00     0.020 A 
HETATM    4  C5  UNL     1      22.208   0.295  52.409  1.00  0.00     0.039 A 
HETATM    5  C6  UNL     1      23.211  -0.052  53.301  1.00  0.00     0.143 A 
HETATM    6  N2  UNL     1      22.946  -0.758  54.412  1.00  0.00    -0.223 NA
HETATM    7  C15 UNL     1      21.683  -1.133  54.658  1.00  0.00     0.236 A 
HETATM    8  N3  UNL     1      20.716  -0.801  53.802  1.00  0.00    -0.241 NA
HETATM    9  C16 UNL     1      20.938  -0.112  52.708  1.00  0.00     0.074 A 
HETATM   10  C17 UNL     1      19.978   0.271  51.783  1.00  0.00     0.069 A 
ENDROOT
BRANCH   5  11
HETATM   11  N1  UNL     1      24.557   0.319  53.068  1.00  0.00    -0.320 N 
HETATM   12  H6  UNL     1      25.026   0.727  52.236  1.00  0.00     0.169 HD
BRANCH  11  13
HETATM   13  C7  UNL     1      25.802   0.288  53.818  1.00  0.00     0.155 C 
HETATM   14  C8  UNL     1      26.246  -0.964  53.674  1.00  0.00     0.027 C 
HETATM   15  C9  UNL     1      27.220  -1.027  52.823  1.00  0.00     0.018 C 
HETATM   16  C10 UNL     1      28.557  -0.719  53.180  1.00  0.00     0.080 A 
HETATM   17 CL1  UNL     1      28.835  -2.432  53.224  1.00  0.00    -0.197 Cl
HETATM   18  C11 UNL     1      29.856  -0.630  53.473  1.00  0.00     0.119 A 
HETATM   19  C12 UNL     1      29.024   0.361  53.558  1.00  0.00     0.078 A 
HETATM   20  C13 UNL     1      28.340   1.151  53.638  1.00  0.00    -0.141 C 
HETATM   21  C14 UNL     1      27.405   2.185  53.756  1.00  0.00     0.258 C 
HETATM   22  O2  UNL     1      26.447   1.220  54.518  1.00  0.00    -0.324 OA
ENDBRANCH  11  13
ENDBRANCH   5  11
BRANCH   1  23
HETATM   23  O1  UNL     1      19.131   1.333  49.773  1.00  0.00    -0.356 OA
HETATM   24  C1  UNL     1      17.806   0.993  50.116  1.00  0.00     0.210 C 
ENDBRANCH   1  23
TORSDOF 3
ENDMDL
MODEL 6
REMARK VINA RESULT:      -8.3      3.017      3.881
REMARK  3 active torsions:
REMARK  status: ('A' for Active; 'I' for Inactive)
REMARK    1  A    between atoms: O1_2  and  C2_3 
REMARK    2  A    between atoms: C6_7  and  N1_8 
REMARK    3  A    between atoms: N1_8  and  C7_9 
ROOT
HETATM    1  C2  UNL     1      21.898   4.250  51.384  1.00  0.00     0.070 A 
HETATM    2  C3  UNL     1      23.283   4.047  51.232  1.00  0.00     0.038 A 
HETATM    3  C4  UNL     1      23.853   2.868  51.715  1.00  0.00     0.020 A 
HETATM    4  C5  UNL     1      23.077   1.908  52.329  1.00  0.00     0.039 A 
HETATM    5  C6  UNL     1      23.656   0.744  52.812  1.00  0.00     0.143 A 
HETATM    6  N2  UNL     1      22.925  -0.201  53.422  1.00  0.00    -0.223 NA
HETATM    7  C15 UNL     1      21.605  -0.011  53.566  1.00  0.00     0.236 A 
HETATM    8  N3  UNL     1      21.045   1.108  53.104  1.00  0.00    -0.241 NA
HETATM    9  C16 UNL     1      21.729   2.052  52.503  1.00  0.00     0.074 A 
HETATM   10  C17 UNL     1      21.209   3.239  52.008  1.00  0.00     0.069 A 
ENDROOT
BRANCH   5  11
HETATM   11  N1  UNL     1      25.045   0.506  52.668  1.00  0.00    -0.320 N 
HETATM   12  H6  UNL     1      25.633   0.339  51.829  1.00  0.00     0.169 HD
BRANCH  11  13
HETATM   13  C7  UNL     1      26.188   0.380  53.557  1.00  0.00     0.155 C 
HETATM   14  C8  UNL     1      26.537  -0.907  53.469  1.00  0.00     0.027 C 
HETATM   15  C9  UNL     1      27.593  -1.063  52.737  1.00  0.00     0.018 C 
HETATM   16  C10 UNL     1      28.902  -0.865  53.245  1.00  0.00     0.080 A 
HETATM   17 CL1  UNL     1      29.026  -2.594  53.325  1.00  0.00    -0.197 Cl
HETATM   18  C11 UNL     1      30.162  -0.882  53.686  1.00  0.00     0.119 A 
HETATM   19  C12 UNL     1      29.413   0.177  53.671  1.00  0.00     0.078 A 
HETATM   20  C13 UNL     1      28.794   1.022  53.669  1.00  0.00    -0.141 C 
HETATM   21  C14 UNL     1      27.943   2.133  53.675  1.00  0.00     0.258 C 
HETATM   22  O2  UNL     1      26.825   1.262  54.324  1.00  0.00    -0.324 OA
ENDBRANCH  11  13
ENDBRANCH   5  11
BRANCH   1  23
HETATM   23  O1  UNL     1      21.271   5.409  50.925  1.00  0.00    -0.356 OA
HETATM   24  C1  UNL     1      22.002   6.613  50.843  1.00  0.00     0.210 C 
ENDBRANCH   1  23
TORSDOF 3
ENDMDL
MODEL 7
REMARK VINA RESULT:      -8.2      3.165      7.757
REMARK  3 active torsions:
REMARK  status: ('A' for Active; 'I' for Inactive)
REMARK    1  A    between atoms: O1_2  and  C2_3 
REMARK    2  A    between atoms: C6_7  and  N1_8 
REMARK    3  A    between atoms: N1_8  and  C7_9 
ROOT
HETATM    1  C2  UNL     1      27.287  -0.234  53.583  1.00  0.00     0.070 A 
HETATM    2  C3  UNL     1      25.934  -0.522  53.844  1.00  0.00     0.038 A 
HETATM    3  C4  UNL     1      24.945   0.183  53.157  1.00  0.00     0.020 A 
HETATM    4  C5  UNL     1      25.280   1.148  52.231  1.00  0.00     0.039 A 
HETATM    5  C6  UNL     1      24.287   1.847  51.560  1.00  0.00     0.143 A 
HETATM    6  N2  UNL     1      24.586   2.798  50.660  1.00  0.00    -0.223 NA
HETATM    7  C15 UNL     1      25.874   3.073  50.409  1.00  0.00     0.236 A 
HETATM    8  N3  UNL     1      26.831   2.403  51.053  1.00  0.00    -0.241 NA
HETATM    9  C16 UNL     1      26.575   1.468  51.937  1.00  0.00     0.074 A 
HETATM   10  C17 UNL     1      27.522   0.742  52.645  1.00  0.00     0.069 A 
ENDROOT
BRANCH   5  11
HETATM   11  N1  UNL     1      22.917   1.576  51.794  1.00  0.00    -0.320 N 
HETATM   12  H6  UNL     1      22.259   1.920  52.519  1.00  0.00     0.169 HD
BRANCH  11  13
HETATM   13  C7  UNL     1      21.891   0.746  51.183  1.00  0.00     0.155 C 
HETATM   14  C8  UNL     1      21.400   0.026  52.196  1.00  0.00     0.027 C 
HETATM   15  C9  UNL     1      20.248   0.474  52.582  1.00  0.00     0.018 C 
HETATM   16  C10 UNL     1      19.043   0.137  51.914  1.00  0.00     0.080 A 
HETATM   17 CL1  UNL     1      18.750  -0.975  53.214  1.00  0.00    -0.197 Cl
HETATM   18  C11 UNL     1      17.856  -0.274  51.464  1.00  0.00     0.119 A 
HETATM   19  C12 UNL     1      18.703   0.407  50.757  1.00  0.00     0.078 A 
HETATM   20  C13 UNL     1      19.403   0.943  50.190  1.00  0.00    -0.141 C 
HETATM   21  C14 UNL     1      20.359   1.641  49.445  1.00  0.00     0.258 C 
HETATM   22  O2  UNL     1      21.454   0.643  49.930  1.00  0.00    -0.324 OA
ENDBRANCH  11  13
ENDBRANCH   5  11
BRANCH   1  23
HETATM   23  O1  UNL     1      28.320  -0.902  54.240  1.00  0.00    -0.356 OA
HETATM   24  C1  UNL     1      29.655  -0.703  53.828  1.00  0.00     0.210 C 
ENDBRANCH   1  23
TORSDOF 3
ENDMDL
MODEL 8
REMARK VINA RESULT:      -8.1      3.903      6.244
REMARK  3 active torsions:
REMARK  status: ('A' for Active; 'I' for Inactive)
REMARK    1  A    between atoms: O1_2  and  C2_3 
REMARK    2  A    between atoms: C6_7  and  N1_8 
REMARK    3  A    between atoms: N1_8  and  C7_9 
ROOT
HETATM    1  C2  UNL     1      26.443   0.199  54.304  1.00  0.00     0.070 A 
HETATM    2  C3  UNL     1      26.428   1.538  53.872  1.00  0.00     0.038 A 
HETATM    3  C4  UNL     1      25.279   2.041  53.260  1.00  0.00     0.020 A 
HETATM    4  C5  UNL     1      24.168   1.245  53.081  1.00  0.00     0.039 A 
HETATM    5  C6  UNL     1      23.035   1.754  52.465  1.00  0.00     0.143 A 
HETATM    6  N2  UNL     1      21.943   0.998  52.270  1.00  0.00    -0.223 NA
HETATM    7  C15 UNL     1      21.954  -0.278  52.684  1.00  0.00     0.236 A 
HETATM    8  N3  UNL     1      23.043  -0.771  53.276  1.00  0.00    -0.241 NA
HETATM    9  C16 UNL     1      24.126  -0.061  53.482  1.00  0.00     0.074 A 
HETATM   10  C17 UNL     1      25.290  -0.516  54.083  1.00  0.00     0.069 A 
ENDROOT
BRANCH   5  11
HETATM   11  N1  UNL     1      22.985   3.099  52.025  1.00  0.00    -0.320 N 
HETATM   12  H6  UNL     1      22.595   3.955  52.465  1.00  0.00     0.169 HD
BRANCH  11  13
HETATM   13  C7  UNL     1      23.408   3.837  50.846  1.00  0.00     0.155 C 
HETATM   14  C8  UNL     1      23.033   5.097  51.089  1.00  0.00     0.027 C 
HETATM   15  C9  UNL     1      24.042   5.835  51.426  1.00  0.00     0.018 C 
HETATM   16  C10 UNL     1      24.915   6.406  50.465  1.00  0.00     0.080 A 
HETATM   17 CL1  UNL     1      24.071   7.899  50.731  1.00  0.00    -0.197 Cl
HETATM   18  C11 UNL     1      25.666   7.127  49.630  1.00  0.00     0.119 A 
HETATM   19  C12 UNL     1      25.667   5.831  49.670  1.00  0.00     0.078 A 
HETATM   20  C13 UNL     1      25.646   4.783  49.700  1.00  0.00    -0.141 C 
HETATM   21  C14 UNL     1      25.588   3.386  49.744  1.00  0.00     0.258 C 
HETATM   22  O2  UNL     1      24.031   3.459  49.731  1.00  0.00    -0.324 OA
ENDBRANCH  11  13
ENDBRANCH   5  11
BRANCH   1  23
HETATM   23  O1  UNL     1      27.563  -0.363  54.920  1.00  0.00    -0.356 OA
HETATM   24  C1  UNL     1      28.851   0.101  54.582  1.00  0.00     0.210 C 
ENDBRANCH   1  23
TORSDOF 3
ENDMDL
MODEL 9
REMARK VINA RESULT:      -7.8      2.598      3.714
REMARK  3 active torsions:
REMARK  status: ('A' for Active; 'I' for Inactive)
REMARK    1  A    between atoms: O1_2  and  C2_3 
REMARK    2  A    between atoms: C6_7  and  N1_8 
REMARK    3  A    between atoms: N1_8  and  C7_9 
ROOT
HETATM    1  C2  UNL     1      19.545  -0.305  52.694  1.00  0.00     0.070 A 
HETATM    2  C3  UNL     1      20.391   0.456  51.866  1.00  0.00     0.038 A 
HETATM    3  C4  UNL     1      21.752   0.524  52.166  1.00  0.00     0.020 A 
HETATM    4  C5  UNL     1      22.270  -0.146  53.254  1.00  0.00     0.039 A 
HETATM    5  C6  UNL     1      23.623  -0.065  53.546  1.00  0.00     0.143 A 
HETATM    6  N2  UNL     1      24.151  -0.700  54.604  1.00  0.00    -0.223 NA
HETATM    7  C15 UNL     1      23.347  -1.428  55.393  1.00  0.00     0.236 A 
HETATM    8  N3  UNL     1      22.045  -1.507  55.115  1.00  0.00    -0.241 NA
HETATM    9  C16 UNL     1      21.496  -0.900  54.090  1.00  0.00     0.074 A 
HETATM   10  C17 UNL     1      20.151  -0.937  53.753  1.00  0.00     0.069 A 
ENDROOT
BRANCH   5  11
HETATM   11  N1  UNL     1      24.502   0.686  52.729  1.00  0.00    -0.320 N 
HETATM   12  H6  UNL     1      25.156   0.401  51.975  1.00  0.00     0.169 HD
BRANCH  11  13
HETATM   13  C7  UNL     1      24.874   2.085  52.592  1.00  0.00     0.155 C 
HETATM   14  C8  UNL     1      25.868   2.079  51.697  1.00  0.00     0.027 C 
HETATM   15  C9  UNL     1      25.463   2.484  50.536  1.00  0.00     0.018 C 
HETATM   16  C10 UNL     1      25.341   3.860  50.216  1.00  0.00     0.080 A 
HETATM   17 CL1  UNL     1      26.831   3.687  49.342  1.00  0.00    -0.197 Cl
HETATM   18  C11 UNL     1      25.376   5.119  49.773  1.00  0.00     0.119 A 
HETATM   19  C12 UNL     1      24.588   4.703  50.715  1.00  0.00     0.078 A 
HETATM   20  C13 UNL     1      23.968   4.360  51.487  1.00  0.00    -0.141 C 
HETATM   21  C14 UNL     1      23.163   3.884  52.529  1.00  0.00     0.258 C 
HETATM   22  O2  UNL     1      24.408   3.194  53.163  1.00  0.00    -0.324 OA
ENDBRANCH  11  13
ENDBRANCH   5  11
BRANCH   1  23
HETATM   23  O1  UNL     1      18.175  -0.409  52.448  1.00  0.00    -0.356 OA
HETATM   24  C1  UNL     1      17.671  -0.114  51.164  1.00  0.00     0.210 C 
ENDBRANCH   1  23
TORSDOF 3
ENDMDL
