MODEL 1
REMARK VINA RESULT:      -9.4      0.000      0.000
REMARK  6 active torsions:
REMARK  status: ('A' for Active; 'I' for Inactive)
REMARK    1  A    between atoms: C7_7  and  N1_8 
REMARK    2  A    between atoms: N1_8  and  C8_9 
REMARK    3  A    between atoms: N4_19  and  C16_20 
REMARK    4  A    between atoms: C16_20  and  C17_21 
REMARK    5  A    between atoms: C17_21  and  C18_22 
REMARK    6  A    between atoms: C18_22  and  N5_23 
ROOT
HETATM    1  C1  UNL     1      23.759   8.038  50.488  1.00  0.00     0.018 C 
HETATM    2  C2  UNL     1      24.528   7.169  50.188  1.00  0.00    -0.078 C 
HETATM    3  C3  UNL     1      25.447   6.132  49.814  1.00  0.00     0.019 A 
HETATM    4  C4  UNL     1      26.399   6.354  48.863  1.00  0.00     0.021 A 
HETATM    5  C5  UNL     1      27.247   5.317  48.554  1.00  0.00     0.004 A 
HETATM    6  C6  UNL     1      27.122   4.102  49.195  1.00  0.00     0.029 A 
HETATM    7  C7  UNL     1      26.184   3.824  50.158  1.00  0.00     0.035 A 
HETATM    8  C25 UNL     1      25.368   4.901  50.421  1.00  0.00     0.050 A 
ENDROOT
BRANCH   7   9
HETATM    9  N1  UNL     1      26.074   2.570  50.793  1.00  0.00    -0.340 N 
HETATM   10  H5  UNL     1      25.410   1.974  50.289  1.00  0.00     0.167 HD
BRANCH   9  11
HETATM   11  C8  UNL     1      26.746   2.133  51.956  1.00  0.00     0.142 A 
HETATM   12  N2  UNL     1      27.988   2.452  52.324  1.00  0.00    -0.224 NA
HETATM   13  C9  UNL     1      28.602   2.028  53.421  1.00  0.00     0.236 A 
HETATM   14  N3  UNL     1      27.949   1.207  54.260  1.00  0.00    -0.241 NA
HETATM   15  C10 UNL     1      26.672   0.819  53.977  1.00  0.00     0.075 A 
HETATM   16  C11 UNL     1      26.076  -0.024  54.888  1.00  0.00     0.071 A 
HETATM   17  C15 UNL     1      26.085   1.289  52.823  1.00  0.00     0.041 A 
HETATM   18  C12 UNL     1      24.785  -0.448  54.653  1.00  0.00     0.098 A 
HETATM   19  C13 UNL     1      24.147  -0.008  53.513  1.00  0.00     0.071 A 
HETATM   20  O3  UNL     1      24.228  -1.296  55.599  1.00  0.00    -0.340 OA
HETATM   21  C14 UNL     1      24.801   0.828  52.652  1.00  0.00     0.050 A 
HETATM   22  N4  UNL     1      22.814  -0.459  53.289  1.00  0.00    -0.314 N 
HETATM   23  C23 UNL     1      22.229  -1.335  54.261  1.00  0.00     0.248 C 
HETATM   24  O2  UNL     1      21.090  -1.848  54.052  1.00  0.00    -0.271 OA
HETATM   25  C24 UNL     1      22.886  -1.699  55.543  1.00  0.00     0.279 C 
BRANCH  22  26
HETATM   26  C16 UNL     1      22.074  -0.063  52.147  1.00  0.00     0.134 C 
BRANCH  26  27
HETATM   27  C17 UNL     1      21.219   1.177  52.471  1.00  0.00     0.040 C 
BRANCH  27  28
HETATM   28  C18 UNL     1      20.783   1.723  51.160  1.00  0.00     0.118 C 
BRANCH  28  29
HETATM   29  N5  UNL     1      20.351   3.063  51.103  1.00  0.00    -0.408 N 
HETATM   30  C19 UNL     1      20.954   3.829  52.147  1.00  0.00     0.143 C 
HETATM   31  C20 UNL     1      21.770   5.006  51.721  1.00  0.00     0.187 C 
HETATM   32  O1  UNL     1      21.343   5.630  50.569  1.00  0.00    -0.388 OA
HETATM   33  C21 UNL     1      21.392   4.671  49.562  1.00  0.00     0.187 C 
HETATM   34  C22 UNL     1      20.249   3.698  49.844  1.00  0.00     0.143 C 
ENDBRANCH  28  29
ENDBRANCH  27  28
ENDBRANCH  26  27
ENDBRANCH  22  26
ENDBRANCH   9  11
ENDBRANCH   7   9
TORSDOF 6
ENDMDL
MODEL 2
REMARK VINA RESULT:      -9.3      2.028      5.258
REMARK  6 active torsions:
REMARK  status: ('A' for Active; 'I' for Inactive)
REMARK    1  A    between atoms: C7_7  and  N1_8 
REMARK    2  A    between atoms: N1_8  and  C8_9 
REMARK    3  A    between atoms: N4_19  and  C16_20 
REMARK    4  A    between atoms: C16_20  and  C17_21 
REMARK    5  A    between atoms: C17_21  and  C18_22 
REMARK    6  A    between atoms: C18_22  and  N5_23 
ROOT
HETATM    1  C1  UNL     1      23.969   8.332  47.806  1.00  0.00     0.018 C 
HETATM    2  C2  UNL     1      24.601   7.375  48.152  1.00  0.00    -0.078 C 
HETATM    3  C3  UNL     1      25.367   6.230  48.554  1.00  0.00     0.019 A 
HETATM    4  C4  UNL     1      26.725   6.218  48.423  1.00  0.00     0.021 A 
HETATM    5  C5  UNL     1      27.395   5.088  48.830  1.00  0.00     0.004 A 
HETATM    6  C6  UNL     1      26.701   4.016  49.348  1.00  0.00     0.029 A 
HETATM    7  C7  UNL     1      25.337   3.974  49.502  1.00  0.00     0.035 A 
HETATM    8  C25 UNL     1      24.725   5.132  49.078  1.00  0.00     0.050 A 
ENDROOT
BRANCH   7   9
HETATM    9  N1  UNL     1      24.650   2.861  50.029  1.00  0.00    -0.340 N 
HETATM   10  H5  UNL     1      25.281   2.293  50.604  1.00  0.00     0.167 HD
BRANCH   9  11
HETATM   11  C8  UNL     1      23.295   2.515  49.834  1.00  0.00     0.142 A 
HETATM   12  N2  UNL     1      22.503   2.928  48.843  1.00  0.00    -0.224 NA
HETATM   13  C9  UNL     1      21.230   2.593  48.679  1.00  0.00     0.236 A 
HETATM   14  N3  UNL     1      20.653   1.764  49.566  1.00  0.00    -0.241 NA
HETATM   15  C10 UNL     1      21.375   1.282  50.619  1.00  0.00     0.075 A 
HETATM   16  C11 UNL     1      20.709   0.441  51.480  1.00  0.00     0.071 A 
HETATM   17  C15 UNL     1      22.693   1.666  50.739  1.00  0.00     0.041 A 
HETATM   18  C12 UNL     1      21.389  -0.076  52.562  1.00  0.00     0.098 A 
HETATM   19  C13 UNL     1      22.713   0.274  52.732  1.00  0.00     0.071 A 
HETATM   20  O3  UNL     1      20.675  -0.918  53.401  1.00  0.00    -0.340 OA
HETATM   21  C14 UNL     1      23.311   1.115  51.837  1.00  0.00     0.050 A 
HETATM   22  N4  UNL     1      23.397  -0.271  53.857  1.00  0.00    -0.314 N 
HETATM   23  C23 UNL     1      22.668  -1.143  54.729  1.00  0.00     0.248 C 
HETATM   24  O2  UNL     1      23.200  -1.564  55.799  1.00  0.00    -0.271 OA
HETATM   25  C24 UNL     1      21.282  -1.605  54.462  1.00  0.00     0.279 C 
BRANCH  22  26
HETATM   26  C16 UNL     1      24.757   0.027  54.119  1.00  0.00     0.134 C 
BRANCH  26  27
HETATM   27  C17 UNL     1      25.666  -1.070  53.532  1.00  0.00     0.040 C 
BRANCH  27  28
HETATM   28  C18 UNL     1      26.393  -0.435  52.404  1.00  0.00     0.118 C 
BRANCH  28  29
HETATM   29  N5  UNL     1      27.681   0.086  52.646  1.00  0.00    -0.408 N 
HETATM   30  C19 UNL     1      27.665   1.512  52.587  1.00  0.00     0.143 C 
HETATM   31  C20 UNL     1      28.113   2.233  53.815  1.00  0.00     0.187 C 
HETATM   32  O1  UNL     1      29.079   1.587  54.557  1.00  0.00    -0.388 OA
HETATM   33  C21 UNL     1      28.529   0.367  54.937  1.00  0.00     0.187 C 
HETATM   34  C22 UNL     1      28.470  -0.486  53.671  1.00  0.00     0.143 C 
ENDBRANCH  28  29
ENDBRANCH  27  28
ENDBRANCH  26  27
ENDBRANCH  22  26
ENDBRANCH   9  11
ENDBRANCH   7   9
TORSDOF 6
ENDMDL
MODEL 3
REMARK VINA RESULT:      -9.3      0.852      1.983
REMARK  6 active torsions:
REMARK  status: ('A' for Active; 'I' for Inactive)
REMARK    1  A    between atoms: C7_7  and  N1_8 
REMARK    2  A    between atoms: N1_8  and  C8_9 
REMARK    3  A    between atoms: N4_19  and  C16_20 
REMARK    4  A    between atoms: C16_20  and  C17_21 
REMARK    5  A    between atoms: C17_21  and  C18_22 
REMARK    6  A    between atoms: C18_22  and  N5_23 
ROOT
HETATM    1  C1  UNL     1      30.030   5.721  47.757  1.00  0.00     0.018 C 
HETATM    2  C2  UNL     1      28.946   5.488  48.210  1.00  0.00    -0.078 C 
HETATM    3  C3  UNL     1      27.646   5.224  48.758  1.00  0.00     0.019 A 
HETATM    4  C4  UNL     1      26.621   6.107  48.580  1.00  0.00     0.021 A 
HETATM    5  C5  UNL     1      25.403   5.788  49.131  1.00  0.00     0.004 A 
HETATM    6  C6  UNL     1      25.242   4.614  49.835  1.00  0.00     0.029 A 
HETATM    7  C7  UNL     1      26.236   3.691  50.044  1.00  0.00     0.035 A 
HETATM    8  C25 UNL     1      27.430   4.067  49.469  1.00  0.00     0.050 A 
ENDROOT
BRANCH   7   9
HETATM    9  N1  UNL     1      26.047   2.500  50.774  1.00  0.00    -0.340 N 
HETATM   10  H5  UNL     1      25.329   1.920  50.329  1.00  0.00     0.167 HD
BRANCH   9  11
HETATM   11  C8  UNL     1      26.712   2.100  51.955  1.00  0.00     0.142 A 
HETATM   12  N2  UNL     1      27.946   2.443  52.329  1.00  0.00    -0.224 NA
HETATM   13  C9  UNL     1      28.552   2.055  53.442  1.00  0.00     0.236 A 
HETATM   14  N3  UNL     1      27.899   1.246  54.295  1.00  0.00    -0.241 NA
HETATM   15  C10 UNL     1      26.631   0.836  54.008  1.00  0.00     0.075 A 
HETATM   16  C11 UNL     1      26.034   0.009  54.933  1.00  0.00     0.071 A 
HETATM   17  C15 UNL     1      26.051   1.270  52.836  1.00  0.00     0.041 A 
HETATM   18  C12 UNL     1      24.752  -0.437  54.695  1.00  0.00     0.098 A 
HETATM   19  C13 UNL     1      24.121  -0.033  53.536  1.00  0.00     0.071 A 
HETATM   20  O3  UNL     1      24.194  -1.268  55.655  1.00  0.00    -0.340 OA
HETATM   21  C14 UNL     1      24.774   0.789  52.662  1.00  0.00     0.050 A 
HETATM   22  N4  UNL     1      22.797  -0.506  53.309  1.00  0.00    -0.314 N 
HETATM   23  C23 UNL     1      22.212  -1.365  54.296  1.00  0.00     0.248 C 
HETATM   24  O2  UNL     1      21.081  -1.897  54.088  1.00  0.00    -0.271 OA
HETATM   25  C24 UNL     1      22.858  -1.689  55.594  1.00  0.00     0.279 C 
BRANCH  22  26
HETATM   26  C16 UNL     1      22.064  -0.148  52.150  1.00  0.00     0.134 C 
BRANCH  26  27
HETATM   27  C17 UNL     1      21.014   0.925  52.495  1.00  0.00     0.040 C 
BRANCH  27  28
HETATM   28  C18 UNL     1      20.917   1.797  51.296  1.00  0.00     0.118 C 
BRANCH  28  29
HETATM   29  N5  UNL     1      21.920   2.765  51.089  1.00  0.00    -0.408 N 
HETATM   30  C19 UNL     1      21.625   3.556  49.937  1.00  0.00     0.143 C 
HETATM   31  C20 UNL     1      21.496   5.028  50.157  1.00  0.00     0.187 C 
HETATM   32  O1  UNL     1      22.288   5.544  51.160  1.00  0.00    -0.388 OA
HETATM   33  C21 UNL     1      21.915   4.888  52.330  1.00  0.00     0.187 C 
HETATM   34  C22 UNL     1      22.443   3.460  52.204  1.00  0.00     0.143 C 
ENDBRANCH  28  29
ENDBRANCH  27  28
ENDBRANCH  26  27
ENDBRANCH  22  26
ENDBRANCH   9  11
ENDBRANCH   7   9
TORSDOF 6
ENDMDL
MODEL 4
REMARK VINA RESULT:      -8.9      2.595      5.695
REMARK  6 active torsions:
REMARK  status: ('A' for Active; 'I' for Inactive)
REMARK    1  A    between atoms: C7_7  and  N1_8 
REMARK    2  A    between atoms: N1_8  and  C8_9 
REMARK    3  A    between atoms: N4_19  and  C16_20 
REMARK    4  A    between atoms: C16_20  and  C17_21 
REMARK    5  A    between atoms: C17_21  and  C18_22 
REMARK    6  A    between atoms: C18_22  and  N5_23 
ROOT
HETATM    1  C1  UNL     1      29.690  -2.086  53.366  1.00  0.00     0.018 C 
HETATM    2  C2  UNL     1      28.943  -1.151  53.321  1.00  0.00    -0.078 C 
HETATM    3  C3  UNL     1      28.055  -0.025  53.281  1.00  0.00     0.019 A 
HETATM    4  C4  UNL     1      28.524   1.241  53.479  1.00  0.00     0.021 A 
HETATM    5  C5  UNL     1      27.617   2.273  53.425  1.00  0.00     0.004 A 
HETATM    6  C6  UNL     1      26.285   2.017  53.177  1.00  0.00     0.029 A 
HETATM    7  C7  UNL     1      25.759   0.766  52.970  1.00  0.00     0.035 A 
HETATM    8  C25 UNL     1      26.716  -0.223  53.037  1.00  0.00     0.050 A 
ENDROOT
BRANCH   7   9
HETATM    9  N1  UNL     1      24.391   0.531  52.726  1.00  0.00    -0.340 N 
HETATM   10  H5  UNL     1      24.109   0.962  51.840  1.00  0.00     0.167 HD
BRANCH   9  11
HETATM   11  C8  UNL     1      23.482  -0.182  53.538  1.00  0.00     0.142 A 
HETATM   12  N2  UNL     1      23.776  -0.888  54.632  1.00  0.00    -0.224 NA
HETATM   13  C9  UNL     1      22.907  -1.553  55.381  1.00  0.00     0.236 A 
HETATM   14  N3  UNL     1      21.606  -1.536  55.042  1.00  0.00    -0.241 NA
HETATM   15  C10 UNL     1      21.197  -0.844  53.940  1.00  0.00     0.075 A 
HETATM   16  C11 UNL     1      19.849  -0.880  53.664  1.00  0.00     0.071 A 
HETATM   17  C15 UNL     1      22.146  -0.173  53.200  1.00  0.00     0.041 A 
HETATM   18  C12 UNL     1      19.379  -0.197  52.562  1.00  0.00     0.098 A 
HETATM   19  C13 UNL     1      20.284   0.494  51.784  1.00  0.00     0.071 A 
HETATM   20  O3  UNL     1      18.015  -0.264  52.326  1.00  0.00    -0.340 OA
HETATM   21  C14 UNL     1      21.609   0.485  52.118  1.00  0.00     0.050 A 
HETATM   22  N4  UNL     1      19.778   1.191  50.649  1.00  0.00    -0.314 N 
HETATM   23  C23 UNL     1      18.369   1.129  50.397  1.00  0.00     0.248 C 
HETATM   24  O2  UNL     1      17.887   1.641  49.342  1.00  0.00    -0.271 OA
HETATM   25  C24 UNL     1      17.394   0.484  51.314  1.00  0.00     0.279 C 
BRANCH  22  26
HETATM   26  C16 UNL     1      20.626   1.930  49.787  1.00  0.00     0.134 C 
BRANCH  26  27
HETATM   27  C17 UNL     1      20.629   3.417  50.191  1.00  0.00     0.040 C 
BRANCH  27  28
HETATM   28  C18 UNL     1      21.278   4.141  49.067  1.00  0.00     0.118 C 
BRANCH  28  29
HETATM   29  N5  UNL     1      22.577   4.653  49.262  1.00  0.00    -0.408 N 
HETATM   30  C19 UNL     1      22.658   5.360  50.499  1.00  0.00     0.143 C 
HETATM   31  C20 UNL     1      23.668   4.865  51.482  1.00  0.00     0.187 C 
HETATM   32  O1  UNL     1      24.804   4.314  50.930  1.00  0.00    -0.388 OA
HETATM   33  C21 UNL     1      24.380   3.240  50.154  1.00  0.00     0.187 C 
HETATM   34  C22 UNL     1      23.689   3.843  48.933  1.00  0.00     0.143 C 
ENDBRANCH  28  29
ENDBRANCH  27  28
ENDBRANCH  26  27
ENDBRANCH  22  26
ENDBRANCH   9  11
ENDBRANCH   7   9
TORSDOF 6
ENDMDL
MODEL 5
REMARK VINA RESULT:      -8.5      2.142      5.468
REMARK  6 active torsions:
REMARK  status: ('A' for Active; 'I' for Inactive)
REMARK    1  A    between atoms: C7_7  and  N1_8 
REMARK    2  A    between atoms: N1_8  and  C8_9 
REMARK    3  A    between atoms: N4_19  and  C16_20 
REMARK    4  A    between atoms: C16_20  and  C17_21 
REMARK    5  A    between atoms: C17_21  and  C18_22 
REMARK    6  A    between atoms: C18_22  and  N5_23 
ROOT
HETATM    1  C1  UNL     1      19.608   3.242  46.846  1.00  0.00     0.018 C 
HETATM    2  C2  UNL     1      19.693   2.939  48.002  1.00  0.00    -0.078 C 
HETATM    3  C3  UNL     1      19.794   2.593  49.391  1.00  0.00     0.019 A 
HETATM    4  C4  UNL     1      19.007   3.205  50.321  1.00  0.00     0.021 A 
HETATM    5  C5  UNL     1      19.155   2.822  51.634  1.00  0.00     0.004 A 
HETATM    6  C6  UNL     1      20.073   1.853  51.977  1.00  0.00     0.029 A 
HETATM    7  C7  UNL     1      20.889   1.205  51.083  1.00  0.00     0.035 A 
HETATM    8  C25 UNL     1      20.693   1.631  49.788  1.00  0.00     0.050 A 
ENDROOT
BRANCH   7   9
HETATM    9  N1  UNL     1      21.825   0.220  51.461  1.00  0.00    -0.340 N 
HETATM   10  H5  UNL     1      22.414  -0.036  50.662  1.00  0.00     0.167 HD
BRANCH   9  11
HETATM   11  C8  UNL     1      21.984  -0.373  52.733  1.00  0.00     0.142 A 
HETATM   12  N2  UNL     1      21.037  -0.975  53.454  1.00  0.00    -0.224 NA
HETATM   13  C9  UNL     1      21.207  -1.525  54.649  1.00  0.00     0.236 A 
HETATM   14  N3  UNL     1      22.425  -1.494  55.216  1.00  0.00    -0.241 NA
HETATM   15  C10 UNL     1      23.466  -0.900  54.562  1.00  0.00     0.075 A 
HETATM   16  C11 UNL     1      24.678  -0.911  55.213  1.00  0.00     0.071 A 
HETATM   17  C15 UNL     1      23.230  -0.345  53.324  1.00  0.00     0.041 A 
HETATM   18  C12 UNL     1      25.766  -0.326  54.599  1.00  0.00     0.098 A 
HETATM   19  C13 UNL     1      25.589   0.246  53.357  1.00  0.00     0.071 A 
HETATM   20  O3  UNL     1      26.965  -0.361  55.294  1.00  0.00    -0.340 OA
HETATM   21  C14 UNL     1      24.355   0.220  52.770  1.00  0.00     0.050 A 
HETATM   22  N4  UNL     1      26.725   0.846  52.741  1.00  0.00    -0.314 N 
HETATM   23  C23 UNL     1      27.969   0.814  53.451  1.00  0.00     0.248 C 
HETATM   24  O2  UNL     1      28.979   1.428  52.995  1.00  0.00    -0.271 OA
HETATM   25  C24 UNL     1      28.169   0.086  54.731  1.00  0.00     0.279 C 
BRANCH  22  26
HETATM   26  C16 UNL     1      26.646   1.459  51.466  1.00  0.00     0.134 C 
BRANCH  26  27
HETATM   27  C17 UNL     1      26.260   2.944  51.612  1.00  0.00     0.040 C 
BRANCH  27  28
HETATM   28  C18 UNL     1      25.094   3.150  50.715  1.00  0.00     0.118 C 
BRANCH  28  29
HETATM   29  N5  UNL     1      24.526   4.438  50.642  1.00  0.00    -0.408 N 
HETATM   30  C19 UNL     1      24.021   4.690  49.330  1.00  0.00     0.143 C 
HETATM   31  C20 UNL     1      22.566   5.013  49.230  1.00  0.00     0.187 C 
HETATM   32  O1  UNL     1      22.037   5.685  50.310  1.00  0.00    -0.388 OA
HETATM   33  C21 UNL     1      22.231   4.862  51.416  1.00  0.00     0.187 C 
HETATM   34  C22 UNL     1      23.728   4.898  51.715  1.00  0.00     0.143 C 
ENDBRANCH  28  29
ENDBRANCH  27  28
ENDBRANCH  26  27
ENDBRANCH  22  26
ENDBRANCH   9  11
ENDBRANCH   7   9
TORSDOF 6
ENDMDL
MODEL 6
REMARK VINA RESULT:      -8.5      1.825      2.701
REMARK  6 active torsions:
REMARK  status: ('A' for Active; 'I' for Inactive)
REMARK    1  A    between atoms: C7_7  and  N1_8 
REMARK    2  A    between atoms: N1_8  and  C8_9 
REMARK    3  A    between atoms: N4_19  and  C16_20 
REMARK    4  A    between atoms: C16_20  and  C17_21 
REMARK    5  A    between atoms: C17_21  and  C18_22 
REMARK    6  A    between atoms: C18_22  and  N5_23 
ROOT
HETATM    1  C1  UNL     1      25.525   7.587  47.506  1.00  0.00     0.018 C 
HETATM    2  C2  UNL     1      25.231   6.884  48.430  1.00  0.00    -0.078 C 
HETATM    3  C3  UNL     1      24.881   6.054  49.547  1.00  0.00     0.019 A 
HETATM    4  C4  UNL     1      23.966   6.474  50.468  1.00  0.00     0.021 A 
HETATM    5  C5  UNL     1      23.677   5.627  51.512  1.00  0.00     0.004 A 
HETATM    6  C6  UNL     1      24.300   4.401  51.607  1.00  0.00     0.029 A 
HETATM    7  C7  UNL     1      25.226   3.928  50.711  1.00  0.00     0.035 A 
HETATM    8  C25 UNL     1      25.472   4.821  49.691  1.00  0.00     0.050 A 
ENDROOT
BRANCH   7   9
HETATM    9  N1  UNL     1      25.854   2.672  50.835  1.00  0.00    -0.340 N 
HETATM   10  H5  UNL     1      25.727   2.125  49.977  1.00  0.00     0.167 HD
BRANCH   9  11
HETATM   11  C8  UNL     1      26.569   2.173  51.947  1.00  0.00     0.142 A 
HETATM   12  N2  UNL     1      27.831   2.457  52.274  1.00  0.00    -0.224 NA
HETATM   13  C9  UNL     1      28.484   1.976  53.323  1.00  0.00     0.236 A 
HETATM   14  N3  UNL     1      27.854   1.128  54.153  1.00  0.00    -0.241 NA
HETATM   15  C10 UNL     1      26.559   0.772  53.910  1.00  0.00     0.075 A 
HETATM   16  C11 UNL     1      25.989  -0.100  54.809  1.00  0.00     0.071 A 
HETATM   17  C15 UNL     1      25.931   1.303  52.805  1.00  0.00     0.041 A 
HETATM   18  C12 UNL     1      24.682  -0.494  54.613  1.00  0.00     0.098 A 
HETATM   19  C13 UNL     1      24.003   0.006  53.521  1.00  0.00     0.071 A 
HETATM   20  O3  UNL     1      24.152  -1.374  55.544  1.00  0.00    -0.340 OA
HETATM   21  C14 UNL     1      24.633   0.869  52.670  1.00  0.00     0.050 A 
HETATM   22  N4  UNL     1      22.654  -0.415  53.337  1.00  0.00    -0.314 N 
HETATM   23  C23 UNL     1      22.097  -1.323  54.294  1.00  0.00     0.248 C 
HETATM   24  O2  UNL     1      20.941  -1.810  54.114  1.00  0.00    -0.271 OA
HETATM   25  C24 UNL     1      22.802  -1.754  55.529  1.00  0.00     0.279 C 
BRANCH  22  26
HETATM   26  C16 UNL     1      21.872   0.042  52.247  1.00  0.00     0.134 C 
BRANCH  26  27
HETATM   27  C17 UNL     1      21.285   1.432  52.560  1.00  0.00     0.040 C 
BRANCH  27  28
HETATM   28  C18 UNL     1      19.817   1.304  52.375  1.00  0.00     0.118 C 
BRANCH  28  29
HETATM   29  N5  UNL     1      19.342   0.419  51.385  1.00  0.00    -0.408 N 
HETATM   30  C19 UNL     1      18.380  -0.481  51.936  1.00  0.00     0.143 C 
HETATM   31  C20 UNL     1      17.023  -0.466  51.311  1.00  0.00     0.187 C 
HETATM   32  O1  UNL     1      16.999  -0.175  49.964  1.00  0.00    -0.388 OA
HETATM   33  C21 UNL     1      17.562   1.090  49.828  1.00  0.00     0.187 C 
HETATM   34  C22 UNL     1      19.056   0.923  50.095  1.00  0.00     0.143 C 
ENDBRANCH  28  29
ENDBRANCH  27  28
ENDBRANCH  26  27
ENDBRANCH  22  26
ENDBRANCH   9  11
ENDBRANCH   7   9
TORSDOF 6
ENDMDL
MODEL 7
REMARK VINA RESULT:      -8.3      1.990      2.435
REMARK  6 active torsions:
REMARK  status: ('A' for Active; 'I' for Inactive)
REMARK    1  A    between atoms: C7_7  and  N1_8 
REMARK    2  A    between atoms: N1_8  and  C8_9 
REMARK    3  A    between atoms: N4_19  and  C16_20 
REMARK    4  A    between atoms: C16_20  and  C17_21 
REMARK    5  A    between atoms: C17_21  and  C18_22 
REMARK    6  A    between atoms: C18_22  and  N5_23 
ROOT
HETATM    1  C1  UNL     1      24.686   8.894  49.078  1.00  0.00     0.018 C 
HETATM    2  C2  UNL     1      25.234   7.829  49.114  1.00  0.00    -0.078 C 
HETATM    3  C3  UNL     1      25.893   6.555  49.141  1.00  0.00     0.019 A 
HETATM    4  C4  UNL     1      27.062   6.360  48.465  1.00  0.00     0.021 A 
HETATM    5  C5  UNL     1      27.640   5.114  48.536  1.00  0.00     0.004 A 
HETATM    6  C6  UNL     1      27.043   4.110  49.269  1.00  0.00     0.029 A 
HETATM    7  C7  UNL     1      25.869   4.251  49.967  1.00  0.00     0.035 A 
HETATM    8  C25 UNL     1      25.342   5.518  49.857  1.00  0.00     0.050 A 
ENDROOT
BRANCH   7   9
HETATM    9  N1  UNL     1      25.275   3.206  50.704  1.00  0.00    -0.340 N 
HETATM   10  H5  UNL     1      24.275   3.142  50.488  1.00  0.00     0.167 HD
BRANCH   9  11
HETATM   11  C8  UNL     1      25.903   2.336  51.623  1.00  0.00     0.142 A 
HETATM   12  N2  UNL     1      27.211   2.254  51.874  1.00  0.00    -0.224 NA
HETATM   13  C9  UNL     1      27.782   1.429  52.741  1.00  0.00     0.236 A 
HETATM   14  N3  UNL     1      27.008   0.588  53.450  1.00  0.00    -0.241 NA
HETATM   15  C10 UNL     1      25.656   0.591  53.270  1.00  0.00     0.075 A 
HETATM   16  C11 UNL     1      24.938  -0.301  54.034  1.00  0.00     0.071 A 
HETATM   17  C15 UNL     1      25.119   1.470  52.354  1.00  0.00     0.041 A 
HETATM   18  C12 UNL     1      23.567  -0.341  53.894  1.00  0.00     0.098 A 
HETATM   19  C13 UNL     1      22.974   0.517  52.991  1.00  0.00     0.071 A 
HETATM   20  O3  UNL     1      22.888  -1.256  54.684  1.00  0.00    -0.340 OA
HETATM   21  C14 UNL     1      23.750   1.377  52.266  1.00  0.00     0.050 A 
HETATM   22  N4  UNL     1      21.557   0.458  52.861  1.00  0.00    -0.314 N 
HETATM   23  C23 UNL     1      20.846  -0.483  53.675  1.00  0.00     0.248 C 
HETATM   24  O2  UNL     1      19.600  -0.649  53.517  1.00  0.00    -0.271 OA
HETATM   25  C24 UNL     1      21.487  -1.311  54.728  1.00  0.00     0.279 C 
BRANCH  22  26
HETATM   26  C16 UNL     1      20.854   1.299  51.962  1.00  0.00     0.134 C 
BRANCH  26  27
HETATM   27  C17 UNL     1      20.613   0.567  50.628  1.00  0.00     0.040 C 
BRANCH  27  28
HETATM   28  C18 UNL     1      19.939   1.550  49.742  1.00  0.00     0.118 C 
BRANCH  28  29
HETATM   29  N5  UNL     1      18.530   1.551  49.692  1.00  0.00    -0.408 N 
HETATM   30  C19 UNL     1      18.006   0.374  50.308  1.00  0.00     0.143 C 
HETATM   31  C20 UNL     1      17.079   0.585  51.460  1.00  0.00     0.187 C 
HETATM   32  O1  UNL     1      16.310   1.727  51.394  1.00  0.00    -0.388 OA
HETATM   33  C21 UNL     1      17.200   2.795  51.343  1.00  0.00     0.187 C 
HETATM   34  C22 UNL     1      17.835   2.754  49.955  1.00  0.00     0.143 C 
ENDBRANCH  28  29
ENDBRANCH  27  28
ENDBRANCH  26  27
ENDBRANCH  22  26
ENDBRANCH   9  11
ENDBRANCH   7   9
TORSDOF 6
ENDMDL
MODEL 8
REMARK VINA RESULT:      -8.2      1.751      2.586
REMARK  6 active torsions:
REMARK  status: ('A' for Active; 'I' for Inactive)
REMARK    1  A    between atoms: C7_7  and  N1_8 
REMARK    2  A    between atoms: N1_8  and  C8_9 
REMARK    3  A    between atoms: N4_19  and  C16_20 
REMARK    4  A    between atoms: C16_20  and  C17_21 
REMARK    5  A    between atoms: C17_21  and  C18_22 
REMARK    6  A    between atoms: C18_22  and  N5_23 
ROOT
HETATM    1  C1  UNL     1      26.111   8.005  46.887  1.00  0.00     0.018 C 
HETATM    2  C2  UNL     1      25.646   7.497  47.867  1.00  0.00    -0.078 C 
HETATM    3  C3  UNL     1      25.097   6.897  49.050  1.00  0.00     0.019 A 
HETATM    4  C4  UNL     1      24.662   7.671  50.086  1.00  0.00     0.021 A 
HETATM    5  C5  UNL     1      24.146   7.030  51.187  1.00  0.00     0.004 A 
HETATM    6  C6  UNL     1      24.080   5.654  51.225  1.00  0.00     0.029 A 
HETATM    7  C7  UNL     1      24.503   4.828  50.213  1.00  0.00     0.035 A 
HETATM    8  C25 UNL     1      25.007   5.528  49.140  1.00  0.00     0.050 A 
ENDROOT
BRANCH   7   9
HETATM    9  N1  UNL     1      24.430   3.421  50.279  1.00  0.00    -0.340 N 
HETATM   10  H5  UNL     1      23.739   3.069  49.610  1.00  0.00     0.167 HD
BRANCH   9  11
HETATM   11  C8  UNL     1      25.170   2.560  51.121  1.00  0.00     0.142 A 
HETATM   12  N2  UNL     1      26.496   2.530  51.260  1.00  0.00    -0.224 NA
HETATM   13  C9  UNL     1      27.172   1.712  52.055  1.00  0.00     0.236 A 
HETATM   14  N3  UNL     1      26.496   0.822  52.803  1.00  0.00    -0.241 NA
HETATM   15  C10 UNL     1      25.135   0.769  52.736  1.00  0.00     0.075 A 
HETATM   16  C11 UNL     1      24.522  -0.170  53.533  1.00  0.00     0.071 A 
HETATM   17  C15 UNL     1      24.487   1.644  51.891  1.00  0.00     0.041 A 
HETATM   18  C12 UNL     1      23.147  -0.268  53.506  1.00  0.00     0.098 A 
HETATM   19  C13 UNL     1      22.445   0.583  52.679  1.00  0.00     0.071 A 
HETATM   20  O3  UNL     1      22.576  -1.229  54.326  1.00  0.00    -0.340 OA
HETATM   21  C14 UNL     1      23.120   1.492  51.914  1.00  0.00     0.050 A 
HETATM   22  N4  UNL     1      21.025   0.464  52.665  1.00  0.00    -0.314 N 
HETATM   23  C23 UNL     1      20.426  -0.526  53.510  1.00  0.00     0.248 C 
HETATM   24  O2  UNL     1      19.179  -0.743  53.451  1.00  0.00    -0.271 OA
HETATM   25  C24 UNL     1      21.188  -1.348  54.484  1.00  0.00     0.279 C 
BRANCH  22  26
HETATM   26  C16 UNL     1      20.214   1.293  51.849  1.00  0.00     0.134 C 
BRANCH  26  27
HETATM   27  C17 UNL     1      19.977   0.624  50.482  1.00  0.00     0.040 C 
BRANCH  27  28
HETATM   28  C18 UNL     1      19.919   1.731  49.493  1.00  0.00     0.118 C 
BRANCH  28  29
HETATM   29  N5  UNL     1      21.071   2.523  49.307  1.00  0.00    -0.408 N 
HETATM   30  C19 UNL     1      21.935   1.931  48.336  1.00  0.00     0.143 C 
HETATM   31  C20 UNL     1      22.255   2.761  47.137  1.00  0.00     0.187 C 
HETATM   32  O1  UNL     1      22.300   4.121  47.359  1.00  0.00    -0.388 OA
HETATM   33  C21 UNL     1      21.040   4.484  47.824  1.00  0.00     0.187 C 
HETATM   34  C22 UNL     1      20.933   3.929  49.243  1.00  0.00     0.143 C 
ENDBRANCH  28  29
ENDBRANCH  27  28
ENDBRANCH  26  27
ENDBRANCH  22  26
ENDBRANCH   9  11
ENDBRANCH   7   9
TORSDOF 6
ENDMDL
MODEL 9
REMARK VINA RESULT:      -8.2      2.729      6.122
REMARK  6 active torsions:
REMARK  status: ('A' for Active; 'I' for Inactive)
REMARK    1  A    between atoms: C7_7  and  N1_8 
REMARK    2  A    between atoms: N1_8  and  C8_9 
REMARK    3  A    between atoms: N4_19  and  C16_20 
REMARK    4  A    between atoms: C16_20  and  C17_21 
REMARK    5  A    between atoms: C17_21  and  C18_22 
REMARK    6  A    between atoms: C18_22  and  N5_23 
ROOT
HETATM    1  C1  UNL     1      18.916   1.312  50.336  1.00  0.00     0.018 C 
HETATM    2  C2  UNL     1      19.442   0.745  51.251  1.00  0.00    -0.078 C 
HETATM    3  C3  UNL     1      20.057   0.067  52.356  1.00  0.00     0.019 A 
HETATM    4  C4  UNL     1      19.393  -0.917  53.028  1.00  0.00     0.021 A 
HETATM    5  C5  UNL     1      20.044  -1.525  54.076  1.00  0.00     0.004 A 
HETATM    6  C6  UNL     1      21.323  -1.139  54.419  1.00  0.00     0.029 A 
HETATM    7  C7  UNL     1      22.037  -0.157  53.778  1.00  0.00     0.035 A 
HETATM    8  C25 UNL     1      21.332   0.411  52.741  1.00  0.00     0.050 A 
ENDROOT
BRANCH   7   9
HETATM    9  N1  UNL     1      23.341   0.223  54.154  1.00  0.00    -0.340 N 
HETATM   10  H5  UNL     1      23.335   0.634  55.092  1.00  0.00     0.167 HD
BRANCH   9  11
HETATM   11  C8  UNL     1      24.528   0.089  53.398  1.00  0.00     0.142 A 
HETATM   12  N2  UNL     1      25.340  -0.969  53.373  1.00  0.00    -0.224 NA
HETATM   13  C9  UNL     1      26.451  -1.074  52.657  1.00  0.00     0.236 A 
HETATM   14  N3  UNL     1      26.824  -0.047  51.875  1.00  0.00    -0.241 NA
HETATM   15  C10 UNL     1      26.063   1.085  51.827  1.00  0.00     0.075 A 
HETATM   16  C11 UNL     1      26.517   2.089  51.002  1.00  0.00     0.071 A 
HETATM   17  C15 UNL     1      24.920   1.137  52.593  1.00  0.00     0.041 A 
HETATM   18  C12 UNL     1      25.787   3.256  50.915  1.00  0.00     0.098 A 
HETATM   19  C13 UNL     1      24.632   3.364  51.660  1.00  0.00     0.071 A 
HETATM   20  O3  UNL     1      26.285   4.238  50.072  1.00  0.00    -0.340 OA
HETATM   21  C14 UNL     1      24.242   2.326  52.458  1.00  0.00     0.050 A 
HETATM   22  N4  UNL     1      23.894   4.579  51.555  1.00  0.00    -0.314 N 
HETATM   23  C23 UNL     1      24.399   5.599  50.686  1.00  0.00     0.248 C 
HETATM   24  O2  UNL     1      23.839   6.734  50.643  1.00  0.00    -0.271 OA
HETATM   25  C24 UNL     1      25.577   5.417  49.798  1.00  0.00     0.279 C 
BRANCH  22  26
HETATM   26  C16 UNL     1      22.694   4.788  52.280  1.00  0.00     0.134 C 
BRANCH  26  27
HETATM   27  C17 UNL     1      21.549   3.961  51.663  1.00  0.00     0.040 C 
BRANCH  27  28
HETATM   28  C18 UNL     1      20.870   4.863  50.698  1.00  0.00     0.118 C 
BRANCH  28  29
HETATM   29  N5  UNL     1      20.672   4.406  49.380  1.00  0.00    -0.408 N 
HETATM   30  C19 UNL     1      19.888   5.340  48.637  1.00  0.00     0.143 C 
HETATM   31  C20 UNL     1      20.514   5.898  47.402  1.00  0.00     0.187 C 
HETATM   32  O1  UNL     1      21.375   5.047  46.743  1.00  0.00    -0.388 OA
HETATM   33  C21 UNL     1      22.385   4.735  47.648  1.00  0.00     0.187 C 
HETATM   34  C22 UNL     1      21.754   3.813  48.689  1.00  0.00     0.143 C 
ENDBRANCH  28  29
ENDBRANCH  27  28
ENDBRANCH  26  27
ENDBRANCH  22  26
ENDBRANCH   9  11
ENDBRANCH   7   9
TORSDOF 6
ENDMDL
