MODEL 1
REMARK VINA RESULT:      -8.1      0.000      0.000
REMARK  6 active torsions:
REMARK  status: ('A' for Active; 'I' for Inactive)
REMARK    1  A    between atoms: C2_2  and  O1_4 
REMARK    2  A    between atoms: O1_4  and  C4_5 
REMARK    3  A    between atoms: C4_5  and  C5_6 
REMARK    4  A    between atoms: C10_12  and  C11_13 
REMARK    5  A    between atoms: C14_16  and  S1_17 
REMARK    6  A    between atoms: S1_17  and  C15_19 
ROOT
HETATM    1  C5  UNL     1      20.179   0.980  50.334  1.00  0.00    -0.034 A 
HETATM    2  C6  UNL     1      19.008   0.462  50.807  1.00  0.00     0.012 A 
HETATM    3  C7  UNL     1      18.870  -0.160  52.053  1.00  0.00     0.039 A 
HETATM    4  C8  UNL     1      20.068  -0.196  52.765  1.00  0.00     0.086 A 
HETATM    5  O2  UNL     1      20.218  -0.728  53.971  1.00  0.00    -0.321 OA
HETATM    6  C9  UNL     1      21.493  -0.581  54.340  1.00  0.00     0.155 A 
HETATM    7  C10 UNL     1      22.164   0.056  53.349  1.00  0.00     0.009 A 
HETATM    8  C19 UNL     1      21.260   0.315  52.318  1.00  0.00     0.011 A 
HETATM    9  C20 UNL     1      21.347   0.913  51.096  1.00  0.00     0.024 A 
ENDROOT
BRANCH   7  10
HETATM   10  C11 UNL     1      23.564   0.397  53.378  1.00  0.00    -0.023 A 
HETATM   11  C12 UNL     1      24.057   1.664  53.058  1.00  0.00     0.014 A 
HETATM   12  C13 UNL     1      25.423   1.973  53.092  1.00  0.00     0.022 A 
HETATM   13  C14 UNL     1      26.326   0.994  53.454  1.00  0.00     0.031 A 
HETATM   14  C17 UNL     1      25.912  -0.295  53.788  1.00  0.00     0.022 A 
HETATM   15  C18 UNL     1      24.554  -0.498  53.725  1.00  0.00     0.014 A 
BRANCH  13  16
HETATM   16  S1  UNL     1      28.072   1.291  53.529  1.00  0.00     0.049 S 
HETATM   17  O3  UNL     1      28.347   2.673  54.104  1.00  0.00    -0.253 OA
BRANCH  16  18
HETATM   18  C15 UNL     1      28.901   0.036  54.526  1.00  0.00     0.109 C 
HETATM   19  C16 UNL     1      29.823  -0.749  53.614  1.00  0.00     0.019 C 
ENDBRANCH  16  18
ENDBRANCH  13  16
ENDBRANCH   7  10
BRANCH   1  20
HETATM   20  C4  UNL     1      20.325   1.657  49.002  1.00  0.00     0.207 C 
BRANCH  20  21
HETATM   21  O1  UNL     1      21.691   1.781  48.768  1.00  0.00    -0.373 OA
BRANCH  21  22
HETATM   22  C2  UNL     1      22.401   2.860  48.349  1.00  0.00     0.088 C 
HETATM   23  C1  UNL     1      22.267   3.768  47.365  1.00  0.00     0.044 C 
HETATM   24  C3  UNL     1      23.631   3.122  49.163  1.00  0.00     0.049 C 
ENDBRANCH  21  22
ENDBRANCH  20  21
ENDBRANCH   1  20
TORSDOF 6
ENDMDL
MODEL 2
REMARK VINA RESULT:      -8.1      3.448      6.655
REMARK  6 active torsions:
REMARK  status: ('A' for Active; 'I' for Inactive)
REMARK    1  A    between atoms: C2_2  and  O1_4 
REMARK    2  A    between atoms: O1_4  and  C4_5 
REMARK    3  A    between atoms: C4_5  and  C5_6 
REMARK    4  A    between atoms: C10_12  and  C11_13 
REMARK    5  A    between atoms: C14_16  and  S1_17 
REMARK    6  A    between atoms: S1_17  and  C15_19 
ROOT
HETATM    1  C5  UNL     1      25.371   0.397  53.870  1.00  0.00    -0.034 A 
HETATM    2  C6  UNL     1      24.264  -0.386  54.025  1.00  0.00     0.012 A 
HETATM    3  C7  UNL     1      23.131  -0.320  53.205  1.00  0.00     0.039 A 
HETATM    4  C8  UNL     1      23.256   0.643  52.204  1.00  0.00     0.086 A 
HETATM    5  O2  UNL     1      22.331   0.912  51.292  1.00  0.00    -0.321 OA
HETATM    6  C9  UNL     1      22.792   1.884  50.500  1.00  0.00     0.155 A 
HETATM    7  C10 UNL     1      24.033   2.236  50.917  1.00  0.00     0.009 A 
HETATM    8  C19 UNL     1      24.353   1.445  52.021  1.00  0.00     0.011 A 
HETATM    9  C20 UNL     1      25.435   1.344  52.845  1.00  0.00     0.024 A 
ENDROOT
BRANCH   7  10
HETATM   10  C11 UNL     1      24.857   3.251  50.311  1.00  0.00    -0.023 A 
HETATM   11  C12 UNL     1      26.144   3.010  49.822  1.00  0.00     0.014 A 
HETATM   12  C13 UNL     1      26.929   4.014  49.238  1.00  0.00     0.022 A 
HETATM   13  C14 UNL     1      26.421   5.293  49.137  1.00  0.00     0.031 A 
HETATM   14  C17 UNL     1      25.145   5.612  49.602  1.00  0.00     0.022 A 
HETATM   15  C18 UNL     1      24.455   4.561  50.157  1.00  0.00     0.014 A 
BRANCH  13  16
HETATM   16  S1  UNL     1      27.337   6.625  48.411  1.00  0.00     0.049 S 
HETATM   17  O3  UNL     1      27.267   7.859  49.300  1.00  0.00    -0.253 OA
BRANCH  16  18
HETATM   18  C15 UNL     1      29.060   6.157  48.149  1.00  0.00     0.109 C 
HETATM   19  C16 UNL     1      29.671   7.153  47.182  1.00  0.00     0.019 C 
ENDBRANCH  16  18
ENDBRANCH  13  16
ENDBRANCH   7  10
BRANCH   1  20
HETATM   20  C4  UNL     1      26.589   0.318  54.743  1.00  0.00     0.207 C 
BRANCH  20  21
HETATM   21  O1  UNL     1      27.423  -0.638  54.172  1.00  0.00    -0.373 OA
BRANCH  21  22
HETATM   22  C2  UNL     1      28.717  -0.530  53.777  1.00  0.00     0.088 C 
HETATM   23  C1  UNL     1      29.696  -1.398  53.462  1.00  0.00     0.044 C 
HETATM   24  C3  UNL     1      29.191   0.886  53.655  1.00  0.00     0.049 C 
ENDBRANCH  21  22
ENDBRANCH  20  21
ENDBRANCH   1  20
TORSDOF 6
ENDMDL
MODEL 3
REMARK VINA RESULT:      -7.7      4.264      7.176
REMARK  6 active torsions:
REMARK  status: ('A' for Active; 'I' for Inactive)
REMARK    1  A    between atoms: C2_2  and  O1_4 
REMARK    2  A    between atoms: O1_4  and  C4_5 
REMARK    3  A    between atoms: C4_5  and  C5_6 
REMARK    4  A    between atoms: C10_12  and  C11_13 
REMARK    5  A    between atoms: C14_16  and  S1_17 
REMARK    6  A    between atoms: S1_17  and  C15_19 
ROOT
HETATM    1  C5  UNL     1      25.207   1.749  52.917  1.00  0.00    -0.034 A 
HETATM    2  C6  UNL     1      24.033   1.057  52.848  1.00  0.00     0.012 A 
HETATM    3  C7  UNL     1      23.108   1.179  51.805  1.00  0.00     0.039 A 
HETATM    4  C8  UNL     1      23.518   2.094  50.836  1.00  0.00     0.086 A 
HETATM    5  O2  UNL     1      22.830   2.400  49.743  1.00  0.00    -0.321 OA
HETATM    6  C9  UNL     1      23.524   3.306  49.050  1.00  0.00     0.155 A 
HETATM    7  C10 UNL     1      24.673   3.579  49.715  1.00  0.00     0.009 A 
HETATM    8  C19 UNL     1      24.690   2.805  50.875  1.00  0.00     0.011 A 
HETATM    9  C20 UNL     1      25.562   2.653  51.913  1.00  0.00     0.024 A 
ENDROOT
BRANCH   7  10
HETATM   10  C11 UNL     1      25.685   4.507  49.280  1.00  0.00    -0.023 A 
HETATM   11  C12 UNL     1      25.451   5.871  49.088  1.00  0.00     0.014 A 
HETATM   12  C13 UNL     1      26.451   6.756  48.662  1.00  0.00     0.022 A 
HETATM   13  C14 UNL     1      27.720   6.271  48.418  1.00  0.00     0.031 A 
HETATM   14  C17 UNL     1      28.032   4.923  48.586  1.00  0.00     0.022 A 
HETATM   15  C18 UNL     1      26.986   4.137  49.007  1.00  0.00     0.014 A 
BRANCH  13  16
HETATM   16  S1  UNL     1      29.048   7.314  47.880  1.00  0.00     0.049 S 
HETATM   17  O3  UNL     1      28.862   7.692  46.417  1.00  0.00    -0.253 OA
BRANCH  16  18
HETATM   18  C15 UNL     1      29.150   8.806  48.890  1.00  0.00     0.109 C 
HETATM   19  C16 UNL     1      30.613   9.059  49.200  1.00  0.00     0.019 C 
ENDBRANCH  16  18
ENDBRANCH  13  16
ENDBRANCH   7  10
BRANCH   1  20
HETATM   20  C4  UNL     1      26.205   1.610  54.031  1.00  0.00     0.207 C 
BRANCH  20  21
HETATM   21  O1  UNL     1      26.493   0.253  54.136  1.00  0.00    -0.373 OA
BRANCH  21  22
HETATM   22  C2  UNL     1      27.430  -0.484  53.488  1.00  0.00     0.088 C 
HETATM   23  C1  UNL     1      28.776  -0.516  53.468  1.00  0.00     0.044 C 
HETATM   24  C3  UNL     1      26.852  -1.516  52.568  1.00  0.00     0.049 C 
ENDBRANCH  21  22
ENDBRANCH  20  21
ENDBRANCH   1  20
TORSDOF 6
ENDMDL
MODEL 4
REMARK VINA RESULT:      -7.6      2.986      5.505
REMARK  6 active torsions:
REMARK  status: ('A' for Active; 'I' for Inactive)
REMARK    1  A    between atoms: C2_2  and  O1_4 
REMARK    2  A    between atoms: O1_4  and  C4_5 
REMARK    3  A    between atoms: C4_5  and  C5_6 
REMARK    4  A    between atoms: C10_12  and  C11_13 
REMARK    5  A    between atoms: C14_16  and  S1_17 
REMARK    6  A    between atoms: S1_17  and  C15_19 
ROOT
HETATM    1  C5  UNL     1      21.351  -0.204  53.477  1.00  0.00    -0.034 A 
HETATM    2  C6  UNL     1      21.647  -1.159  54.406  1.00  0.00     0.012 A 
HETATM    3  C7  UNL     1      22.937  -1.425  54.878  1.00  0.00     0.039 A 
HETATM    4  C8  UNL     1      23.898  -0.602  54.290  1.00  0.00     0.086 A 
HETATM    5  O2  UNL     1      25.197  -0.644  54.557  1.00  0.00    -0.321 OA
HETATM    6  C9  UNL     1      25.808   0.282  53.813  1.00  0.00     0.155 A 
HETATM    7  C10 UNL     1      24.879   0.923  53.062  1.00  0.00     0.009 A 
HETATM    8  C19 UNL     1      23.634   0.365  53.355  1.00  0.00     0.011 A 
HETATM    9  C20 UNL     1      22.360   0.589  52.925  1.00  0.00     0.024 A 
ENDROOT
BRANCH   7  10
HETATM   10  C11 UNL     1      25.152   1.990  52.134  1.00  0.00    -0.023 A 
HETATM   11  C12 UNL     1      24.411   3.172  52.076  1.00  0.00     0.014 A 
HETATM   12  C13 UNL     1      24.694   4.197  51.162  1.00  0.00     0.022 A 
HETATM   13  C14 UNL     1      25.744   4.042  50.280  1.00  0.00     0.031 A 
HETATM   14  C17 UNL     1      26.531   2.891  50.276  1.00  0.00     0.022 A 
HETATM   15  C18 UNL     1      26.175   1.946  51.208  1.00  0.00     0.014 A 
BRANCH  13  16
HETATM   16  S1  UNL     1      26.179   5.283  49.092  1.00  0.00     0.049 S 
HETATM   17  O3  UNL     1      25.997   6.671  49.690  1.00  0.00    -0.253 OA
BRANCH  16  18
HETATM   18  C15 UNL     1      27.883   5.076  48.533  1.00  0.00     0.109 C 
HETATM   19  C16 UNL     1      28.349   6.400  47.960  1.00  0.00     0.019 C 
ENDBRANCH  16  18
ENDBRANCH  13  16
ENDBRANCH   7  10
BRANCH   1  20
HETATM   20  C4  UNL     1      19.966   0.088  52.979  1.00  0.00     0.207 C 
BRANCH  20  21
HETATM   21  O1  UNL     1      19.116  -0.805  53.625  1.00  0.00    -0.373 OA
BRANCH  21  22
HETATM   22  C2  UNL     1      18.047  -1.485  53.139  1.00  0.00     0.088 C 
HETATM   23  C1  UNL     1      17.468  -2.672  53.401  1.00  0.00     0.044 C 
HETATM   24  C3  UNL     1      17.319  -0.759  52.049  1.00  0.00     0.049 C 
ENDBRANCH  21  22
ENDBRANCH  20  21
ENDBRANCH   1  20
TORSDOF 6
ENDMDL
MODEL 5
REMARK VINA RESULT:      -7.6      2.775      5.967
REMARK  6 active torsions:
REMARK  status: ('A' for Active; 'I' for Inactive)
REMARK    1  A    between atoms: C2_2  and  O1_4 
REMARK    2  A    between atoms: O1_4  and  C4_5 
REMARK    3  A    between atoms: C4_5  and  C5_6 
REMARK    4  A    between atoms: C10_12  and  C11_13 
REMARK    5  A    between atoms: C14_16  and  S1_17 
REMARK    6  A    between atoms: S1_17  and  C15_19 
ROOT
HETATM    1  C5  UNL     1      24.150  -0.429  54.069  1.00  0.00    -0.034 A 
HETATM    2  C6  UNL     1      23.104  -1.004  54.730  1.00  0.00     0.012 A 
HETATM    3  C7  UNL     1      21.771  -0.599  54.598  1.00  0.00     0.039 A 
HETATM    4  C8  UNL     1      21.625   0.467  53.710  1.00  0.00     0.086 A 
HETATM    5  O2  UNL     1      20.471   1.044  53.401  1.00  0.00    -0.321 OA
HETATM    6  C9  UNL     1      20.712   2.022  52.525  1.00  0.00     0.155 A 
HETATM    7  C10 UNL     1      22.044   2.065  52.272  1.00  0.00     0.009 A 
HETATM    8  C19 UNL     1      22.655   1.066  53.030  1.00  0.00     0.011 A 
HETATM    9  C20 UNL     1      23.939   0.637  53.191  1.00  0.00     0.024 A 
ENDROOT
BRANCH   7  10
HETATM   10  C11 UNL     1      22.690   2.988  51.374  1.00  0.00    -0.023 A 
HETATM   11  C12 UNL     1      22.883   2.735  50.014  1.00  0.00     0.014 A 
HETATM   12  C13 UNL     1      23.516   3.647  49.159  1.00  0.00     0.022 A 
HETATM   13  C14 UNL     1      23.972   4.845  49.670  1.00  0.00     0.031 A 
HETATM   14  C17 UNL     1      23.818   5.170  51.017  1.00  0.00     0.022 A 
HETATM   15  C18 UNL     1      23.185   4.212  51.773  1.00  0.00     0.014 A 
BRANCH  13  16
HETATM   16  S1  UNL     1      24.782   6.060  48.666  1.00  0.00     0.049 S 
HETATM   17  O3  UNL     1      24.226   7.445  48.964  1.00  0.00    -0.253 OA
BRANCH  16  18
HETATM   18  C15 UNL     1      26.566   6.044  48.943  1.00  0.00     0.109 C 
HETATM   19  C16 UNL     1      27.020   4.598  48.965  1.00  0.00     0.019 C 
ENDBRANCH  16  18
ENDBRANCH  13  16
ENDBRANCH   7  10
BRANCH   1  20
HETATM   20  C4  UNL     1      25.578  -0.871  54.203  1.00  0.00     0.207 C 
BRANCH  20  21
HETATM   21  O1  UNL     1      26.288   0.224  54.688  1.00  0.00    -0.373 OA
BRANCH  21  22
HETATM   22  C2  UNL     1      27.544   0.641  54.386  1.00  0.00     0.088 C 
HETATM   23  C1  UNL     1      28.787   0.194  54.642  1.00  0.00     0.044 C 
HETATM   24  C3  UNL     1      27.579   1.900  53.574  1.00  0.00     0.049 C 
ENDBRANCH  21  22
ENDBRANCH  20  21
ENDBRANCH   1  20
TORSDOF 6
ENDMDL
MODEL 6
REMARK VINA RESULT:      -7.5      2.628      7.099
REMARK  6 active torsions:
REMARK  status: ('A' for Active; 'I' for Inactive)
REMARK    1  A    between atoms: C2_2  and  O1_4 
REMARK    2  A    between atoms: O1_4  and  C4_5 
REMARK    3  A    between atoms: C4_5  and  C5_6 
REMARK    4  A    between atoms: C10_12  and  C11_13 
REMARK    5  A    between atoms: C14_16  and  S1_17 
REMARK    6  A    between atoms: S1_17  and  C15_19 
ROOT
HETATM    1  C5  UNL     1      25.021  -0.212  54.223  1.00  0.00    -0.034 A 
HETATM    2  C6  UNL     1      24.834  -1.019  55.308  1.00  0.00     0.012 A 
HETATM    3  C7  UNL     1      23.598  -1.555  55.687  1.00  0.00     0.039 A 
HETATM    4  C8  UNL     1      22.567  -1.169  54.831  1.00  0.00     0.086 A 
HETATM    5  O2  UNL     1      21.298  -1.534  54.960  1.00  0.00    -0.321 OA
HETATM    6  C9  UNL     1      20.599  -0.981  53.966  1.00  0.00     0.155 A 
HETATM    7  C10 UNL     1      21.440  -0.252  53.192  1.00  0.00     0.009 A 
HETATM    8  C19 UNL     1      22.721  -0.360  53.734  1.00  0.00     0.011 A 
HETATM    9  C20 UNL     1      23.946   0.138  53.403  1.00  0.00     0.024 A 
ENDROOT
BRANCH   7  10
HETATM   10  C11 UNL     1      21.057   0.492  52.019  1.00  0.00    -0.023 A 
HETATM   11  C12 UNL     1      21.545   0.221  50.739  1.00  0.00     0.014 A 
HETATM   12  C13 UNL     1      21.160   0.960  49.612  1.00  0.00     0.022 A 
HETATM   13  C14 UNL     1      20.262   1.999  49.762  1.00  0.00     0.031 A 
HETATM   14  C17 UNL     1      19.730   2.330  51.007  1.00  0.00     0.022 A 
HETATM   15  C18 UNL     1      20.169   1.548  52.049  1.00  0.00     0.014 A 
BRANCH  13  16
HETATM   16  S1  UNL     1      19.714   2.986  48.396  1.00  0.00     0.049 S 
HETATM   17  O3  UNL     1      18.487   3.796  48.790  1.00  0.00    -0.253 OA
BRANCH  16  18
HETATM   18  C15 UNL     1      21.023   4.093  47.831  1.00  0.00     0.109 C 
HETATM   19  C16 UNL     1      21.878   3.333  46.836  1.00  0.00     0.019 C 
ENDBRANCH  16  18
ENDBRANCH  13  16
ENDBRANCH   7  10
BRANCH   1  20
HETATM   20  C4  UNL     1      26.349   0.353  53.810  1.00  0.00     0.207 C 
BRANCH  20  21
HETATM   21  O1  UNL     1      27.286  -0.656  54.006  1.00  0.00    -0.373 OA
BRANCH  21  22
HETATM   22  C2  UNL     1      28.621  -0.655  53.757  1.00  0.00     0.088 C 
HETATM   23  C1  UNL     1      29.533  -1.590  53.434  1.00  0.00     0.044 C 
HETATM   24  C3  UNL     1      29.249   0.701  53.857  1.00  0.00     0.049 C 
ENDBRANCH  21  22
ENDBRANCH  20  21
ENDBRANCH   1  20
TORSDOF 6
ENDMDL
MODEL 7
REMARK VINA RESULT:      -7.4      2.883      6.621
REMARK  6 active torsions:
REMARK  status: ('A' for Active; 'I' for Inactive)
REMARK    1  A    between atoms: C2_2  and  O1_4 
REMARK    2  A    between atoms: O1_4  and  C4_5 
REMARK    3  A    between atoms: C4_5  and  C5_6 
REMARK    4  A    between atoms: C10_12  and  C11_13 
REMARK    5  A    between atoms: C14_16  and  S1_17 
REMARK    6  A    between atoms: S1_17  and  C15_19 
ROOT
HETATM    1  C5  UNL     1      26.484   1.905  51.998  1.00  0.00    -0.034 A 
HETATM    2  C6  UNL     1      27.632   1.614  52.675  1.00  0.00     0.012 A 
HETATM    3  C7  UNL     1      27.706   0.731  53.759  1.00  0.00     0.039 A 
HETATM    4  C8  UNL     1      26.466   0.177  54.077  1.00  0.00     0.086 A 
HETATM    5  O2  UNL     1      26.252  -0.688  55.060  1.00  0.00    -0.321 OA
HETATM    6  C9  UNL     1      24.954  -1.000  55.069  1.00  0.00     0.155 A 
HETATM    7  C10 UNL     1      24.333  -0.321  54.074  1.00  0.00     0.009 A 
HETATM    8  C19 UNL     1      25.294   0.449  53.418  1.00  0.00     0.011 A 
HETATM    9  C20 UNL     1      25.271   1.316  52.366  1.00  0.00     0.024 A 
ENDROOT
BRANCH   7  10
HETATM   10  C11 UNL     1      22.928  -0.398  53.765  1.00  0.00    -0.023 A 
HETATM   11  C12 UNL     1      22.333   0.284  52.701  1.00  0.00     0.014 A 
HETATM   12  C13 UNL     1      20.962   0.195  52.420  1.00  0.00     0.022 A 
HETATM   13  C14 UNL     1      20.160  -0.593  53.221  1.00  0.00     0.031 A 
HETATM   14  C17 UNL     1      20.680  -1.304  54.301  1.00  0.00     0.022 A 
HETATM   15  C18 UNL     1      22.032  -1.153  54.494  1.00  0.00     0.014 A 
BRANCH  13  16
HETATM   16  S1  UNL     1      18.419  -0.769  52.942  1.00  0.00     0.049 S 
HETATM   17  O3  UNL     1      18.106  -0.631  51.458  1.00  0.00    -0.253 OA
BRANCH  16  18
HETATM   18  C15 UNL     1      17.823  -2.360  53.548  1.00  0.00     0.109 C 
HETATM   19  C16 UNL     1      16.500  -2.652  52.868  1.00  0.00     0.019 C 
ENDBRANCH  16  18
ENDBRANCH  13  16
ENDBRANCH   7  10
BRANCH   1  20
HETATM   20  C4  UNL     1      26.408   2.843  50.829  1.00  0.00     0.207 C 
BRANCH  20  21
HETATM   21  O1  UNL     1      25.082   2.841  50.405  1.00  0.00    -0.373 OA
BRANCH  21  22
HETATM   22  C2  UNL     1      24.279   3.884  50.077  1.00  0.00     0.088 C 
HETATM   23  C1  UNL     1      23.651   4.293  48.959  1.00  0.00     0.044 C 
HETATM   24  C3  UNL     1      24.011   4.817  51.218  1.00  0.00     0.049 C 
ENDBRANCH  21  22
ENDBRANCH  20  21
ENDBRANCH   1  20
TORSDOF 6
ENDMDL
MODEL 8
REMARK VINA RESULT:      -7.1      3.184      6.655
REMARK  6 active torsions:
REMARK  status: ('A' for Active; 'I' for Inactive)
REMARK    1  A    between atoms: C2_2  and  O1_4 
REMARK    2  A    between atoms: O1_4  and  C4_5 
REMARK    3  A    between atoms: C4_5  and  C5_6 
REMARK    4  A    between atoms: C10_12  and  C11_13 
REMARK    5  A    between atoms: C14_16  and  S1_17 
REMARK    6  A    between atoms: S1_17  and  C15_19 
ROOT
HETATM    1  C5  UNL     1      25.813   0.902  52.337  1.00  0.00    -0.034 A 
HETATM    2  C6  UNL     1      26.443   0.068  53.215  1.00  0.00     0.012 A 
HETATM    3  C7  UNL     1      25.781  -0.726  54.159  1.00  0.00     0.039 A 
HETATM    4  C8  UNL     1      24.396  -0.570  54.106  1.00  0.00     0.086 A 
HETATM    5  O2  UNL     1      23.532  -1.203  54.889  1.00  0.00    -0.321 OA
HETATM    6  C9  UNL     1      22.299  -0.811  54.557  1.00  0.00     0.155 A 
HETATM    7  C10 UNL     1      22.384   0.087  53.545  1.00  0.00     0.009 A 
HETATM    8  C19 UNL     1      23.733   0.258  53.237  1.00  0.00     0.011 A 
HETATM    9  C20 UNL     1      24.421   1.013  52.334  1.00  0.00     0.024 A 
ENDROOT
BRANCH   7  10
HETATM   10  C11 UNL     1      21.263   0.735  52.913  1.00  0.00    -0.023 A 
HETATM   11  C12 UNL     1      20.231   0.044  52.272  1.00  0.00     0.014 A 
HETATM   12  C13 UNL     1      19.151   0.695  51.663  1.00  0.00     0.022 A 
HETATM   13  C14 UNL     1      19.094   2.075  51.690  1.00  0.00     0.031 A 
HETATM   14  C17 UNL     1      20.084   2.835  52.309  1.00  0.00     0.022 A 
HETATM   15  C18 UNL     1      21.101   2.104  52.878  1.00  0.00     0.014 A 
BRANCH  13  16
HETATM   16  S1  UNL     1      17.766   2.985  50.949  1.00  0.00     0.049 S 
HETATM   17  O3  UNL     1      17.262   4.055  51.906  1.00  0.00    -0.253 OA
BRANCH  16  18
HETATM   18  C15 UNL     1      18.290   3.748  49.399  1.00  0.00     0.109 C 
HETATM   19  C16 UNL     1      18.750   5.160  49.707  1.00  0.00     0.019 C 
ENDBRANCH  16  18
ENDBRANCH  13  16
ENDBRANCH   7  10
BRANCH   1  20
HETATM   20  C4  UNL     1      26.523   1.745  51.318  1.00  0.00     0.207 C 
BRANCH  20  21
HETATM   21  O1  UNL     1      25.676   2.810  51.026  1.00  0.00    -0.373 OA
BRANCH  21  22
HETATM   22  C2  UNL     1      25.649   3.619  49.937  1.00  0.00     0.088 C 
HETATM   23  C1  UNL     1      26.560   4.343  49.261  1.00  0.00     0.044 C 
HETATM   24  C3  UNL     1      24.290   3.751  49.320  1.00  0.00     0.049 C 
ENDBRANCH  21  22
ENDBRANCH  20  21
ENDBRANCH   1  20
TORSDOF 6
ENDMDL
MODEL 9
REMARK VINA RESULT:      -7.0      4.877      8.027
REMARK  6 active torsions:
REMARK  status: ('A' for Active; 'I' for Inactive)
REMARK    1  A    between atoms: C2_2  and  O1_4 
REMARK    2  A    between atoms: O1_4  and  C4_5 
REMARK    3  A    between atoms: C4_5  and  C5_6 
REMARK    4  A    between atoms: C10_12  and  C11_13 
REMARK    5  A    between atoms: C14_16  and  S1_17 
REMARK    6  A    between atoms: S1_17  and  C15_19 
ROOT
HETATM    1  C5  UNL     1      25.822   1.741  51.373  1.00  0.00    -0.034 A 
HETATM    2  C6  UNL     1      24.478   1.560  51.531  1.00  0.00     0.012 A 
HETATM    3  C7  UNL     1      23.502   2.417  51.011  1.00  0.00     0.039 A 
HETATM    4  C8  UNL     1      24.055   3.488  50.309  1.00  0.00     0.086 A 
HETATM    5  O2  UNL     1      23.356   4.447  49.716  1.00  0.00    -0.321 OA
HETATM    6  C9  UNL     1      24.212   5.298  49.144  1.00  0.00     0.155 A 
HETATM    7  C10 UNL     1      25.477   4.870  49.379  1.00  0.00     0.009 A 
HETATM    8  C19 UNL     1      25.399   3.698  50.132  1.00  0.00     0.011 A 
HETATM    9  C20 UNL     1      26.314   2.835  50.657  1.00  0.00     0.024 A 
ENDROOT
BRANCH   7  10
HETATM   10  C11 UNL     1      26.676   5.525  48.919  1.00  0.00    -0.023 A 
HETATM   11  C12 UNL     1      27.843   4.842  48.570  1.00  0.00     0.014 A 
HETATM   12  C13 UNL     1      28.998   5.500  48.126  1.00  0.00     0.022 A 
HETATM   13  C14 UNL     1      28.993   6.877  48.029  1.00  0.00     0.031 A 
HETATM   14  C17 UNL     1      27.867   7.629  48.360  1.00  0.00     0.022 A 
HETATM   15  C18 UNL     1      26.786   6.893  48.783  1.00  0.00     0.014 A 
BRANCH  13  16
HETATM   16  S1  UNL     1      30.405   7.795  47.476  1.00  0.00     0.049 S 
HETATM   17  O3  UNL     1      31.676   6.983  47.680  1.00  0.00    -0.253 OA
BRANCH  16  18
HETATM   18  C15 UNL     1      30.241   8.250  45.737  1.00  0.00     0.109 C 
HETATM   19  C16 UNL     1      31.396   7.623  44.981  1.00  0.00     0.019 C 
ENDBRANCH  16  18
ENDBRANCH  13  16
ENDBRANCH   7  10
BRANCH   1  20
HETATM   20  C4  UNL     1      26.868   0.815  51.921  1.00  0.00     0.207 C 
BRANCH  20  21
HETATM   21  O1  UNL     1      27.162   1.265  53.205  1.00  0.00    -0.373 OA
BRANCH  21  22
HETATM   22  C2  UNL     1      27.482   0.556  54.317  1.00  0.00     0.088 C 
HETATM   23  C1  UNL     1      28.628   0.186  54.917  1.00  0.00     0.044 C 
HETATM   24  C3  UNL     1      26.290   0.056  55.075  1.00  0.00     0.049 C 
ENDBRANCH  21  22
ENDBRANCH  20  21
ENDBRANCH   1  20
TORSDOF 6
ENDMDL
