MODEL 1
REMARK VINA RESULT:      -7.7      0.000      0.000
REMARK  6 active torsions:
REMARK  status: ('A' for Active; 'I' for Inactive)
REMARK    1  A    between atoms: C2_2  and  C3_3 
REMARK    2  A    between atoms: C5_7  and  N3_8 
REMARK    3  A    between atoms: N3_8  and  C6_9 
REMARK    4  A    between atoms: C9_12  and  O1_13 
REMARK    5  A    between atoms: O1_13  and  C10_14 
REMARK    6  A    between atoms: C10_14  and  C11_15 
ROOT
HETATM    1  C6  UNL     1      26.052   5.154  49.400  1.00  0.00     0.035 A 
HETATM    2  C7  UNL     1      26.772   3.955  49.347  1.00  0.00     0.032 A 
HETATM    3  C8  UNL     1      26.436   2.878  50.112  1.00  0.00     0.041 A 
HETATM    4  C9  UNL     1      25.378   2.890  50.984  1.00  0.00     0.090 A 
HETATM    5  C17 UNL     1      24.632   4.065  51.071  1.00  0.00     0.069 A 
HETATM    6 CL1  UNL     1      23.250   4.188  52.164  1.00  0.00    -0.081 Cl
HETATM    7  C18 UNL     1      24.997   5.137  50.283  1.00  0.00     0.056 A 
ENDROOT
BRANCH   1   8
HETATM    8  N3  UNL     1      26.429   6.257  48.595  1.00  0.00    -0.340 N 
HETATM    9  H7  UNL     1      26.058   6.217  47.603  1.00  0.00     0.167 HD
BRANCH   8  10
HETATM   10  C5  UNL     1      27.220   7.376  48.945  1.00  0.00     0.137 A 
HETATM   11  N2  UNL     1      26.821   8.423  49.678  1.00  0.00    -0.224 NA
HETATM   12  C4  UNL     1      27.580   9.478  50.003  1.00  0.00     0.235 A 
HETATM   13  N1  UNL     1      28.852   9.519  49.574  1.00  0.00    -0.246 NA
HETATM   14  C3  UNL     1      29.340   8.511  48.832  1.00  0.00     0.045 A 
HETATM   15  C19 UNL     1      28.525   7.440  48.517  1.00  0.00     0.009 A 
HETATM   16  C20 UNL     1      29.070   6.329  47.697  1.00  0.00     0.054 C 
BRANCH  14  17
HETATM   17  C2  UNL     1      30.749   8.551  48.360  1.00  0.00     0.055 C 
HETATM   18  C1  UNL     1      31.701   8.218  49.507  1.00  0.00     0.011 C 
ENDBRANCH  14  17
ENDBRANCH   8  10
ENDBRANCH   1   8
BRANCH   4  19
HETATM   19  O1  UNL     1      24.950   1.870  51.803  1.00  0.00    -0.345 OA
BRANCH  19  20
HETATM   20  C10 UNL     1      25.305   1.631  53.125  1.00  0.00     0.210 C 
BRANCH  20  21
HETATM   21  C11 UNL     1      26.716   1.346  53.380  1.00  0.00    -0.049 A 
HETATM   22  C12 UNL     1      27.837   2.080  53.488  1.00  0.00     0.005 A 
HETATM   23  C13 UNL     1      29.023   1.279  53.757  1.00  0.00    -0.003 A 
HETATM   24  C14 UNL     1      28.572   0.036  53.808  1.00  0.00    -0.018 A 
HETATM   25  C15 UNL     1      27.106  -0.066  53.584  1.00  0.00     0.035 A 
HETATM   26  C16 UNL     1      26.769  -0.969  52.434  1.00  0.00     0.019 C 
ENDBRANCH  20  21
ENDBRANCH  19  20
ENDBRANCH   4  19
TORSDOF 6
ENDMDL
MODEL 2
REMARK VINA RESULT:      -7.7      1.451      1.874
REMARK  6 active torsions:
REMARK  status: ('A' for Active; 'I' for Inactive)
REMARK    1  A    between atoms: C2_2  and  C3_3 
REMARK    2  A    between atoms: C5_7  and  N3_8 
REMARK    3  A    between atoms: N3_8  and  C6_9 
REMARK    4  A    between atoms: C9_12  and  O1_13 
REMARK    5  A    between atoms: O1_13  and  C10_14 
REMARK    6  A    between atoms: C10_14  and  C11_15 
ROOT
HETATM    1  C6  UNL     1      26.841   5.709  48.836  1.00  0.00     0.035 A 
HETATM    2  C7  UNL     1      27.194   4.356  48.903  1.00  0.00     0.032 A 
HETATM    3  C8  UNL     1      26.474   3.460  49.636  1.00  0.00     0.041 A 
HETATM    4  C9  UNL     1      25.361   3.814  50.355  1.00  0.00     0.090 A 
HETATM    5  C17 UNL     1      24.973   5.153  50.318  1.00  0.00     0.069 A 
HETATM    6 CL1  UNL     1      23.556   5.716  51.209  1.00  0.00    -0.081 Cl
HETATM    7  C18 UNL     1      25.722   6.035  49.567  1.00  0.00     0.056 A 
ENDROOT
BRANCH   1   8
HETATM    8  N3  UNL     1      27.612   6.617  48.069  1.00  0.00    -0.340 N 
HETATM    9  H7  UNL     1      27.424   6.574  47.027  1.00  0.00     0.167 HD
BRANCH   8  10
HETATM   10  C5  UNL     1      28.578   7.550  48.514  1.00  0.00     0.137 A 
HETATM   11  N2  UNL     1      28.324   8.746  49.060  1.00  0.00    -0.224 NA
HETATM   12  C4  UNL     1      29.247   9.622  49.478  1.00  0.00     0.235 A 
HETATM   13  N1  UNL     1      30.547   9.303  49.353  1.00  0.00    -0.246 NA
HETATM   14  C3  UNL     1      30.897   8.122  48.817  1.00  0.00     0.045 A 
HETATM   15  C19 UNL     1      29.914   7.246  48.397  1.00  0.00     0.009 A 
HETATM   16  C20 UNL     1      30.307   5.943  47.806  1.00  0.00     0.054 C 
BRANCH  14  17
HETATM   17  C2  UNL     1      32.334   7.765  48.683  1.00  0.00     0.055 C 
HETATM   18  C1  UNL     1      32.994   8.624  47.606  1.00  0.00     0.011 C 
ENDBRANCH  14  17
ENDBRANCH   8  10
ENDBRANCH   1   8
BRANCH   4  19
HETATM   19  O1  UNL     1      24.563   3.000  51.126  1.00  0.00    -0.345 OA
BRANCH  19  20
HETATM   20  C10 UNL     1      24.819   2.519  52.405  1.00  0.00     0.210 C 
BRANCH  20  21
HETATM   21  C11 UNL     1      25.468   1.211  52.491  1.00  0.00    -0.049 A 
HETATM   22  C12 UNL     1      26.530   0.629  51.908  1.00  0.00     0.005 A 
HETATM   23  C13 UNL     1      26.755  -0.737  52.362  1.00  0.00    -0.003 A 
HETATM   24  C14 UNL     1      25.789  -0.952  53.239  1.00  0.00    -0.018 A 
HETATM   25  C15 UNL     1      24.889   0.217  53.421  1.00  0.00     0.035 A 
HETATM   26  C16 UNL     1      23.454  -0.122  53.143  1.00  0.00     0.019 C 
ENDBRANCH  20  21
ENDBRANCH  19  20
ENDBRANCH   4  19
TORSDOF 6
ENDMDL
MODEL 3
REMARK VINA RESULT:      -7.6      1.607      2.370
REMARK  6 active torsions:
REMARK  status: ('A' for Active; 'I' for Inactive)
REMARK    1  A    between atoms: C2_2  and  C3_3 
REMARK    2  A    between atoms: C5_7  and  N3_8 
REMARK    3  A    between atoms: N3_8  and  C6_9 
REMARK    4  A    between atoms: C9_12  and  O1_13 
REMARK    5  A    between atoms: O1_13  and  C10_14 
REMARK    6  A    between atoms: C10_14  and  C11_15 
ROOT
HETATM    1  C6  UNL     1      26.801   5.722  48.888  1.00  0.00     0.035 A 
HETATM    2  C7  UNL     1      27.160   4.370  48.946  1.00  0.00     0.032 A 
HETATM    3  C8  UNL     1      26.448   3.467  49.678  1.00  0.00     0.041 A 
HETATM    4  C9  UNL     1      25.338   3.813  50.405  1.00  0.00     0.090 A 
HETATM    5  C17 UNL     1      24.944   5.150  50.377  1.00  0.00     0.069 A 
HETATM    6 CL1  UNL     1      23.529   5.703  51.279  1.00  0.00    -0.081 Cl
HETATM    7  C18 UNL     1      25.685   6.040  49.626  1.00  0.00     0.056 A 
ENDROOT
BRANCH   1   8
HETATM    8  N3  UNL     1      27.565   6.637  48.121  1.00  0.00    -0.340 N 
HETATM    9  H7  UNL     1      27.065   7.007  47.263  1.00  0.00     0.167 HD
BRANCH   8  10
HETATM   10  C5  UNL     1      28.878   7.104  48.356  1.00  0.00     0.137 A 
HETATM   11  N2  UNL     1      30.002   6.382  48.250  1.00  0.00    -0.224 NA
HETATM   12  C4  UNL     1      31.241   6.836  48.475  1.00  0.00     0.235 A 
HETATM   13  N1  UNL     1      31.407   8.119  48.839  1.00  0.00    -0.246 NA
HETATM   14  C3  UNL     1      30.336   8.920  48.971  1.00  0.00     0.045 A 
HETATM   15  C19 UNL     1      29.073   8.413  48.729  1.00  0.00     0.009 A 
HETATM   16  C20 UNL     1      27.894   9.303  48.876  1.00  0.00     0.054 C 
BRANCH  14  17
HETATM   17  C2  UNL     1      30.516  10.341  49.368  1.00  0.00     0.055 C 
HETATM   18  C1  UNL     1      31.210  11.118  48.251  1.00  0.00     0.011 C 
ENDBRANCH  14  17
ENDBRANCH   8  10
ENDBRANCH   1   8
BRANCH   4  19
HETATM   19  O1  UNL     1      24.547   2.992  51.176  1.00  0.00    -0.345 OA
BRANCH  19  20
HETATM   20  C10 UNL     1      24.814   2.502  52.449  1.00  0.00     0.210 C 
BRANCH  20  21
HETATM   21  C11 UNL     1      25.471   1.197  52.521  1.00  0.00    -0.049 A 
HETATM   22  C12 UNL     1      26.533   0.626  51.927  1.00  0.00     0.005 A 
HETATM   23  C13 UNL     1      26.769  -0.742  52.368  1.00  0.00    -0.003 A 
HETATM   24  C14 UNL     1      25.809  -0.971  53.249  1.00  0.00    -0.018 A 
HETATM   25  C15 UNL     1      24.904   0.192  53.446  1.00  0.00     0.035 A 
HETATM   26  C16 UNL     1      23.469  -0.153  53.173  1.00  0.00     0.019 C 
ENDBRANCH  20  21
ENDBRANCH  19  20
ENDBRANCH   4  19
TORSDOF 6
ENDMDL
MODEL 4
REMARK VINA RESULT:      -7.5      2.441      3.422
REMARK  6 active torsions:
REMARK  status: ('A' for Active; 'I' for Inactive)
REMARK    1  A    between atoms: C2_2  and  C3_3 
REMARK    2  A    between atoms: C5_7  and  N3_8 
REMARK    3  A    between atoms: N3_8  and  C6_9 
REMARK    4  A    between atoms: C9_12  and  O1_13 
REMARK    5  A    between atoms: O1_13  and  C10_14 
REMARK    6  A    between atoms: C10_14  and  C11_15 
ROOT
HETATM    1  C6  UNL     1      25.993   4.492  49.326  1.00  0.00     0.035 A 
HETATM    2  C7  UNL     1      24.594   4.472  49.311  1.00  0.00     0.032 A 
HETATM    3  C8  UNL     1      23.879   3.556  50.023  1.00  0.00     0.041 A 
HETATM    4  C9  UNL     1      24.472   2.595  50.800  1.00  0.00     0.090 A 
HETATM    5  C17 UNL     1      25.866   2.576  50.844  1.00  0.00     0.069 A 
HETATM    6 CL1  UNL     1      26.730   1.377  51.813  1.00  0.00    -0.081 Cl
HETATM    7  C18 UNL     1      26.561   3.516  50.112  1.00  0.00     0.056 A 
ENDROOT
BRANCH   1   8
HETATM    8  N3  UNL     1      26.708   5.454  48.571  1.00  0.00    -0.340 N 
HETATM    9  H7  UNL     1      26.955   5.141  47.589  1.00  0.00     0.167 HD
BRANCH   8  10
HETATM   10  C5  UNL     1      27.122   6.750  48.958  1.00  0.00     0.137 A 
HETATM   11  N2  UNL     1      26.415   7.614  49.699  1.00  0.00    -0.224 NA
HETATM   12  C4  UNL     1      26.817   8.839  50.060  1.00  0.00     0.235 A 
HETATM   13  N1  UNL     1      28.026   9.269  49.663  1.00  0.00    -0.246 NA
HETATM   14  C3  UNL     1      28.807   8.469  48.916  1.00  0.00     0.045 A 
HETATM   15  C19 UNL     1      28.356   7.211  48.564  1.00  0.00     0.009 A 
HETATM   16  C20 UNL     1      29.223   6.333  47.740  1.00  0.00     0.054 C 
BRANCH  14  17
HETATM   17  C2  UNL     1      30.148   8.939  48.480  1.00  0.00     0.055 C 
HETATM   18  C1  UNL     1      30.584  10.143  49.313  1.00  0.00     0.011 C 
ENDBRANCH  14  17
ENDBRANCH   8  10
ENDBRANCH   1   8
BRANCH   4  19
HETATM   19  O1  UNL     1      23.855   1.624  51.556  1.00  0.00    -0.345 OA
BRANCH  19  20
HETATM   20  C10 UNL     1      23.159   1.787  52.748  1.00  0.00     0.210 C 
BRANCH  20  21
HETATM   21  C11 UNL     1      22.643   0.570  53.373  1.00  0.00    -0.049 A 
HETATM   22  C12 UNL     1      23.188  -0.509  53.961  1.00  0.00     0.005 A 
HETATM   23  C13 UNL     1      22.197  -1.466  54.433  1.00  0.00    -0.003 A 
HETATM   24  C14 UNL     1      21.037  -0.921  54.107  1.00  0.00    -0.018 A 
HETATM   25  C15 UNL     1      21.176   0.390  53.422  1.00  0.00     0.035 A 
HETATM   26  C16 UNL     1      20.511   0.401  52.076  1.00  0.00     0.019 C 
ENDBRANCH  20  21
ENDBRANCH  19  20
ENDBRANCH   4  19
TORSDOF 6
ENDMDL
MODEL 5
REMARK VINA RESULT:      -7.5      2.078      3.097
REMARK  6 active torsions:
REMARK  status: ('A' for Active; 'I' for Inactive)
REMARK    1  A    between atoms: C2_2  and  C3_3 
REMARK    2  A    between atoms: C5_7  and  N3_8 
REMARK    3  A    between atoms: N3_8  and  C6_9 
REMARK    4  A    between atoms: C9_12  and  O1_13 
REMARK    5  A    between atoms: O1_13  and  C10_14 
REMARK    6  A    between atoms: C10_14  and  C11_15 
ROOT
HETATM    1  C6  UNL     1      25.846   4.729  49.757  1.00  0.00     0.035 A 
HETATM    2  C7  UNL     1      26.584   3.560  49.972  1.00  0.00     0.032 A 
HETATM    3  C8  UNL     1      26.208   2.630  50.895  1.00  0.00     0.041 A 
HETATM    4  C9  UNL     1      25.088   2.771  51.674  1.00  0.00     0.090 A 
HETATM    5  C17 UNL     1      24.322   3.922  51.494  1.00  0.00     0.069 A 
HETATM    6 CL1  UNL     1      22.861   4.203  52.447  1.00  0.00    -0.081 Cl
HETATM    7  C18 UNL     1      24.730   4.844  50.552  1.00  0.00     0.056 A 
ENDROOT
BRANCH   1   8
HETATM    8  N3  UNL     1      26.266   5.678  48.792  1.00  0.00    -0.340 N 
HETATM    9  H7  UNL     1      26.077   5.392  47.790  1.00  0.00     0.167 HD
BRANCH   8  10
HETATM   10  C5  UNL     1      26.891   6.930  49.000  1.00  0.00     0.137 A 
HETATM   11  N2  UNL     1      26.341   7.995  49.600  1.00  0.00    -0.224 NA
HETATM   12  C4  UNL     1      26.943   9.176  49.791  1.00  0.00     0.235 A 
HETATM   13  N1  UNL     1      28.204   9.340  49.357  1.00  0.00    -0.246 NA
HETATM   14  C3  UNL     1      28.837   8.325  48.744  1.00  0.00     0.045 A 
HETATM   15  C19 UNL     1      28.181   7.122  48.565  1.00  0.00     0.009 A 
HETATM   16  C20 UNL     1      28.885   6.005  47.887  1.00  0.00     0.054 C 
BRANCH  14  17
HETATM   17  C2  UNL     1      30.234   8.501  48.268  1.00  0.00     0.055 C 
HETATM   18  C1  UNL     1      31.117   9.021  49.401  1.00  0.00     0.011 C 
ENDBRANCH  14  17
ENDBRANCH   8  10
ENDBRANCH   1   8
BRANCH   4  19
HETATM   19  O1  UNL     1      24.615   1.903  52.632  1.00  0.00    -0.345 OA
BRANCH  19  20
HETATM   20  C10 UNL     1      24.204   0.587  52.462  1.00  0.00     0.210 C 
BRANCH  20  21
HETATM   21  C11 UNL     1      23.104   0.132  53.311  1.00  0.00    -0.049 A 
HETATM   22  C12 UNL     1      22.959  -0.793  54.276  1.00  0.00     0.005 A 
HETATM   23  C13 UNL     1      21.609  -0.845  54.820  1.00  0.00    -0.003 A 
HETATM   24  C14 UNL     1      20.949   0.083  54.147  1.00  0.00    -0.018 A 
HETATM   25  C15 UNL     1      21.790   0.790  53.146  1.00  0.00     0.035 A 
HETATM   26  C16 UNL     1      21.224   0.693  51.759  1.00  0.00     0.019 C 
ENDBRANCH  20  21
ENDBRANCH  19  20
ENDBRANCH   4  19
TORSDOF 6
ENDMDL
MODEL 6
REMARK VINA RESULT:      -7.4      1.706      2.568
REMARK  6 active torsions:
REMARK  status: ('A' for Active; 'I' for Inactive)
REMARK    1  A    between atoms: C2_2  and  C3_3 
REMARK    2  A    between atoms: C5_7  and  N3_8 
REMARK    3  A    between atoms: N3_8  and  C6_9 
REMARK    4  A    between atoms: C9_12  and  O1_13 
REMARK    5  A    between atoms: O1_13  and  C10_14 
REMARK    6  A    between atoms: C10_14  and  C11_15 
ROOT
HETATM    1  C6  UNL     1      26.777   5.584  48.885  1.00  0.00     0.035 A 
HETATM    2  C7  UNL     1      27.172   4.244  48.969  1.00  0.00     0.032 A 
HETATM    3  C8  UNL     1      26.479   3.334  49.710  1.00  0.00     0.041 A 
HETATM    4  C9  UNL     1      25.352   3.660  50.420  1.00  0.00     0.090 A 
HETATM    5  C17 UNL     1      24.922   4.985  50.366  1.00  0.00     0.069 A 
HETATM    6 CL1  UNL     1      23.483   5.512  51.246  1.00  0.00    -0.081 Cl
HETATM    7  C18 UNL     1      25.645   5.883  49.608  1.00  0.00     0.056 A 
ENDROOT
BRANCH   1   8
HETATM    8  N3  UNL     1      27.521   6.507  48.110  1.00  0.00    -0.340 N 
HETATM    9  H7  UNL     1      27.351   6.436  47.067  1.00  0.00     0.167 HD
BRANCH   8  10
HETATM   10  C5  UNL     1      28.442   7.487  48.549  1.00  0.00     0.137 A 
HETATM   11  N2  UNL     1      28.131   8.676  49.083  1.00  0.00    -0.224 NA
HETATM   12  C4  UNL     1      29.011   9.597  49.495  1.00  0.00     0.235 A 
HETATM   13  N1  UNL     1      30.324   9.338  49.378  1.00  0.00    -0.246 NA
HETATM   14  C3  UNL     1      30.731   8.169  48.854  1.00  0.00     0.045 A 
HETATM   15  C19 UNL     1      29.791   7.245  48.440  1.00  0.00     0.009 A 
HETATM   16  C20 UNL     1      30.246   5.955  47.863  1.00  0.00     0.054 C 
BRANCH  14  17
HETATM   17  C2  UNL     1      32.183   7.877  48.729  1.00  0.00     0.055 C 
HETATM   18  C1  UNL     1      32.821   8.802  47.696  1.00  0.00     0.011 C 
ENDBRANCH  14  17
ENDBRANCH   8  10
ENDBRANCH   1   8
BRANCH   4  19
HETATM   19  O1  UNL     1      24.578   2.829  51.198  1.00  0.00    -0.345 OA
BRANCH  19  20
HETATM   20  C10 UNL     1      24.955   1.643  51.815  1.00  0.00     0.210 C 
BRANCH  20  21
HETATM   21  C11 UNL     1      23.930   0.966  52.608  1.00  0.00    -0.049 A 
HETATM   22  C12 UNL     1      22.651   1.219  52.936  1.00  0.00     0.005 A 
HETATM   23  C13 UNL     1      22.060   0.188  53.778  1.00  0.00    -0.003 A 
HETATM   24  C14 UNL     1      23.032  -0.694  53.944  1.00  0.00    -0.018 A 
HETATM   25  C15 UNL     1      24.289  -0.320  53.244  1.00  0.00     0.035 A 
HETATM   26  C16 UNL     1      25.458  -0.235  54.182  1.00  0.00     0.019 C 
ENDBRANCH  20  21
ENDBRANCH  19  20
ENDBRANCH   4  19
TORSDOF 6
ENDMDL
MODEL 7
REMARK VINA RESULT:      -7.3      3.253      7.629
REMARK  6 active torsions:
REMARK  status: ('A' for Active; 'I' for Inactive)
REMARK    1  A    between atoms: C2_2  and  C3_3 
REMARK    2  A    between atoms: C5_7  and  N3_8 
REMARK    3  A    between atoms: N3_8  and  C6_9 
REMARK    4  A    between atoms: C9_12  and  O1_13 
REMARK    5  A    between atoms: O1_13  and  C10_14 
REMARK    6  A    between atoms: C10_14  and  C11_15 
ROOT
HETATM    1  C6  UNL     1      24.947   3.162  51.907  1.00  0.00     0.035 A 
HETATM    2  C7  UNL     1      25.713   3.207  50.736  1.00  0.00     0.032 A 
HETATM    3  C8  UNL     1      25.252   3.796  49.597  1.00  0.00     0.041 A 
HETATM    4  C9  UNL     1      24.015   4.382  49.513  1.00  0.00     0.090 A 
HETATM    5  C17 UNL     1      23.217   4.360  50.656  1.00  0.00     0.069 A 
HETATM    6 CL1  UNL     1      21.606   5.086  50.656  1.00  0.00    -0.081 Cl
HETATM    7  C18 UNL     1      23.712   3.757  51.794  1.00  0.00     0.056 A 
ENDROOT
BRANCH   1   8
HETATM    8  N3  UNL     1      25.452   2.538  53.074  1.00  0.00    -0.340 N 
HETATM    9  H7  UNL     1      25.371   3.127  53.951  1.00  0.00     0.167 HD
BRANCH   8  10
HETATM   10  C5  UNL     1      26.038   1.258  53.208  1.00  0.00     0.137 A 
HETATM   11  N2  UNL     1      25.388   0.087  53.171  1.00  0.00    -0.224 NA
HETATM   12  C4  UNL     1      25.953  -1.120  53.299  1.00  0.00     0.235 A 
HETATM   13  N1  UNL     1      27.282  -1.199  53.480  1.00  0.00    -0.246 NA
HETATM   14  C3  UNL     1      28.018  -0.075  53.529  1.00  0.00     0.045 A 
HETATM   15  C19 UNL     1      27.396   1.152  53.393  1.00  0.00     0.009 A 
HETATM   16  C20 UNL     1      28.214   2.390  53.449  1.00  0.00     0.054 C 
BRANCH  14  17
HETATM   17  C2  UNL     1      29.489  -0.158  53.724  1.00  0.00     0.055 C 
HETATM   18  C1  UNL     1      29.962  -1.602  53.567  1.00  0.00     0.011 C 
ENDBRANCH  14  17
ENDBRANCH   8  10
ENDBRANCH   1   8
BRANCH   4  19
HETATM   19  O1  UNL     1      23.449   5.002  48.422  1.00  0.00    -0.345 OA
BRANCH  19  20
HETATM   20  C10 UNL     1      23.475   6.354  48.101  1.00  0.00     0.210 C 
BRANCH  20  21
HETATM   21  C11 UNL     1      24.684   7.089  48.470  1.00  0.00    -0.049 A 
HETATM   22  C12 UNL     1      25.993   6.986  48.181  1.00  0.00     0.005 A 
HETATM   23  C13 UNL     1      26.805   8.005  48.832  1.00  0.00    -0.003 A 
HETATM   24  C14 UNL     1      25.935   8.724  49.522  1.00  0.00    -0.018 A 
HETATM   25  C15 UNL     1      24.534   8.246  49.378  1.00  0.00     0.035 A 
HETATM   26  C16 UNL     1      23.910   7.912  50.702  1.00  0.00     0.019 C 
ENDBRANCH  20  21
ENDBRANCH  19  20
ENDBRANCH   4  19
TORSDOF 6
ENDMDL
MODEL 8
REMARK VINA RESULT:      -7.3      6.495      9.671
REMARK  6 active torsions:
REMARK  status: ('A' for Active; 'I' for Inactive)
REMARK    1  A    between atoms: C2_2  and  C3_3 
REMARK    2  A    between atoms: C5_7  and  N3_8 
REMARK    3  A    between atoms: N3_8  and  C6_9 
REMARK    4  A    between atoms: C9_12  and  O1_13 
REMARK    5  A    between atoms: O1_13  and  C10_14 
REMARK    6  A    between atoms: C10_14  and  C11_15 
ROOT
HETATM    1  C6  UNL     1      21.723   0.548  52.134  1.00  0.00     0.035 A 
HETATM    2  C7  UNL     1      22.405  -0.573  52.621  1.00  0.00     0.032 A 
HETATM    3  C8  UNL     1      23.621  -0.468  53.229  1.00  0.00     0.041 A 
HETATM    4  C9  UNL     1      24.260   0.732  53.404  1.00  0.00     0.090 A 
HETATM    5  C17 UNL     1      23.618   1.876  52.933  1.00  0.00     0.069 A 
HETATM    6 CL1  UNL     1      24.355   3.472  53.107  1.00  0.00    -0.081 Cl
HETATM    7  C18 UNL     1      22.388   1.737  52.323  1.00  0.00     0.056 A 
ENDROOT
BRANCH   1   8
HETATM    8  N3  UNL     1      20.462   0.406  51.503  1.00  0.00    -0.340 N 
HETATM    9  H7  UNL     1      20.421   0.798  50.520  1.00  0.00     0.167 HD
BRANCH   8  10
HETATM   10  C5  UNL     1      19.281  -0.183  52.014  1.00  0.00     0.137 A 
HETATM   11  N2  UNL     1      19.172  -0.856  53.167  1.00  0.00    -0.224 NA
HETATM   12  C4  UNL     1      18.048  -1.409  53.640  1.00  0.00     0.235 A 
HETATM   13  N1  UNL     1      16.917  -1.296  52.923  1.00  0.00    -0.246 NA
HETATM   14  C3  UNL     1      16.931  -0.636  51.752  1.00  0.00     0.045 A 
HETATM   15  C19 UNL     1      18.112  -0.080  51.298  1.00  0.00     0.009 A 
HETATM   16  C20 UNL     1      18.121   0.648  50.005  1.00  0.00     0.054 C 
BRANCH  14  17
HETATM   17  C2  UNL     1      15.681  -0.505  50.960  1.00  0.00     0.055 C 
HETATM   18  C1  UNL     1      14.836  -1.771  51.091  1.00  0.00     0.011 C 
ENDBRANCH  14  17
ENDBRANCH   8  10
ENDBRANCH   1   8
BRANCH   4  19
HETATM   19  O1  UNL     1      25.482   0.955  53.998  1.00  0.00    -0.345 OA
BRANCH  19  20
HETATM   20  C10 UNL     1      26.255   0.055  54.722  1.00  0.00     0.210 C 
BRANCH  20  21
HETATM   21  C11 UNL     1      27.615  -0.174  54.235  1.00  0.00    -0.049 A 
HETATM   22  C12 UNL     1      28.771   0.510  54.268  1.00  0.00     0.005 A 
HETATM   23  C13 UNL     1      29.869  -0.189  53.613  1.00  0.00    -0.003 A 
HETATM   24  C14 UNL     1      29.329  -1.318  53.188  1.00  0.00    -0.018 A 
HETATM   25  C15 UNL     1      27.885  -1.441  53.521  1.00  0.00     0.035 A 
HETATM   26  C16 UNL     1      27.037  -1.651  52.300  1.00  0.00     0.019 C 
ENDBRANCH  20  21
ENDBRANCH  19  20
ENDBRANCH   4  19
TORSDOF 6
ENDMDL
MODEL 9
REMARK VINA RESULT:      -7.2      2.921      8.196
REMARK  6 active torsions:
REMARK  status: ('A' for Active; 'I' for Inactive)
REMARK    1  A    between atoms: C2_2  and  C3_3 
REMARK    2  A    between atoms: C5_7  and  N3_8 
REMARK    3  A    between atoms: N3_8  and  C6_9 
REMARK    4  A    between atoms: C9_12  and  O1_13 
REMARK    5  A    between atoms: O1_13  and  C10_14 
REMARK    6  A    between atoms: C10_14  and  C11_15 
ROOT
HETATM    1  C6  UNL     1      26.531   4.707  49.340  1.00  0.00     0.035 A 
HETATM    2  C7  UNL     1      27.669   5.022  48.589  1.00  0.00     0.032 A 
HETATM    3  C8  UNL     1      28.017   6.312  48.314  1.00  0.00     0.041 A 
HETATM    4  C9  UNL     1      27.284   7.385  48.750  1.00  0.00     0.090 A 
HETATM    5  C17 UNL     1      26.141   7.119  49.501  1.00  0.00     0.069 A 
HETATM    6 CL1  UNL     1      25.124   8.429  50.110  1.00  0.00    -0.081 Cl
HETATM    7  C18 UNL     1      25.815   5.803  49.762  1.00  0.00     0.056 A 
ENDROOT
BRANCH   1   8
HETATM    8  N3  UNL     1      26.194   3.357  49.604  1.00  0.00    -0.340 N 
HETATM    9  H7  UNL     1      25.941   2.796  48.742  1.00  0.00     0.167 HD
BRANCH   8  10
HETATM   10  C5  UNL     1      26.156   2.684  50.847  1.00  0.00     0.137 A 
HETATM   11  N2  UNL     1      27.206   2.439  51.643  1.00  0.00    -0.224 NA
HETATM   12  C4  UNL     1      27.158   1.801  52.818  1.00  0.00     0.235 A 
HETATM   13  N1  UNL     1      25.973   1.355  53.268  1.00  0.00    -0.246 NA
HETATM   14  C3  UNL     1      24.863   1.556  52.537  1.00  0.00     0.045 A 
HETATM   15  C19 UNL     1      24.954   2.220  51.328  1.00  0.00     0.009 A 
HETATM   16  C20 UNL     1      23.725   2.438  50.525  1.00  0.00     0.054 C 
BRANCH  14  17
HETATM   17  C2  UNL     1      23.549   1.070  53.033  1.00  0.00     0.055 C 
HETATM   18  C1  UNL     1      23.632  -0.414  53.383  1.00  0.00     0.011 C 
ENDBRANCH  14  17
ENDBRANCH   8  10
ENDBRANCH   1   8
BRANCH   4  19
HETATM   19  O1  UNL     1      27.538   8.721  48.533  1.00  0.00    -0.345 OA
BRANCH  19  20
HETATM   20  C10 UNL     1      28.519   9.509  49.123  1.00  0.00     0.210 C 
BRANCH  20  21
HETATM   21  C11 UNL     1      29.705   9.788  48.314  1.00  0.00    -0.049 A 
HETATM   22  C12 UNL     1      29.929  10.304  47.093  1.00  0.00     0.005 A 
HETATM   23  C13 UNL     1      31.344  10.368  46.750  1.00  0.00    -0.003 A 
HETATM   24  C14 UNL     1      31.959   9.873  47.811  1.00  0.00    -0.018 A 
HETATM   25  C15 UNL     1      31.025   9.462  48.893  1.00  0.00     0.035 A 
HETATM   26  C16 UNL     1      31.192   8.019  49.268  1.00  0.00     0.019 C 
ENDBRANCH  20  21
ENDBRANCH  19  20
ENDBRANCH   4  19
TORSDOF 6
ENDMDL
