MODEL 1
REMARK VINA RESULT:      -9.4      0.000      0.000
REMARK  0 active torsions:
REMARK  status: ('A' for Active; 'I' for Inactive)
ROOT
HETATM    1  O1  UNL     1      25.450  -1.356  54.967  1.00  0.00    -0.288 OA
HETATM    2  C1  UNL     1      25.647  -0.420  54.170  1.00  0.00     0.181 C 
HETATM    3  C2  UNL     1      24.223  -0.408  54.076  1.00  0.00     0.051 C 
HETATM    4  C3  UNL     1      23.014  -0.803  54.343  1.00  0.00    -0.022 C 
HETATM    5  C4  UNL     1      21.611  -0.559  54.051  1.00  0.00     0.003 C 
HETATM    6  C5  UNL     1      21.408   0.466  53.169  1.00  0.00     0.051 C 
HETATM    7  C6  UNL     1      20.116   0.997  52.635  1.00  0.00    -0.024 C 
HETATM    8  C7  UNL     1      20.284   2.018  51.785  1.00  0.00    -0.024 C 
HETATM    9  C8  UNL     1      21.135   2.955  51.054  1.00  0.00     0.096 C 
HETATM   10  C9  UNL     1      22.575   2.789  51.358  1.00  0.00     0.095 C 
HETATM   11  F1  UNL     1      22.642   3.023  52.689  1.00  0.00    -0.211 F 
HETATM   12  C10 UNL     1      23.860   2.558  51.202  1.00  0.00     0.041 C 
HETATM   13  C11 UNL     1      25.163   2.492  51.903  1.00  0.00     0.303 C 
HETATM   14  N1  UNL     1      25.629   1.107  51.710  1.00  0.00     0.116 N 
HETATM   15  C12 UNL     1      26.905   0.930  52.371  1.00  0.00     0.380 C 
HETATM   16  N2  UNL     1      27.638   2.151  52.476  1.00  0.00    -0.245 NA
HETATM   17  C13 UNL     1      28.500   2.495  53.357  1.00  0.00     0.199 C 
HETATM   18  N3  UNL     1      29.099   1.943  54.521  1.00  0.00    -0.381 N 
HETATM   19  C14 UNL     1      29.057   0.505  54.762  1.00  0.00     0.148 C 
HETATM   20  C15 UNL     1      27.647   0.049  54.664  1.00  0.00     0.008 C 
HETATM   21  C16 UNL     1      26.766   0.237  53.667  1.00  0.00     0.043 C 
HETATM   22  H12 UNL     1      25.790   1.021  50.678  1.00  0.00     0.319 HD
HETATM   23  H15 UNL     1      29.539   2.663  55.131  1.00  0.00     0.160 HD
ENDROOT
TORSDOF 0
ENDMDL
MODEL 2
REMARK VINA RESULT:      -8.3      2.466      5.930
REMARK  0 active torsions:
REMARK  status: ('A' for Active; 'I' for Inactive)
ROOT
HETATM    1  O1  UNL     1      21.703  -0.288  52.762  1.00  0.00    -0.288 OA
HETATM    2  C1  UNL     1      22.403   0.547  52.160  1.00  0.00     0.181 C 
HETATM    3  C2  UNL     1      23.421   0.112  53.060  1.00  0.00     0.051 C 
HETATM    4  C3  UNL     1      23.922  -0.589  54.033  1.00  0.00    -0.022 C 
HETATM    5  C4  UNL     1      25.133  -0.827  54.801  1.00  0.00     0.003 C 
HETATM    6  C5  UNL     1      26.191  -0.057  54.405  1.00  0.00     0.051 C 
HETATM    7  C6  UNL     1      27.580  -0.022  54.956  1.00  0.00    -0.024 C 
HETATM    8  C7  UNL     1      28.370   0.854  54.323  1.00  0.00    -0.024 C 
HETATM    9  C8  UNL     1      28.601   1.868  53.296  1.00  0.00     0.096 C 
HETATM   10  C9  UNL     1      27.414   2.110  52.444  1.00  0.00     0.095 C 
HETATM   11  F1  UNL     1      27.185   0.903  51.877  1.00  0.00    -0.211 F 
HETATM   12  C10 UNL     1      26.410   2.721  51.856  1.00  0.00     0.041 C 
HETATM   13  C11 UNL     1      25.283   2.546  50.911  1.00  0.00     0.303 C 
HETATM   14  N1  UNL     1      24.076   2.864  51.694  1.00  0.00     0.116 N 
HETATM   15  C12 UNL     1      22.904   2.713  50.857  1.00  0.00     0.380 C 
HETATM   16  N2  UNL     1      23.193   2.913  49.472  1.00  0.00    -0.245 NA
HETATM   17  C13 UNL     1      22.603   2.418  48.451  1.00  0.00     0.199 C 
HETATM   18  N3  UNL     1      21.518   1.543  48.179  1.00  0.00    -0.381 N 
HETATM   19  C14 UNL     1      20.515   1.270  49.201  1.00  0.00     0.148 C 
HETATM   20  C15 UNL     1      21.208   0.833  50.441  1.00  0.00     0.008 C 
HETATM   21  C16 UNL     1      22.200   1.441  51.112  1.00  0.00     0.043 C 
HETATM   22  H12 UNL     1      24.171   3.881  51.929  1.00  0.00     0.319 HD
HETATM   23  H15 UNL     1      21.543   1.155  47.213  1.00  0.00     0.160 HD
ENDROOT
TORSDOF 0
ENDMDL
MODEL 3
REMARK VINA RESULT:      -8.1      2.713      6.245
REMARK  0 active torsions:
REMARK  status: ('A' for Active; 'I' for Inactive)
ROOT
HETATM    1  O1  UNL     1      21.135  -1.436  54.963  1.00  0.00    -0.288 OA
HETATM    2  C1  UNL     1      21.258  -0.551  54.096  1.00  0.00     0.181 C 
HETATM    3  C2  UNL     1      22.647  -0.662  54.403  1.00  0.00     0.051 C 
HETATM    4  C3  UNL     1      23.691  -1.130  55.021  1.00  0.00    -0.022 C 
HETATM    5  C4  UNL     1      25.138  -1.025  55.119  1.00  0.00     0.003 C 
HETATM    6  C5  UNL     1      25.677  -0.106  54.262  1.00  0.00     0.051 C 
HETATM    7  C6  UNL     1      27.112   0.275  54.082  1.00  0.00    -0.024 C 
HETATM    8  C7  UNL     1      27.289   1.214  53.145  1.00  0.00    -0.024 C 
HETATM    9  C8  UNL     1      26.772   2.128  52.129  1.00  0.00     0.096 C 
HETATM   10  C9  UNL     1      25.306   2.023  51.945  1.00  0.00     0.095 C 
HETATM   11  F1  UNL     1      25.131   0.737  51.562  1.00  0.00    -0.211 F 
HETATM   12  C10 UNL     1      24.032   2.344  51.906  1.00  0.00     0.041 C 
HETATM   13  C11 UNL     1      22.672   1.836  51.615  1.00  0.00     0.303 C 
HETATM   14  N1  UNL     1      21.929   1.989  52.878  1.00  0.00     0.116 N 
HETATM   15  C12 UNL     1      20.575   1.506  52.703  1.00  0.00     0.380 C 
HETATM   16  N2  UNL     1      20.133   1.600  51.348  1.00  0.00    -0.245 NA
HETATM   17  C13 UNL     1      19.272   0.880  50.734  1.00  0.00     0.199 C 
HETATM   18  N3  UNL     1      18.424  -0.223  51.017  1.00  0.00    -0.381 N 
HETATM   19  C14 UNL     1      18.104  -0.575  52.396  1.00  0.00     0.148 C 
HETATM   20  C15 UNL     1      19.374  -0.715  53.155  1.00  0.00     0.008 C 
HETATM   21  C16 UNL     1      20.390   0.155  53.269  1.00  0.00     0.043 C 
HETATM   22  H12 UNL     1      21.881   3.024  53.035  1.00  0.00     0.319 HD
HETATM   23  H15 UNL     1      18.089  -0.707  50.158  1.00  0.00     0.160 HD
ENDROOT
TORSDOF 0
ENDMDL
MODEL 4
REMARK VINA RESULT:      -8.1      2.889      4.756
REMARK  0 active torsions:
REMARK  status: ('A' for Active; 'I' for Inactive)
ROOT
HETATM    1  O1  UNL     1      27.011   2.165  51.198  1.00  0.00    -0.288 OA
HETATM    2  C1  UNL     1      25.848   2.452  50.861  1.00  0.00     0.181 C 
HETATM    3  C2  UNL     1      25.489   1.498  51.859  1.00  0.00     0.051 C 
HETATM    4  C3  UNL     1      25.708   0.618  52.791  1.00  0.00    -0.022 C 
HETATM    5  C4  UNL     1      25.055  -0.284  53.726  1.00  0.00     0.003 C 
HETATM    6  C5  UNL     1      23.690  -0.244  53.659  1.00  0.00     0.051 C 
HETATM    7  C6  UNL     1      22.692  -1.024  54.454  1.00  0.00    -0.024 C 
HETATM    8  C7  UNL     1      21.427  -0.731  54.132  1.00  0.00    -0.024 C 
HETATM    9  C8  UNL     1      20.437   0.010  53.353  1.00  0.00     0.096 C 
HETATM   10  C9  UNL     1      21.046   0.987  52.421  1.00  0.00     0.095 C 
HETATM   11  F1  UNL     1      21.725   1.820  53.244  1.00  0.00    -0.211 F 
HETATM   12  C10 UNL     1      21.382   1.602  51.309  1.00  0.00     0.041 C 
HETATM   13  C11 UNL     1      22.139   2.744  50.748  1.00  0.00     0.303 C 
HETATM   14  N1  UNL     1      23.148   2.134  49.864  1.00  0.00     0.116 N 
HETATM   15  C12 UNL     1      23.958   3.175  49.265  1.00  0.00     0.380 C 
HETATM   16  N2  UNL     1      23.260   4.417  49.161  1.00  0.00    -0.245 NA
HETATM   17  C13 UNL     1      23.735   5.605  49.161  1.00  0.00     0.199 C 
HETATM   18  N3  UNL     1      25.005   6.236  49.249  1.00  0.00    -0.381 N 
HETATM   19  C14 UNL     1      26.224   5.481  48.984  1.00  0.00     0.148 C 
HETATM   20  C15 UNL     1      26.216   4.257  49.826  1.00  0.00     0.008 C 
HETATM   21  C16 UNL     1      25.267   3.313  49.934  1.00  0.00     0.043 C 
HETATM   22  H12 UNL     1      22.593   1.682  49.098  1.00  0.00     0.319 HD
HETATM   23  H15 UNL     1      24.940   7.241  49.511  1.00  0.00     0.160 HD
ENDROOT
TORSDOF 0
ENDMDL
MODEL 5
REMARK VINA RESULT:      -8.1      3.379      5.815
REMARK  0 active torsions:
REMARK  status: ('A' for Active; 'I' for Inactive)
ROOT
HETATM    1  O1  UNL     1      27.200   3.644  49.861  1.00  0.00    -0.288 OA
HETATM    2  C1  UNL     1      25.956   3.658  49.895  1.00  0.00     0.181 C 
HETATM    3  C2  UNL     1      26.125   2.604  50.842  1.00  0.00     0.051 C 
HETATM    4  C3  UNL     1      26.795   1.765  51.574  1.00  0.00    -0.022 C 
HETATM    5  C4  UNL     1      26.660   0.695  52.549  1.00  0.00     0.003 C 
HETATM    6  C5  UNL     1      25.361   0.409  52.869  1.00  0.00     0.051 C 
HETATM    7  C6  UNL     1      24.838  -0.619  53.820  1.00  0.00    -0.024 C 
HETATM    8  C7  UNL     1      23.502  -0.625  53.897  1.00  0.00    -0.024 C 
HETATM    9  C8  UNL     1      22.190  -0.111  53.510  1.00  0.00     0.096 C 
HETATM   10  C9  UNL     1      22.269   1.022  52.558  1.00  0.00     0.095 C 
HETATM   11  F1  UNL     1      22.963   1.959  53.246  1.00  0.00    -0.211 F 
HETATM   12  C10 UNL     1      22.118   1.745  51.471  1.00  0.00     0.041 C 
HETATM   13  C11 UNL     1      22.409   3.058  50.850  1.00  0.00     0.303 C 
HETATM   14  N1  UNL     1      23.218   2.744  49.659  1.00  0.00     0.116 N 
HETATM   15  C12 UNL     1      23.569   3.973  48.976  1.00  0.00     0.380 C 
HETATM   16  N2  UNL     1      22.619   5.015  49.207  1.00  0.00    -0.245 NA
HETATM   17  C13 UNL     1      22.803   6.281  49.205  1.00  0.00     0.199 C 
HETATM   18  N3  UNL     1      23.873   7.193  49.005  1.00  0.00    -0.381 N 
HETATM   19  C14 UNL     1      25.093   6.763  48.330  1.00  0.00     0.148 C 
HETATM   20  C15 UNL     1      25.601   5.539  49.001  1.00  0.00     0.008 C 
HETATM   21  C16 UNL     1      24.955   4.392  49.265  1.00  0.00     0.043 C 
HETATM   22  H12 UNL     1      22.573   2.205  49.033  1.00  0.00     0.319 HD
HETATM   23  H15 UNL     1      23.673   8.142  49.383  1.00  0.00     0.160 HD
ENDROOT
TORSDOF 0
ENDMDL
MODEL 6
REMARK VINA RESULT:      -8.0      3.162      6.100
REMARK  0 active torsions:
REMARK  status: ('A' for Active; 'I' for Inactive)
ROOT
HETATM    1  O1  UNL     1      23.499  -0.279  53.558  1.00  0.00    -0.288 OA
HETATM    2  C1  UNL     1      22.783   0.566  52.991  1.00  0.00     0.181 C 
HETATM    3  C2  UNL     1      24.019   1.013  52.435  1.00  0.00     0.051 C 
HETATM    4  C3  UNL     1      25.305   1.002  52.244  1.00  0.00    -0.022 C 
HETATM    5  C4  UNL     1      26.388   1.665  51.536  1.00  0.00     0.003 C 
HETATM    6  C5  UNL     1      25.972   2.705  50.752  1.00  0.00     0.051 C 
HETATM    7  C6  UNL     1      26.791   3.611  49.890  1.00  0.00    -0.024 C 
HETATM    8  C7  UNL     1      26.054   4.526  49.249  1.00  0.00    -0.024 C 
HETATM    9  C8  UNL     1      24.771   5.146  48.925  1.00  0.00     0.096 C 
HETATM   10  C9  UNL     1      23.622   4.474  49.575  1.00  0.00     0.095 C 
HETATM   11  F1  UNL     1      23.680   3.214  49.084  1.00  0.00    -0.211 F 
HETATM   12  C10 UNL     1      22.563   4.271  50.326  1.00  0.00     0.041 C 
HETATM   13  C11 UNL     1      21.557   3.267  50.741  1.00  0.00     0.303 C 
HETATM   14  N1  UNL     1      21.722   3.142  52.200  1.00  0.00     0.116 N 
HETATM   15  C12 UNL     1      20.782   2.166  52.711  1.00  0.00     0.380 C 
HETATM   16  N2  UNL     1      19.615   2.053  51.895  1.00  0.00    -0.245 NA
HETATM   17  C13 UNL     1      18.849   1.043  51.727  1.00  0.00     0.199 C 
HETATM   18  N3  UNL     1      18.755  -0.299  52.185  1.00  0.00    -0.381 N 
HETATM   19  C14 UNL     1      19.463  -0.720  53.389  1.00  0.00     0.148 C 
HETATM   20  C15 UNL     1      20.893  -0.339  53.256  1.00  0.00     0.008 C 
HETATM   21  C16 UNL     1      21.423   0.862  52.970  1.00  0.00     0.043 C 
HETATM   22  H12 UNL     1      21.447   4.080  52.580  1.00  0.00     0.319 HD
HETATM   23  H15 UNL     1      18.151  -0.892  51.579  1.00  0.00     0.160 HD
ENDROOT
TORSDOF 0
ENDMDL
MODEL 7
REMARK VINA RESULT:      -7.8      4.569      7.020
REMARK  0 active torsions:
REMARK  status: ('A' for Active; 'I' for Inactive)
ROOT
HETATM    1  O1  UNL     1      25.813   2.200  50.971  1.00  0.00    -0.288 OA
HETATM    2  C1  UNL     1      25.020   3.137  51.174  1.00  0.00     0.181 C 
HETATM    3  C2  UNL     1      25.870   3.846  50.274  1.00  0.00     0.051 C 
HETATM    4  C3  UNL     1      26.885   4.002  49.477  1.00  0.00    -0.022 C 
HETATM    5  C4  UNL     1      27.555   4.957  48.609  1.00  0.00     0.003 C 
HETATM    6  C5  UNL     1      26.938   6.176  48.559  1.00  0.00     0.051 C 
HETATM    7  C6  UNL     1      27.334   7.392  47.785  1.00  0.00    -0.024 C 
HETATM    8  C7  UNL     1      26.495   8.420  47.965  1.00  0.00    -0.024 C 
HETATM    9  C8  UNL     1      25.304   9.016  48.565  1.00  0.00     0.096 C 
HETATM   10  C9  UNL     1      24.547   8.069  49.417  1.00  0.00     0.095 C 
HETATM   11  F1  UNL     1      24.204   7.082  48.557  1.00  0.00    -0.211 F 
HETATM   12  C10 UNL     1      23.976   7.529  50.469  1.00  0.00     0.041 C 
HETATM   13  C11 UNL     1      23.188   6.369  50.947  1.00  0.00     0.303 C 
HETATM   14  N1  UNL     1      24.029   5.736  51.979  1.00  0.00     0.116 N 
HETATM   15  C12 UNL     1      23.349   4.573  52.510  1.00  0.00     0.380 C 
HETATM   16  N2  UNL     1      21.928   4.677  52.404  1.00  0.00    -0.245 NA
HETATM   17  C13 UNL     1      21.062   3.742  52.299  1.00  0.00     0.199 C 
HETATM   18  N3  UNL     1      21.041   2.323  52.239  1.00  0.00    -0.381 N 
HETATM   19  C14 UNL     1      22.190   1.548  52.693  1.00  0.00     0.148 C 
HETATM   20  C15 UNL     1      23.406   2.058  52.009  1.00  0.00     0.008 C 
HETATM   21  C16 UNL     1      23.871   3.316  51.939  1.00  0.00     0.043 C 
HETATM   22  H12 UNL     1      24.091   6.448  52.746  1.00  0.00     0.319 HD
HETATM   23  H15 UNL     1      20.151   1.947  51.851  1.00  0.00     0.160 HD
ENDROOT
TORSDOF 0
ENDMDL
MODEL 8
REMARK VINA RESULT:      -7.8      3.252      6.028
REMARK  0 active torsions:
REMARK  status: ('A' for Active; 'I' for Inactive)
ROOT
HETATM    1  O1  UNL     1      19.555   3.823  51.953  1.00  0.00    -0.288 OA
HETATM    2  C1  UNL     1      20.789   3.959  51.864  1.00  0.00     0.181 C 
HETATM    3  C2  UNL     1      20.820   2.700  52.535  1.00  0.00     0.051 C 
HETATM    4  C3  UNL     1      20.312   1.648  53.106  1.00  0.00    -0.022 C 
HETATM    5  C4  UNL     1      20.649   0.398  53.767  1.00  0.00     0.003 C 
HETATM    6  C5  UNL     1      21.995   0.173  53.856  1.00  0.00     0.051 C 
HETATM    7  C6  UNL     1      22.709  -0.990  54.466  1.00  0.00    -0.024 C 
HETATM    8  C7  UNL     1      24.041  -0.889  54.375  1.00  0.00    -0.024 C 
HETATM    9  C8  UNL     1      25.251  -0.184  53.957  1.00  0.00     0.096 C 
HETATM   10  C9  UNL     1      24.966   1.072  53.226  1.00  0.00     0.095 C 
HETATM   11  F1  UNL     1      24.263   0.654  52.148  1.00  0.00    -0.211 F 
HETATM   12  C10 UNL     1      24.934   2.349  52.914  1.00  0.00     0.041 C 
HETATM   13  C11 UNL     1      24.457   3.330  51.912  1.00  0.00     0.303 C 
HETATM   14  N1  UNL     1      23.560   4.231  52.657  1.00  0.00     0.116 N 
HETATM   15  C12 UNL     1      23.026   5.233  51.759  1.00  0.00     0.380 C 
HETATM   16  N2  UNL     1      23.893   5.490  50.652  1.00  0.00    -0.245 NA
HETATM   17  C13 UNL     1      23.592   5.892  49.476  1.00  0.00     0.199 C 
HETATM   18  N3  UNL     1      22.426   6.244  48.746  1.00  0.00    -0.381 N 
HETATM   19  C14 UNL     1      21.188   6.571  49.444  1.00  0.00     0.148 C 
HETATM   20  C15 UNL     1      20.870   5.468  50.388  1.00  0.00     0.008 C 
HETATM   21  C16 UNL     1      21.645   4.922  51.339  1.00  0.00     0.043 C 
HETATM   22  H12 UNL     1      24.184   4.719  53.345  1.00  0.00     0.319 HD
HETATM   23  H15 UNL     1      22.575   6.235  47.715  1.00  0.00     0.160 HD
ENDROOT
TORSDOF 0
ENDMDL
MODEL 9
REMARK VINA RESULT:      -7.7      1.730      2.553
REMARK  0 active torsions:
REMARK  status: ('A' for Active; 'I' for Inactive)
ROOT
HETATM    1  O1  UNL     1      22.579  -1.362  53.529  1.00  0.00    -0.288 OA
HETATM    2  C1  UNL     1      23.039  -0.282  53.116  1.00  0.00     0.181 C 
HETATM    3  C2  UNL     1      21.673   0.007  52.819  1.00  0.00     0.051 C 
HETATM    4  C3  UNL     1      20.397  -0.232  52.761  1.00  0.00    -0.022 C 
HETATM    5  C4  UNL     1      19.118   0.331  52.357  1.00  0.00     0.003 C 
HETATM    6  C5  UNL     1      19.217   1.590  51.832  1.00  0.00     0.051 C 
HETATM    7  C6  UNL     1      18.129   2.473  51.312  1.00  0.00    -0.024 C 
HETATM    8  C7  UNL     1      18.582   3.654  50.873  1.00  0.00    -0.024 C 
HETATM    9  C8  UNL     1      19.666   4.601  50.619  1.00  0.00     0.096 C 
HETATM   10  C9  UNL     1      20.987   4.103  51.065  1.00  0.00     0.095 C 
HETATM   11  F1  UNL     1      20.819   3.917  52.394  1.00  0.00    -0.211 F 
HETATM   12  C10 UNL     1      22.241   3.707  51.037  1.00  0.00     0.041 C 
HETATM   13  C11 UNL     1      23.363   3.208  51.864  1.00  0.00     0.303 C 
HETATM   14  N1  UNL     1      23.688   1.884  51.307  1.00  0.00     0.116 N 
HETATM   15  C12 UNL     1      24.778   1.297  52.058  1.00  0.00     0.380 C 
HETATM   16  N2  UNL     1      25.618   2.284  52.660  1.00  0.00    -0.245 NA
HETATM   17  C13 UNL     1      26.324   2.195  53.723  1.00  0.00     0.199 C 
HETATM   18  N3  UNL     1      26.612   1.227  54.722  1.00  0.00    -0.381 N 
HETATM   19  C14 UNL     1      26.352  -0.187  54.477  1.00  0.00     0.148 C 
HETATM   20  C15 UNL     1      24.944  -0.339  54.027  1.00  0.00     0.008 C 
HETATM   21  C16 UNL     1      24.306   0.287  53.025  1.00  0.00     0.043 C 
HETATM   22  H12 UNL     1      24.038   2.081  50.338  1.00  0.00     0.319 HD
HETATM   23  H15 UNL     1      27.006   1.645  55.590  1.00  0.00     0.160 HD
ENDROOT
TORSDOF 0
ENDMDL
