MODEL 1
REMARK VINA RESULT:      -7.8      0.000      0.000
REMARK  3 active torsions:
REMARK  status: ('A' for Active; 'I' for Inactive)
REMARK    1  A    between atoms: C3_4  and  C4_5 
REMARK    2  A    between atoms: C8_11  and  S1_12 
REMARK    3  A    between atoms: S1_12  and  C9_13 
ROOT
HETATM    1  C4  UNL     1      24.207   0.078  53.536  1.00  0.00     0.090 A 
HETATM    2  C5  UNL     1      25.281  -0.485  54.196  1.00  0.00     0.038 A 
HETATM    3  C6  UNL     1      26.569  -0.039  53.954  1.00  0.00     0.057 A 
HETATM    4  C7  UNL     1      26.681   0.993  53.019  1.00  0.00     0.175 A 
HETATM    5  N2  UNL     1      27.812   1.590  52.617  1.00  0.00    -0.128 NA
HETATM    6  N3  UNL     1      27.463   2.506  51.728  1.00  0.00    -0.120 NA
HETATM    7  C8  UNL     1      26.107   2.479  51.574  1.00  0.00     0.217 A 
HETATM    8  N4  UNL     1      25.590   1.518  52.392  1.00  0.00    -0.187 N 
HETATM    9  N5  UNL     1      24.364   1.071  52.642  1.00  0.00    -0.163 NA
ENDROOT
BRANCH   1  10
HETATM   10  C3  UNL     1      22.873  -0.465  53.861  1.00  0.00     0.031 A 
HETATM   11  C2  UNL     1      21.668  -0.231  53.213  1.00  0.00     0.127 A 
HETATM   12  N1  UNL     1      20.703  -0.933  53.849  1.00  0.00    -0.285 N 
HETATM   13  C1  UNL     1      19.337  -0.865  53.373  1.00  0.00     0.179 C 
HETATM   14  N6  UNL     1      21.245  -1.588  54.853  1.00  0.00    -0.185 NA
HETATM   15  C13 UNL     1      22.572  -1.338  54.906  1.00  0.00     0.154 A 
ENDBRANCH   1  10
BRANCH   7  16
HETATM   16  S1  UNL     1      25.041   3.459  50.532  1.00  0.00    -0.049 SA
BRANCH  16  17
HETATM   17  C9  UNL     1      25.994   4.675  49.635  1.00  0.00     0.008 A 
HETATM   18  C10 UNL     1      26.148   5.924  49.231  1.00  0.00     0.019 A 
HETATM   19  C11 UNL     1      27.397   5.670  48.510  1.00  0.00     0.003 A 
HETATM   20  C12 UNL     1      27.252   4.397  48.914  1.00  0.00     0.019 A 
ENDBRANCH  16  17
ENDBRANCH   7  16
TORSDOF 3
ENDMDL
MODEL 2
REMARK VINA RESULT:      -7.8      3.835      4.984
REMARK  3 active torsions:
REMARK  status: ('A' for Active; 'I' for Inactive)
REMARK    1  A    between atoms: C3_4  and  C4_5 
REMARK    2  A    between atoms: C8_11  and  S1_12 
REMARK    3  A    between atoms: S1_12  and  C9_13 
ROOT
HETATM    1  C4  UNL     1      22.039  -0.119  52.769  1.00  0.00     0.090 A 
HETATM    2  C5  UNL     1      21.439  -0.723  53.856  1.00  0.00     0.038 A 
HETATM    3  C6  UNL     1      22.200  -1.174  54.921  1.00  0.00     0.057 A 
HETATM    4  C7  UNL     1      23.578  -0.971  54.803  1.00  0.00     0.175 A 
HETATM    5  N2  UNL     1      24.517  -1.316  55.694  1.00  0.00    -0.128 NA
HETATM    6  N3  UNL     1      25.679  -0.941  55.185  1.00  0.00    -0.120 NA
HETATM    7  C8  UNL     1      25.464  -0.359  53.970  1.00  0.00     0.217 A 
HETATM    8  N4  UNL     1      24.125  -0.368  53.709  1.00  0.00    -0.187 N 
HETATM    9  N5  UNL     1      23.372   0.055  52.700  1.00  0.00    -0.163 NA
ENDROOT
BRANCH   1  10
HETATM   10  C3  UNL     1      21.144   0.328  51.683  1.00  0.00     0.031 A 
HETATM   11  C2  UNL     1      19.759   0.271  51.632  1.00  0.00     0.127 A 
HETATM   12  N1  UNL     1      19.359   0.792  50.450  1.00  0.00    -0.285 N 
HETATM   13  C1  UNL     1      17.946   0.853  50.135  1.00  0.00     0.179 C 
HETATM   14  N6  UNL     1      20.420   1.168  49.769  1.00  0.00    -0.185 NA
HETATM   15  C13 UNL     1      21.541   0.907  50.478  1.00  0.00     0.154 A 
ENDBRANCH   1  10
BRANCH   7  16
HETATM   16  S1  UNL     1      26.615   0.343  52.802  1.00  0.00    -0.049 SA
BRANCH  16  17
HETATM   17  C9  UNL     1      28.295  -0.026  53.285  1.00  0.00     0.008 A 
HETATM   18  C10 UNL     1      29.468   0.396  53.722  1.00  0.00     0.019 A 
HETATM   19  C11 UNL     1      30.085  -0.932  53.725  1.00  0.00     0.003 A 
HETATM   20  C12 UNL     1      28.897  -1.374  53.280  1.00  0.00     0.019 A 
ENDBRANCH  16  17
ENDBRANCH   7  16
TORSDOF 3
ENDMDL
MODEL 3
REMARK VINA RESULT:      -7.7      2.415      4.247
REMARK  3 active torsions:
REMARK  status: ('A' for Active; 'I' for Inactive)
REMARK    1  A    between atoms: C3_4  and  C4_5 
REMARK    2  A    between atoms: C8_11  and  S1_12 
REMARK    3  A    between atoms: S1_12  and  C9_13 
ROOT
HETATM    1  C4  UNL     1      23.616   0.604  52.815  1.00  0.00     0.090 A 
HETATM    2  C5  UNL     1      23.206   1.330  51.715  1.00  0.00     0.038 A 
HETATM    3  C6  UNL     1      24.098   2.137  51.030  1.00  0.00     0.057 A 
HETATM    4  C7  UNL     1      25.402   2.151  51.532  1.00  0.00     0.175 A 
HETATM    5  N2  UNL     1      26.439   2.848  51.047  1.00  0.00    -0.128 NA
HETATM    6  N3  UNL     1      27.477   2.570  51.819  1.00  0.00    -0.120 NA
HETATM    7  C8  UNL     1      27.086   1.696  52.791  1.00  0.00     0.217 A 
HETATM    8  N4  UNL     1      25.762   1.416  52.623  1.00  0.00    -0.187 N 
HETATM    9  N5  UNL     1      24.885   0.649  53.262  1.00  0.00    -0.163 NA
ENDROOT
BRANCH   1  10
HETATM   10  C3  UNL     1      22.593  -0.228  53.479  1.00  0.00     0.031 A 
HETATM   11  C2  UNL     1      21.266  -0.410  53.117  1.00  0.00     0.127 A 
HETATM   12  N1  UNL     1      20.698  -1.254  54.008  1.00  0.00    -0.285 N 
HETATM   13  C1  UNL     1      19.303  -1.617  53.863  1.00  0.00     0.179 C 
HETATM   14  N6  UNL     1      21.601  -1.605  54.899  1.00  0.00    -0.185 NA
HETATM   15  C13 UNL     1      22.780  -1.004  54.622  1.00  0.00     0.154 A 
ENDBRANCH   1  10
BRANCH   7  16
HETATM   16  S1  UNL     1      28.013   0.951  54.120  1.00  0.00    -0.049 SA
BRANCH  16  17
HETATM   17  C9  UNL     1      28.610  -0.661  53.636  1.00  0.00     0.008 A 
HETATM   18  C10 UNL     1      29.610  -1.520  53.544  1.00  0.00     0.019 A 
HETATM   19  C11 UNL     1      28.807  -2.583  52.936  1.00  0.00     0.003 A 
HETATM   20  C12 UNL     1      27.782  -1.719  53.024  1.00  0.00     0.019 A 
ENDBRANCH  16  17
ENDBRANCH   7  16
TORSDOF 3
ENDMDL
MODEL 4
REMARK VINA RESULT:      -7.5      2.027      4.612
REMARK  3 active torsions:
REMARK  status: ('A' for Active; 'I' for Inactive)
REMARK    1  A    between atoms: C3_4  and  C4_5 
REMARK    2  A    between atoms: C8_11  and  S1_12 
REMARK    3  A    between atoms: S1_12  and  C9_13 
ROOT
HETATM    1  C4  UNL     1      25.042   0.577  53.194  1.00  0.00     0.090 A 
HETATM    2  C5  UNL     1      24.037  -0.364  53.302  1.00  0.00     0.038 A 
HETATM    3  C6  UNL     1      22.760  -0.086  52.849  1.00  0.00     0.057 A 
HETATM    4  C7  UNL     1      22.583   1.184  52.292  1.00  0.00     0.175 A 
HETATM    5  N2  UNL     1      21.447   1.686  51.787  1.00  0.00    -0.128 NA
HETATM    6  N3  UNL     1      21.725   2.911  51.372  1.00  0.00    -0.120 NA
HETATM    7  C8  UNL     1      23.041   3.174  51.619  1.00  0.00     0.217 A 
HETATM    8  N4  UNL     1      23.606   2.082  52.207  1.00  0.00    -0.187 N 
HETATM    9  N5  UNL     1      24.824   1.789  52.650  1.00  0.00    -0.163 NA
ENDROOT
BRANCH   1  10
HETATM   10  C3  UNL     1      26.371   0.189  53.706  1.00  0.00     0.031 A 
HETATM   11  C2  UNL     1      27.465  -0.278  52.991  1.00  0.00     0.127 A 
HETATM   12  N1  UNL     1      28.472  -0.509  53.864  1.00  0.00    -0.285 N 
HETATM   13  C1  UNL     1      29.742  -1.008  53.377  1.00  0.00     0.179 C 
HETATM   14  N6  UNL     1      28.061  -0.210  55.077  1.00  0.00    -0.185 NA
HETATM   15  C13 UNL     1      26.781   0.222  55.039  1.00  0.00     0.154 A 
ENDBRANCH   1  10
BRANCH   7  16
HETATM   16  S1  UNL     1      24.010   4.636  51.293  1.00  0.00    -0.049 SA
BRANCH  16  17
HETATM   17  C9  UNL     1      25.452   4.224  50.323  1.00  0.00     0.008 A 
HETATM   18  C10 UNL     1      26.388   3.350  49.996  1.00  0.00     0.019 A 
HETATM   19  C11 UNL     1      27.044   4.226  49.023  1.00  0.00     0.003 A 
HETATM   20  C12 UNL     1      26.098   5.124  49.346  1.00  0.00     0.019 A 
ENDBRANCH  16  17
ENDBRANCH   7  16
TORSDOF 3
ENDMDL
MODEL 5
REMARK VINA RESULT:      -7.4      2.756      6.306
REMARK  3 active torsions:
REMARK  status: ('A' for Active; 'I' for Inactive)
REMARK    1  A    between atoms: C3_4  and  C4_5 
REMARK    2  A    between atoms: C8_11  and  S1_12 
REMARK    3  A    between atoms: S1_12  and  C9_13 
ROOT
HETATM    1  C4  UNL     1      25.747   1.102  51.920  1.00  0.00     0.090 A 
HETATM    2  C5  UNL     1      26.270   2.317  51.521  1.00  0.00     0.038 A 
HETATM    3  C6  UNL     1      25.452   3.292  50.978  1.00  0.00     0.057 A 
HETATM    4  C7  UNL     1      24.100   2.952  50.872  1.00  0.00     0.175 A 
HETATM    5  N2  UNL     1      23.117   3.721  50.383  1.00  0.00    -0.128 NA
HETATM    6  N3  UNL     1      22.003   3.012  50.469  1.00  0.00    -0.120 NA
HETATM    7  C8  UNL     1      22.292   1.796  51.015  1.00  0.00     0.217 A 
HETATM    8  N4  UNL     1      23.629   1.739  51.280  1.00  0.00    -0.187 N 
HETATM    9  N5  UNL     1      24.436   0.820  51.798  1.00  0.00    -0.163 NA
ENDROOT
BRANCH   1  10
HETATM   10  C3  UNL     1      26.697   0.126  52.487  1.00  0.00     0.031 A 
HETATM   11  C2  UNL     1      28.007   0.338  52.894  1.00  0.00     0.127 A 
HETATM   12  N1  UNL     1      28.502  -0.835  53.350  1.00  0.00    -0.285 N 
HETATM   13  C1  UNL     1      29.864  -0.896  53.840  1.00  0.00     0.179 C 
HETATM   14  N6  UNL     1      27.570  -1.759  53.248  1.00  0.00    -0.185 NA
HETATM   15  C13 UNL     1      26.444  -1.225  52.726  1.00  0.00     0.154 A 
ENDBRANCH   1  10
BRANCH   7  16
HETATM   16  S1  UNL     1      21.230   0.411  51.386  1.00  0.00    -0.049 SA
BRANCH  16  17
HETATM   17  C9  UNL     1      21.363  -0.030  53.112  1.00  0.00     0.008 A 
HETATM   18  C10 UNL     1      21.057   0.219  54.373  1.00  0.00     0.019 A 
HETATM   19  C11 UNL     1      21.802  -0.922  54.910  1.00  0.00     0.003 A 
HETATM   20  C12 UNL     1      22.120  -1.186  53.632  1.00  0.00     0.019 A 
ENDBRANCH  16  17
ENDBRANCH   7  16
TORSDOF 3
ENDMDL
MODEL 6
REMARK VINA RESULT:      -7.3      2.720      5.304
REMARK  3 active torsions:
REMARK  status: ('A' for Active; 'I' for Inactive)
REMARK    1  A    between atoms: C3_4  and  C4_5 
REMARK    2  A    between atoms: C8_11  and  S1_12 
REMARK    3  A    between atoms: S1_12  and  C9_13 
ROOT
HETATM    1  C4  UNL     1      24.171  -0.026  53.591  1.00  0.00     0.090 A 
HETATM    2  C5  UNL     1      23.361  -0.885  54.306  1.00  0.00     0.038 A 
HETATM    3  C6  UNL     1      21.990  -0.700  54.335  1.00  0.00     0.057 A 
HETATM    4  C7  UNL     1      21.515   0.393  53.605  1.00  0.00     0.175 A 
HETATM    5  N2  UNL     1      20.238   0.779  53.479  1.00  0.00    -0.128 NA
HETATM    6  N3  UNL     1      20.240   1.852  52.706  1.00  0.00    -0.120 NA
HETATM    7  C8  UNL     1      21.525   2.138  52.348  1.00  0.00     0.217 A 
HETATM    8  N4  UNL     1      22.355   1.216  52.913  1.00  0.00    -0.187 N 
HETATM    9  N5  UNL     1      23.669   1.015  52.901  1.00  0.00    -0.163 NA
ENDROOT
BRANCH   1  10
HETATM   10  C3  UNL     1      25.621  -0.305  53.619  1.00  0.00     0.031 A 
HETATM   11  C2  UNL     1      26.614   0.374  54.311  1.00  0.00     0.127 A 
HETATM   12  N1  UNL     1      27.797  -0.225  54.048  1.00  0.00    -0.285 N 
HETATM   13  C1  UNL     1      29.010   0.290  54.648  1.00  0.00     0.179 C 
HETATM   14  N6  UNL     1      27.589  -1.237  53.233  1.00  0.00    -0.185 NA
HETATM   15  C13 UNL     1      26.274  -1.332  52.938  1.00  0.00     0.154 A 
ENDBRANCH   1  10
BRANCH   7  16
HETATM   16  S1  UNL     1      22.179   3.448  51.327  1.00  0.00    -0.049 SA
BRANCH  16  17
HETATM   17  C9  UNL     1      22.384   2.883  49.645  1.00  0.00     0.008 A 
HETATM   18  C10 UNL     1      22.911   3.058  48.446  1.00  0.00     0.019 A 
HETATM   19  C11 UNL     1      22.315   1.850  47.870  1.00  0.00     0.003 A 
HETATM   20  C12 UNL     1      21.774   1.660  49.085  1.00  0.00     0.019 A 
ENDBRANCH  16  17
ENDBRANCH   7  16
TORSDOF 3
ENDMDL
MODEL 7
REMARK VINA RESULT:      -7.3      1.948      2.379
REMARK  3 active torsions:
REMARK  status: ('A' for Active; 'I' for Inactive)
REMARK    1  A    between atoms: C3_4  and  C4_5 
REMARK    2  A    between atoms: C8_11  and  S1_12 
REMARK    3  A    between atoms: S1_12  and  C9_13 
ROOT
HETATM    1  C4  UNL     1      24.004   0.124  53.235  1.00  0.00     0.090 A 
HETATM    2  C5  UNL     1      25.180  -0.471  53.648  1.00  0.00     0.038 A 
HETATM    3  C6  UNL     1      26.404   0.032  53.244  1.00  0.00     0.057 A 
HETATM    4  C7  UNL     1      26.348   1.154  52.413  1.00  0.00     0.175 A 
HETATM    5  N2  UNL     1      27.389   1.819  51.893  1.00  0.00    -0.128 NA
HETATM    6  N3  UNL     1      26.886   2.807  51.171  1.00  0.00    -0.120 NA
HETATM    7  C8  UNL     1      25.524   2.759  51.241  1.00  0.00     0.217 A 
HETATM    8  N4  UNL     1      25.161   1.708  52.031  1.00  0.00    -0.187 N 
HETATM    9  N5  UNL     1      23.999   1.205  52.433  1.00  0.00    -0.163 NA
ENDROOT
BRANCH   1  10
HETATM   10  C3  UNL     1      22.749  -0.485  53.718  1.00  0.00     0.031 A 
HETATM   11  C2  UNL     1      21.482  -0.402  53.159  1.00  0.00     0.127 A 
HETATM   12  N1  UNL     1      20.631  -1.113  53.933  1.00  0.00    -0.285 N 
HETATM   13  C1  UNL     1      19.230  -1.191  53.573  1.00  0.00     0.179 C 
HETATM   14  N6  UNL     1      21.302  -1.631  54.939  1.00  0.00    -0.185 NA
HETATM   15  C13 UNL     1      22.605  -1.278  54.856  1.00  0.00     0.154 A 
ENDBRANCH   1  10
BRANCH   7  16
HETATM   16  S1  UNL     1      24.288   3.806  50.493  1.00  0.00    -0.049 SA
BRANCH  16  17
HETATM   17  C9  UNL     1      23.155   2.831  49.516  1.00  0.00     0.008 A 
HETATM   18  C10 UNL     1      22.344   1.792  49.419  1.00  0.00     0.019 A 
HETATM   19  C11 UNL     1      21.959   2.063  48.032  1.00  0.00     0.003 A 
HETATM   20  C12 UNL     1      22.780   3.122  48.117  1.00  0.00     0.019 A 
ENDBRANCH  16  17
ENDBRANCH   7  16
TORSDOF 3
ENDMDL
MODEL 8
REMARK VINA RESULT:      -7.2      2.445      6.853
REMARK  3 active torsions:
REMARK  status: ('A' for Active; 'I' for Inactive)
REMARK    1  A    between atoms: C3_4  and  C4_5 
REMARK    2  A    between atoms: C8_11  and  S1_12 
REMARK    3  A    between atoms: S1_12  and  C9_13 
ROOT
HETATM    1  C4  UNL     1      24.889   2.882  50.910  1.00  0.00     0.090 A 
HETATM    2  C5  UNL     1      23.650   2.519  50.421  1.00  0.00     0.038 A 
HETATM    3  C6  UNL     1      22.923   1.508  51.025  1.00  0.00     0.057 A 
HETATM    4  C7  UNL     1      23.530   0.910  52.133  1.00  0.00     0.175 A 
HETATM    5  N2  UNL     1      23.031  -0.082  52.882  1.00  0.00    -0.128 NA
HETATM    6  N3  UNL     1      23.928  -0.340  53.818  1.00  0.00    -0.120 NA
HETATM    7  C8  UNL     1      24.994   0.496  53.653  1.00  0.00     0.217 A 
HETATM    8  N4  UNL     1      24.758   1.303  52.580  1.00  0.00    -0.187 N 
HETATM    9  N5  UNL     1      25.435   2.277  51.981  1.00  0.00    -0.163 NA
ENDROOT
BRANCH   1  10
HETATM   10  C3  UNL     1      25.589   3.970  50.199  1.00  0.00     0.031 A 
HETATM   11  C2  UNL     1      26.810   3.923  49.543  1.00  0.00     0.127 A 
HETATM   12  N1  UNL     1      27.064   5.150  49.034  1.00  0.00    -0.285 N 
HETATM   13  C1  UNL     1      28.288   5.380  48.294  1.00  0.00     0.179 C 
HETATM   14  N6  UNL     1      26.066   5.952  49.338  1.00  0.00    -0.185 NA
HETATM   15  C13 UNL     1      25.135   5.281  50.052  1.00  0.00     0.154 A 
ENDBRANCH   1  10
BRANCH   7  16
HETATM   16  S1  UNL     1      26.508   0.640  54.586  1.00  0.00    -0.049 SA
BRANCH  16  17
HETATM   17  C9  UNL     1      27.789  -0.365  53.852  1.00  0.00     0.008 A 
HETATM   18  C10 UNL     1      28.133  -1.359  53.051  1.00  0.00     0.019 A 
HETATM   19  C11 UNL     1      29.572  -1.217  53.285  1.00  0.00     0.003 A 
HETATM   20  C12 UNL     1      29.236  -0.204  54.102  1.00  0.00     0.019 A 
ENDBRANCH  16  17
ENDBRANCH   7  16
TORSDOF 3
ENDMDL
MODEL 9
REMARK VINA RESULT:      -7.1      3.129      7.085
REMARK  3 active torsions:
REMARK  status: ('A' for Active; 'I' for Inactive)
REMARK    1  A    between atoms: C3_4  and  C4_5 
REMARK    2  A    between atoms: C8_11  and  S1_12 
REMARK    3  A    between atoms: S1_12  and  C9_13 
ROOT
HETATM    1  C4  UNL     1      25.098   0.824  52.729  1.00  0.00     0.090 A 
HETATM    2  C5  UNL     1      25.309   1.842  51.820  1.00  0.00     0.038 A 
HETATM    3  C6  UNL     1      24.241   2.443  51.176  1.00  0.00     0.057 A 
HETATM    4  C7  UNL     1      22.979   1.948  51.514  1.00  0.00     0.175 A 
HETATM    5  N2  UNL     1      21.800   2.362  51.031  1.00  0.00    -0.128 NA
HETATM    6  N3  UNL     1      20.869   1.627  51.617  1.00  0.00    -0.120 NA
HETATM    7  C8  UNL     1      21.471   0.749  52.471  1.00  0.00     0.217 A 
HETATM    8  N4  UNL     1      22.820   0.939  52.419  1.00  0.00    -0.187 N 
HETATM    9  N5  UNL     1      23.862   0.379  53.024  1.00  0.00    -0.163 NA
ENDROOT
BRANCH   1  10
HETATM   10  C3  UNL     1      26.298   0.245  53.364  1.00  0.00     0.031 A 
HETATM   11  C2  UNL     1      27.338  -0.450  52.765  1.00  0.00     0.127 A 
HETATM   12  N1  UNL     1      28.225  -0.795  53.725  1.00  0.00    -0.285 N 
HETATM   13  C1  UNL     1      29.417  -1.537  53.368  1.00  0.00     0.179 C 
HETATM   14  N6  UNL     1      27.791  -0.350  54.885  1.00  0.00    -0.185 NA
HETATM   15  C13 UNL     1      26.615   0.294  54.722  1.00  0.00     0.154 A 
ENDBRANCH   1  10
BRANCH   7  16
HETATM   16  S1  UNL     1      20.766  -0.493  53.540  1.00  0.00    -0.049 SA
BRANCH  16  17
HETATM   17  C9  UNL     1      19.071  -0.819  53.082  1.00  0.00     0.008 A 
HETATM   18  C10 UNL     1      18.011  -0.508  52.356  1.00  0.00     0.019 A 
HETATM   19  C11 UNL     1      17.168  -1.575  52.900  1.00  0.00     0.003 A 
HETATM   20  C12 UNL     1      18.238  -1.902  53.644  1.00  0.00     0.019 A 
ENDBRANCH  16  17
ENDBRANCH   7  16
TORSDOF 3
ENDMDL
