MODEL 1
REMARK VINA RESULT:      -8.3      0.000      0.000
REMARK  0 active torsions:
REMARK  status: ('A' for Active; 'I' for Inactive)
ROOT
HETATM    1  C1  UNL     1      24.253   3.568  51.802  1.00  0.00     0.113 C 
HETATM    2  N1  UNL     1      24.295   3.233  53.072  1.00  0.00    -0.243 NA
HETATM    3  C2  UNL     1      24.964   2.066  53.483  1.00  0.00     0.169 A 
HETATM    4  C3  UNL     1      26.111   1.738  54.165  1.00  0.00     0.073 A 
HETATM    5  C4  UNL     1      26.387   0.399  54.334  1.00  0.00     0.140 A 
HETATM    6  N2  UNL     1      25.558  -0.540  53.847  1.00  0.00    -0.075 NA
HETATM    7  C5  UNL     1      24.437  -0.210  53.182  1.00  0.00     0.724 A 
HETATM    8  N3  UNL     1      24.123   1.106  52.991  1.00  0.00    -0.043 NA
HETATM    9  N4  UNL     1      23.468  -1.080  52.613  1.00  0.00    -0.212 N 
HETATM   10  C6  UNL     1      22.281  -1.222  53.457  1.00  0.00     0.155 C 
HETATM   11  C7  UNL     1      22.663  -1.181  54.919  1.00  0.00     0.204 C 
HETATM   12  O1  UNL     1      21.543  -0.553  55.502  1.00  0.00    -0.360 OA
HETATM   13  C8  UNL     1      20.912   0.232  54.560  1.00  0.00     0.139 C 
HETATM   14  C9  UNL     1      21.320  -0.131  53.332  1.00  0.00    -0.033 C 
HETATM   15  C10 UNL     1      20.744   0.597  52.162  1.00  0.00     0.042 C 
HETATM   16  O2  UNL     1      19.345   0.673  52.240  1.00  0.00     0.000 OA
HETATM   17  C11 UNL     1      18.611   1.282  51.259  1.00  0.00    -0.018 C 
HETATM   18  C12 UNL     1      18.832   1.872  50.065  1.00  0.00     0.043 C 
HETATM   19  C13 UNL     1      17.842   2.484  49.146  1.00  0.00    -0.021 C 
HETATM   20  C14 UNL     1      18.564   2.911  48.130  1.00  0.00    -0.004 C 
HETATM   21  C15 UNL     1      19.985   2.845  47.878  1.00  0.00    -0.004 C 
HETATM   22  C16 UNL     1      21.212   2.533  48.161  1.00  0.00    -0.022 C 
HETATM   23  C17 UNL     1      22.668   2.421  47.991  1.00  0.00     0.073 C 
HETATM   24  C18 UNL     1      23.398   3.109  49.062  1.00  0.00     0.087 C 
HETATM   25  N5  UNL     1      22.881   3.996  49.862  1.00  0.00    -0.300 NA
HETATM   26  C19 UNL     1      23.745   4.582  50.871  1.00  0.00     0.194 C 
HETATM   27  H4  UNL     1      24.025  -1.287  51.759  1.00  0.00     0.178 HD
ENDROOT
TORSDOF 0
ENDMDL
MODEL 2
REMARK VINA RESULT:      -8.0      3.355      5.893
REMARK  0 active torsions:
REMARK  status: ('A' for Active; 'I' for Inactive)
ROOT
HETATM    1  C1  UNL     1      21.678   2.701  48.877  1.00  0.00     0.113 C 
HETATM    2  N1  UNL     1      22.047   1.503  49.270  1.00  0.00    -0.243 NA
HETATM    3  C2  UNL     1      21.869   1.100  50.606  1.00  0.00     0.169 A 
HETATM    4  C3  UNL     1      21.070   0.230  51.308  1.00  0.00     0.073 A 
HETATM    5  C4  UNL     1      21.247   0.168  52.673  1.00  0.00     0.140 A 
HETATM    6  N2  UNL     1      22.169   0.935  53.282  1.00  0.00    -0.075 NA
HETATM    7  C5  UNL     1      22.946   1.783  52.587  1.00  0.00     0.724 A 
HETATM    8  N3  UNL     1      22.806   1.877  51.231  1.00  0.00    -0.043 NA
HETATM    9  N4  UNL     1      23.956   2.651  53.082  1.00  0.00    -0.212 N 
HETATM   10  C6  UNL     1      25.302   2.109  52.888  1.00  0.00     0.155 C 
HETATM   11  C7  UNL     1      25.295   0.606  53.039  1.00  0.00     0.204 C 
HETATM   12  O1  UNL     1      26.290   0.210  52.122  1.00  0.00    -0.360 OA
HETATM   13  C8  UNL     1      26.414   1.164  51.134  1.00  0.00     0.139 C 
HETATM   14  C9  UNL     1      25.842   2.308  51.547  1.00  0.00    -0.033 C 
HETATM   15  C10 UNL     1      25.876   3.478  50.619  1.00  0.00     0.042 C 
HETATM   16  O2  UNL     1      27.168   3.698  50.114  1.00  0.00     0.000 OA
HETATM   17  C11 UNL     1      27.428   4.734  49.259  1.00  0.00    -0.018 C 
HETATM   18  C12 UNL     1      26.760   5.771  48.710  1.00  0.00     0.043 C 
HETATM   19  C13 UNL     1      27.273   6.802  47.776  1.00  0.00    -0.021 C 
HETATM   20  C14 UNL     1      26.231   7.577  47.547  1.00  0.00    -0.004 C 
HETATM   21  C15 UNL     1      24.875   7.518  48.040  1.00  0.00    -0.004 C 
HETATM   22  C16 UNL     1      23.901   7.015  48.733  1.00  0.00    -0.022 C 
HETATM   23  C17 UNL     1      22.545   6.877  49.284  1.00  0.00     0.073 C 
HETATM   24  C18 UNL     1      21.932   5.596  48.912  1.00  0.00     0.087 C 
HETATM   25  N5  UNL     1      22.347   4.827  47.948  1.00  0.00    -0.300 NA
HETATM   26  C19 UNL     1      21.624   3.590  47.711  1.00  0.00     0.194 C 
HETATM   27  H4  UNL     1      23.293   3.382  53.410  1.00  0.00     0.178 HD
ENDROOT
TORSDOF 0
ENDMDL
MODEL 3
REMARK VINA RESULT:      -8.0      3.545      6.857
REMARK  0 active torsions:
REMARK  status: ('A' for Active; 'I' for Inactive)
ROOT
HETATM    1  C1  UNL     1      26.610   3.969  49.763  1.00  0.00     0.113 C 
HETATM    2  N1  UNL     1      26.327   4.880  48.858  1.00  0.00    -0.243 NA
HETATM    3  C2  UNL     1      26.382   6.248  49.177  1.00  0.00     0.169 A 
HETATM    4  C3  UNL     1      27.177   7.330  48.887  1.00  0.00     0.073 A 
HETATM    5  C4  UNL     1      26.841   8.537  49.459  1.00  0.00     0.140 A 
HETATM    6  N2  UNL     1      25.773   8.639  50.269  1.00  0.00    -0.075 NA
HETATM    7  C5  UNL     1      25.000   7.575  50.548  1.00  0.00     0.724 A 
HETATM    8  N3  UNL     1      25.295   6.358  50.002  1.00  0.00    -0.043 NA
HETATM    9  N4  UNL     1      23.847   7.523  51.377  1.00  0.00    -0.212 N 
HETATM   10  C6  UNL     1      22.602   7.548  50.607  1.00  0.00     0.155 C 
HETATM   11  C7  UNL     1      22.756   8.419  49.381  1.00  0.00     0.204 C 
HETATM   12  O1  UNL     1      21.931   7.762  48.444  1.00  0.00    -0.360 OA
HETATM   13  C8  UNL     1      21.827   6.428  48.776  1.00  0.00     0.139 C 
HETATM   14  C9  UNL     1      22.215   6.255  50.051  1.00  0.00    -0.033 C 
HETATM   15  C10 UNL     1      22.168   4.872  50.613  1.00  0.00     0.042 C 
HETATM   16  O2  UNL     1      20.933   4.254  50.360  1.00  0.00     0.000 OA
HETATM   17  C11 UNL     1      20.669   2.987  50.804  1.00  0.00    -0.018 C 
HETATM   18  C12 UNL     1      21.283   2.037  51.542  1.00  0.00     0.043 C 
HETATM   19  C13 UNL     1      20.780   0.690  51.905  1.00  0.00    -0.021 C 
HETATM   20  C14 UNL     1      21.751   0.167  52.627  1.00  0.00    -0.004 C 
HETATM   21  C15 UNL     1      23.034   0.698  53.024  1.00  0.00    -0.004 C 
HETATM   22  C16 UNL     1      23.963   1.601  53.073  1.00  0.00    -0.022 C 
HETATM   23  C17 UNL     1      25.247   2.223  53.429  1.00  0.00     0.073 C 
HETATM   24  C18 UNL     1      26.038   2.563  52.241  1.00  0.00     0.087 C 
HETATM   25  N5  UNL     1      25.833   2.080  51.049  1.00  0.00    -0.300 NA
HETATM   26  C19 UNL     1      26.710   2.522  49.981  1.00  0.00     0.194 C 
HETATM   27  H4  UNL     1      24.380   7.486  52.269  1.00  0.00     0.178 HD
ENDROOT
TORSDOF 0
ENDMDL
MODEL 4
REMARK VINA RESULT:      -7.9      2.456      4.706
REMARK  0 active torsions:
REMARK  status: ('A' for Active; 'I' for Inactive)
ROOT
HETATM    1  C1  UNL     1      22.077   5.012  50.705  1.00  0.00     0.113 C 
HETATM    2  N1  UNL     1      23.185   5.407  51.290  1.00  0.00    -0.243 NA
HETATM    3  C2  UNL     1      24.426   5.263  50.645  1.00  0.00     0.169 A 
HETATM    4  C3  UNL     1      25.369   6.074  50.060  1.00  0.00     0.073 A 
HETATM    5  C4  UNL     1      26.481   5.467  49.519  1.00  0.00     0.140 A 
HETATM    6  N2  UNL     1      26.626   4.131  49.568  1.00  0.00    -0.075 NA
HETATM    7  C5  UNL     1      25.698   3.345  50.142  1.00  0.00     0.724 A 
HETATM    8  N3  UNL     1      24.580   3.904  50.692  1.00  0.00    -0.043 NA
HETATM    9  N4  UNL     1      25.709   1.930  50.273  1.00  0.00    -0.212 N 
HETATM   10  C6  UNL     1      26.126   1.495  51.607  1.00  0.00     0.155 C 
HETATM   11  C7  UNL     1      27.175   2.429  52.164  1.00  0.00     0.204 C 
HETATM   12  O1  UNL     1      26.890   2.406  53.545  1.00  0.00    -0.360 OA
HETATM   13  C8  UNL     1      25.562   2.087  53.737  1.00  0.00     0.139 C 
HETATM   14  C9  UNL     1      25.069   1.542  52.611  1.00  0.00    -0.033 C 
HETATM   15  C10 UNL     1      23.638   1.114  52.613  1.00  0.00     0.042 C 
HETATM   16  O2  UNL     1      23.334   0.336  53.741  1.00  0.00     0.000 OA
HETATM   17  C11 UNL     1      22.080  -0.178  53.932  1.00  0.00    -0.018 C 
HETATM   18  C12 UNL     1      20.902  -0.213  53.273  1.00  0.00     0.043 C 
HETATM   19  C13 UNL     1      19.634  -0.855  53.695  1.00  0.00    -0.021 C 
HETATM   20  C14 UNL     1      18.800  -0.604  52.705  1.00  0.00    -0.004 C 
HETATM   21  C15 UNL     1      18.983   0.115  51.466  1.00  0.00    -0.004 C 
HETATM   22  C16 UNL     1      19.661   0.802  50.599  1.00  0.00    -0.022 C 
HETATM   23  C17 UNL     1      19.938   1.550  49.365  1.00  0.00     0.073 C 
HETATM   24  C18 UNL     1      20.346   2.932  49.643  1.00  0.00     0.087 C 
HETATM   25  N5  UNL     1      20.158   3.548  50.774  1.00  0.00    -0.300 NA
HETATM   26  C19 UNL     1      20.624   4.919  50.883  1.00  0.00     0.194 C 
HETATM   27  H4  UNL     1      25.393   1.749  49.298  1.00  0.00     0.178 HD
ENDROOT
TORSDOF 0
ENDMDL
MODEL 5
REMARK VINA RESULT:      -7.7      3.272      6.457
REMARK  0 active torsions:
REMARK  status: ('A' for Active; 'I' for Inactive)
ROOT
HETATM    1  C1  UNL     1      20.901   4.610  47.633  1.00  0.00     0.113 C 
HETATM    2  N1  UNL     1      20.428   3.459  48.055  1.00  0.00    -0.243 NA
HETATM    3  C2  UNL     1      19.666   3.387  49.235  1.00  0.00     0.169 A 
HETATM    4  C3  UNL     1      18.357   3.166  49.589  1.00  0.00     0.073 A 
HETATM    5  C4  UNL     1      18.049   3.198  50.931  1.00  0.00     0.140 A 
HETATM    6  N2  UNL     1      19.001   3.438  51.850  1.00  0.00    -0.075 NA
HETATM    7  C5  UNL     1      20.279   3.654  51.494  1.00  0.00     0.724 A 
HETATM    8  N3  UNL     1      20.631   3.630  50.174  1.00  0.00    -0.043 NA
HETATM    9  N4  UNL     1      21.391   3.917  52.339  1.00  0.00    -0.212 N 
HETATM   10  C6  UNL     1      22.217   2.729  52.563  1.00  0.00     0.155 C 
HETATM   11  C7  UNL     1      21.357   1.488  52.617  1.00  0.00     0.204 C 
HETATM   12  O1  UNL     1      22.205   0.513  52.052  1.00  0.00    -0.360 OA
HETATM   13  C8  UNL     1      23.115   1.123  51.215  1.00  0.00     0.139 C 
HETATM   14  C9  UNL     1      23.155   2.439  51.484  1.00  0.00    -0.033 C 
HETATM   15  C10 UNL     1      24.093   3.285  50.686  1.00  0.00     0.042 C 
HETATM   16  O2  UNL     1      25.380   2.727  50.642  1.00  0.00     0.000 OA
HETATM   17  C11 UNL     1      26.401   3.350  49.978  1.00  0.00    -0.018 C 
HETATM   18  C12 UNL     1      26.599   4.502  49.302  1.00  0.00     0.043 C 
HETATM   19  C13 UNL     1      27.841   4.979  48.646  1.00  0.00    -0.021 C 
HETATM   20  C14 UNL     1      27.508   6.148  48.135  1.00  0.00    -0.004 C 
HETATM   21  C15 UNL     1      26.260   6.875  48.157  1.00  0.00    -0.004 C 
HETATM   22  C16 UNL     1      25.013   7.053  48.466  1.00  0.00    -0.022 C 
HETATM   23  C17 UNL     1      23.705   7.720  48.538  1.00  0.00     0.073 C 
HETATM   24  C18 UNL     1      22.647   6.916  47.914  1.00  0.00     0.087 C 
HETATM   25  N5  UNL     1      22.852   5.926  47.094  1.00  0.00    -0.300 NA
HETATM   26  C19 UNL     1      21.690   5.235  46.566  1.00  0.00     0.194 C 
HETATM   27  H4  UNL     1      21.162   4.922  52.476  1.00  0.00     0.178 HD
ENDROOT
TORSDOF 0
ENDMDL
MODEL 6
REMARK VINA RESULT:      -7.6     10.456     13.338
REMARK  0 active torsions:
REMARK  status: ('A' for Active; 'I' for Inactive)
ROOT
HETATM    1  C1  UNL     1      32.942  10.050  46.033  1.00  0.00     0.113 C 
HETATM    2  N1  UNL     1      31.716  10.446  45.771  1.00  0.00    -0.243 NA
HETATM    3  C2  UNL     1      30.995  11.209  46.706  1.00  0.00     0.169 A 
HETATM    4  C3  UNL     1      30.550  12.503  46.837  1.00  0.00     0.073 A 
HETATM    5  C4  UNL     1      29.856  12.822  47.984  1.00  0.00     0.140 A 
HETATM    6  N2  UNL     1      29.630  11.894  48.931  1.00  0.00    -0.075 NA
HETATM    7  C5  UNL     1      30.069  10.631  48.793  1.00  0.00     0.724 A 
HETATM    8  N3  UNL     1      30.761  10.269  47.672  1.00  0.00    -0.043 NA
HETATM    9  N4  UNL     1      29.910   9.545  49.697  1.00  0.00    -0.212 N 
HETATM   10  C6  UNL     1      28.829   8.642  49.300  1.00  0.00     0.155 C 
HETATM   11  C7  UNL     1      27.699   9.416  48.661  1.00  0.00     0.204 C 
HETATM   12  O1  UNL     1      27.213   8.500  47.706  1.00  0.00    -0.360 OA
HETATM   13  C8  UNL     1      28.220   7.628  47.349  1.00  0.00     0.139 C 
HETATM   14  C9  UNL     1      29.199   7.679  48.268  1.00  0.00    -0.033 C 
HETATM   15  C10 UNL     1      30.388   6.796  48.071  1.00  0.00     0.042 C 
HETATM   16  O2  UNL     1      30.006   5.473  47.793  1.00  0.00     0.000 OA
HETATM   17  C11 UNL     1      30.939   4.492  47.597  1.00  0.00    -0.018 C 
HETATM   18  C12 UNL     1      32.284   4.368  47.632  1.00  0.00     0.043 C 
HETATM   19  C13 UNL     1      33.101   3.158  47.374  1.00  0.00    -0.021 C 
HETATM   20  C14 UNL     1      34.343   3.566  47.537  1.00  0.00    -0.004 C 
HETATM   21  C15 UNL     1      34.882   4.860  47.885  1.00  0.00    -0.004 C 
HETATM   22  C16 UNL     1      34.803   6.119  48.189  1.00  0.00    -0.022 C 
HETATM   23  C17 UNL     1      35.261   7.469  48.546  1.00  0.00     0.073 C 
HETATM   24  C18 UNL     1      34.848   8.466  47.551  1.00  0.00     0.087 C 
HETATM   25  N5  UNL     1      34.448   8.189  46.343  1.00  0.00    -0.300 NA
HETATM   26  C19 UNL     1      34.075   9.298  45.484  1.00  0.00     0.194 C 
HETATM   27  H4  UNL     1      30.680   9.843  50.330  1.00  0.00     0.178 HD
ENDROOT
TORSDOF 0
ENDMDL
MODEL 7
REMARK VINA RESULT:      -7.3      3.256      6.489
REMARK  0 active torsions:
REMARK  status: ('A' for Active; 'I' for Inactive)
ROOT
HETATM    1  C1  UNL     1      22.916   2.684  52.464  1.00  0.00     0.113 C 
HETATM    2  N1  UNL     1      21.615   2.862  52.514  1.00  0.00    -0.243 NA
HETATM    3  C2  UNL     1      20.742   1.941  51.910  1.00  0.00     0.169 A 
HETATM    4  C3  UNL     1      19.839   0.983  52.306  1.00  0.00     0.073 A 
HETATM    5  C4  UNL     1      19.185   0.281  51.319  1.00  0.00     0.140 A 
HETATM    6  N2  UNL     1      19.429   0.531  50.020  1.00  0.00    -0.075 NA
HETATM    7  C5  UNL     1      20.314   1.470  49.642  1.00  0.00     0.724 A 
HETATM    8  N3  UNL     1      20.985   2.192  50.587  1.00  0.00    -0.043 NA
HETATM    9  N4  UNL     1      20.677   1.849  48.321  1.00  0.00    -0.212 N 
HETATM   10  C6  UNL     1      20.005   3.075  47.887  1.00  0.00     0.155 C 
HETATM   11  C7  UNL     1      18.608   3.145  48.460  1.00  0.00     0.204 C 
HETATM   12  O1  UNL     1      18.435   4.531  48.653  1.00  0.00    -0.360 OA
HETATM   13  C8  UNL     1      19.666   5.133  48.813  1.00  0.00     0.139 C 
HETATM   14  C9  UNL     1      20.626   4.304  48.370  1.00  0.00    -0.033 C 
HETATM   15  C10 UNL     1      22.042   4.774  48.447  1.00  0.00     0.042 C 
HETATM   16  O2  UNL     1      22.186   6.065  47.914  1.00  0.00     0.000 OA
HETATM   17  C11 UNL     1      23.407   6.681  47.867  1.00  0.00    -0.018 C 
HETATM   18  C12 UNL     1      24.689   6.385  48.171  1.00  0.00     0.043 C 
HETATM   19  C13 UNL     1      25.888   7.247  48.028  1.00  0.00    -0.021 C 
HETATM   20  C14 UNL     1      26.880   6.494  48.458  1.00  0.00    -0.004 C 
HETATM   21  C15 UNL     1      26.898   5.142  48.966  1.00  0.00    -0.004 C 
HETATM   22  C16 UNL     1      26.360   4.013  49.310  1.00  0.00    -0.022 C 
HETATM   23  C17 UNL     1      26.282   2.634  49.814  1.00  0.00     0.073 C 
HETATM   24  C18 UNL     1      25.422   2.533  50.999  1.00  0.00     0.087 C 
HETATM   25  N5  UNL     1      25.053   3.540  51.737  1.00  0.00    -0.300 NA
HETATM   26  C19 UNL     1      24.198   3.266  52.877  1.00  0.00     0.194 C 
HETATM   27  H4  UNL     1      21.323   1.048  48.173  1.00  0.00     0.178 HD
ENDROOT
TORSDOF 0
ENDMDL
MODEL 8
REMARK VINA RESULT:      -7.3      5.417      8.981
REMARK  0 active torsions:
REMARK  status: ('A' for Active; 'I' for Inactive)
ROOT
HETATM    1  C1  UNL     1      24.103   9.391  47.419  1.00  0.00     0.113 C 
HETATM    2  N1  UNL     1      23.060   8.596  47.342  1.00  0.00    -0.243 NA
HETATM    3  C2  UNL     1      22.177   8.466  48.429  1.00  0.00     0.169 A 
HETATM    4  C3  UNL     1      20.892   8.835  48.746  1.00  0.00     0.073 A 
HETATM    5  C4  UNL     1      20.420   8.484  49.992  1.00  0.00     0.140 A 
HETATM    6  N2  UNL     1      21.197   7.807  50.855  1.00  0.00    -0.075 NA
HETATM    7  C5  UNL     1      22.454   7.450  50.537  1.00  0.00     0.724 A 
HETATM    8  N3  UNL     1      22.963   7.776  49.312  1.00  0.00    -0.043 NA
HETATM    9  N4  UNL     1      23.390   6.738  51.333  1.00  0.00    -0.212 N 
HETATM   10  C6  UNL     1      23.470   5.322  50.970  1.00  0.00     0.155 C 
HETATM   11  C7  UNL     1      22.113   4.806  50.550  1.00  0.00     0.204 C 
HETATM   12  O1  UNL     1      22.449   3.853  49.566  1.00  0.00    -0.360 OA
HETATM   13  C8  UNL     1      23.667   4.178  49.006  1.00  0.00     0.139 C 
HETATM   14  C9  UNL     1      24.307   5.046  49.807  1.00  0.00    -0.033 C 
HETATM   15  C10 UNL     1      25.659   5.520  49.383  1.00  0.00     0.042 C 
HETATM   16  O2  UNL     1      26.488   4.448  49.014  1.00  0.00     0.000 OA
HETATM   17  C11 UNL     1      27.778   4.656  48.610  1.00  0.00    -0.018 C 
HETATM   18  C12 UNL     1      28.630   5.696  48.477  1.00  0.00     0.043 C 
HETATM   19  C13 UNL     1      30.035   5.676  48.001  1.00  0.00    -0.021 C 
HETATM   20  C14 UNL     1      30.415   6.937  48.063  1.00  0.00    -0.004 C 
HETATM   21  C15 UNL     1      29.706   8.125  48.480  1.00  0.00    -0.004 C 
HETATM   22  C16 UNL     1      28.679   8.781  48.922  1.00  0.00    -0.022 C 
HETATM   23  C17 UNL     1      27.881   9.934  49.364  1.00  0.00     0.073 C 
HETATM   24  C18 UNL     1      26.686  10.122  48.533  1.00  0.00     0.087 C 
HETATM   25  N5  UNL     1      26.508   9.593  47.357  1.00  0.00    -0.300 NA
HETATM   26  C19 UNL     1      25.264   9.881  46.667  1.00  0.00     0.194 C 
HETATM   27  H4  UNL     1      23.670   7.563  51.901  1.00  0.00     0.178 HD
ENDROOT
TORSDOF 0
ENDMDL
MODEL 9
REMARK VINA RESULT:      -7.0      2.411      6.679
REMARK  0 active torsions:
REMARK  status: ('A' for Active; 'I' for Inactive)
ROOT
HETATM    1  C1  UNL     1      21.383   4.084  48.501  1.00  0.00     0.113 C 
HETATM    2  N1  UNL     1      20.334   3.503  47.963  1.00  0.00    -0.243 NA
HETATM    3  C2  UNL     1      19.036   3.961  48.250  1.00  0.00     0.169 A 
HETATM    4  C3  UNL     1      18.024   4.627  47.601  1.00  0.00     0.073 A 
HETATM    5  C4  UNL     1      16.873   4.882  48.313  1.00  0.00     0.140 A 
HETATM    6  N2  UNL     1      16.756   4.489  49.594  1.00  0.00    -0.075 NA
HETATM    7  C5  UNL     1      17.751   3.837  50.221  1.00  0.00     0.724 A 
HETATM    8  N3  UNL     1      18.910   3.562  49.553  1.00  0.00    -0.043 NA
HETATM    9  N4  UNL     1      17.777   3.360  51.559  1.00  0.00    -0.212 N 
HETATM   10  C6  UNL     1      17.507   1.923  51.646  1.00  0.00     0.155 C 
HETATM   11  C7  UNL     1      16.505   1.509  50.593  1.00  0.00     0.204 C 
HETATM   12  O1  UNL     1      16.932   0.203  50.274  1.00  0.00    -0.360 OA
HETATM   13  C8  UNL     1      18.277   0.077  50.549  1.00  0.00     0.139 C 
HETATM   14  C9  UNL     1      18.661   1.077  51.361  1.00  0.00    -0.033 C 
HETATM   15  C10 UNL     1      20.092   1.118  51.788  1.00  0.00     0.042 C 
HETATM   16  O2  UNL     1      20.522  -0.131  52.265  1.00  0.00     0.000 OA
HETATM   17  C11 UNL     1      21.797  -0.312  52.727  1.00  0.00    -0.018 C 
HETATM   18  C12 UNL     1      22.902   0.437  52.936  1.00  0.00     0.043 C 
HETATM   19  C13 UNL     1      24.218   0.003  53.465  1.00  0.00    -0.021 C 
HETATM   20  C14 UNL     1      24.941   1.105  53.475  1.00  0.00    -0.004 C 
HETATM   21  C15 UNL     1      24.619   2.458  53.085  1.00  0.00    -0.004 C 
HETATM   22  C16 UNL     1      23.845   3.393  52.628  1.00  0.00    -0.022 C 
HETATM   23  C17 UNL     1      23.429   4.738  52.208  1.00  0.00     0.073 C 
HETATM   24  C18 UNL     1      23.029   4.770  50.796  1.00  0.00     0.087 C 
HETATM   25  N5  UNL     1      23.323   3.853  49.920  1.00  0.00    -0.300 NA
HETATM   26  C19 UNL     1      22.848   4.040  48.561  1.00  0.00     0.194 C 
HETATM   27  H4  UNL     1      17.994   4.286  51.980  1.00  0.00     0.178 HD
ENDROOT
TORSDOF 0
ENDMDL
