MODEL 1
REMARK VINA RESULT:      -9.2      0.000      0.000
REMARK  5 active torsions:
REMARK  status: ('A' for Active; 'I' for Inactive)
REMARK    1  A    between atoms: O1_2  and  C2_3 
REMARK    2  A    between atoms: C6_9  and  O2_10 
REMARK    3  A    between atoms: O2_10  and  C7_11 
REMARK       I    between atoms: N3_14  and  C10_15 
REMARK       I    between atoms: C10_15  and  N4_17 
REMARK    4  A    between atoms: N4_17  and  C11_18 
REMARK    5  A    between atoms: C21_30  and  O4_31 
ROOT
HETATM    1  C7  UNL     1      20.684  -0.443  53.545  1.00  0.00     0.091 C 
HETATM    2  C8  UNL     1      21.214  -1.032  54.591  1.00  0.00     0.028 C 
HETATM    3  C9  UNL     1      22.517  -0.941  54.703  1.00  0.00     0.116 C 
HETATM    4  N3  UNL     1      23.432  -0.557  53.677  1.00  0.00    -0.284 N 
HETATM    5  C10 UNL     1      24.819  -0.675  53.898  1.00  0.00     0.331 C 
HETATM    6  O3  UNL     1      25.178  -1.124  55.017  1.00  0.00    -0.246 OA
HETATM    7  N4  UNL     1      25.762  -0.305  52.906  1.00  0.00    -0.305 N 
HETATM    8  C17 UNL     1      22.841  -0.071  52.477  1.00  0.00     0.104 C 
HETATM    9  C18 UNL     1      21.514  -0.016  52.415  1.00  0.00     0.056 C 
HETATM   10  H7  UNL     1      25.484   0.067  51.979  1.00  0.00     0.171 HD
ENDROOT
BRANCH   1  11
HETATM   11  O2  UNL     1      19.300  -0.233  53.540  1.00  0.00    -0.290 OA
BRANCH  11  12
HETATM   12  C6  UNL     1      18.730   0.143  52.334  1.00  0.00     0.183 A 
HETATM   13  N2  UNL     1      19.213   1.141  51.547  1.00  0.00    -0.217 NA
HETATM   14  C5  UNL     1      18.582   1.441  50.374  1.00  0.00     0.236 A 
HETATM   15  N1  UNL     1      17.472   0.764  49.963  1.00  0.00    -0.241 NA
HETATM   16  C4  UNL     1      16.974  -0.227  50.725  1.00  0.00     0.075 A 
HETATM   17  C3  UNL     1      15.854  -0.898  50.295  1.00  0.00     0.072 A 
HETATM   18  C19 UNL     1      17.606  -0.537  51.914  1.00  0.00     0.049 A 
HETATM   19  C2  UNL     1      15.305  -1.922  51.038  1.00  0.00     0.103 A 
HETATM   20  C21 UNL     1      15.914  -2.266  52.247  1.00  0.00     0.102 A 
HETATM   21  C20 UNL     1      17.042  -1.570  52.651  1.00  0.00     0.057 A 
BRANCH  19  22
HETATM   22  O1  UNL     1      14.182  -2.675  50.717  1.00  0.00    -0.353 OA
HETATM   23  C1  UNL     1      14.052  -3.158  49.406  1.00  0.00     0.210 C 
ENDBRANCH  19  22
BRANCH  20  24
HETATM   24  O4  UNL     1      15.416  -3.293  53.056  1.00  0.00    -0.353 OA
HETATM   25  C22 UNL     1      16.317  -4.314  53.402  1.00  0.00     0.210 C 
ENDBRANCH  20  24
ENDBRANCH  11  12
ENDBRANCH   1  11
BRANCH   7  26
HETATM   26  C11 UNL     1      27.126  -0.468  53.240  1.00  0.00     0.075 A 
HETATM   27  C12 UNL     1      27.688  -1.662  52.879  1.00  0.00     0.036 A 
HETATM   28  C13 UNL     1      29.016  -1.909  53.165  1.00  0.00     0.044 A 
HETATM   29  C14 UNL     1      29.734  -0.925  53.815  1.00  0.00     0.119 A 
HETATM   30  F1  UNL     1      31.044  -1.212  54.079  1.00  0.00    -0.206 F 
HETATM   31  C15 UNL     1      29.205   0.308  54.205  1.00  0.00     0.086 A 
HETATM   32  C16 UNL     1      27.874   0.489  53.888  1.00  0.00     0.146 A 
HETATM   33  F2  UNL     1      27.273   1.669  54.233  1.00  0.00    -0.204 F 
ENDBRANCH   7  26
TORSDOF 5
ENDMDL
MODEL 2
REMARK VINA RESULT:      -9.2      2.010      2.859
REMARK  5 active torsions:
REMARK  status: ('A' for Active; 'I' for Inactive)
REMARK    1  A    between atoms: O1_2  and  C2_3 
REMARK    2  A    between atoms: C6_9  and  O2_10 
REMARK    3  A    between atoms: O2_10  and  C7_11 
REMARK       I    between atoms: N3_14  and  C10_15 
REMARK       I    between atoms: C10_15  and  N4_17 
REMARK    4  A    between atoms: N4_17  and  C11_18 
REMARK    5  A    between atoms: C21_30  and  O4_31 
ROOT
HETATM    1  C7  UNL     1      20.540  -0.280  53.510  1.00  0.00     0.091 C 
HETATM    2  C8  UNL     1      21.058  -0.905  54.541  1.00  0.00     0.028 C 
HETATM    3  C9  UNL     1      22.366  -0.886  54.628  1.00  0.00     0.116 C 
HETATM    4  N3  UNL     1      23.280  -0.545  53.586  1.00  0.00    -0.284 N 
HETATM    5  C10 UNL     1      24.663  -0.739  53.778  1.00  0.00     0.331 C 
HETATM    6  O3  UNL     1      25.019  -1.216  54.887  1.00  0.00    -0.246 OA
HETATM    7  N4  UNL     1      25.605  -0.414  52.770  1.00  0.00    -0.305 N 
HETATM    8  C17 UNL     1      22.693  -0.017  52.402  1.00  0.00     0.104 C 
HETATM    9  C18 UNL     1      21.370   0.110  52.367  1.00  0.00     0.056 C 
HETATM   10  H7  UNL     1      25.329  -0.020  51.851  1.00  0.00     0.171 HD
ENDROOT
BRANCH   1  11
HETATM   11  O2  UNL     1      19.170   0.005  53.535  1.00  0.00    -0.290 OA
BRANCH  11  12
HETATM   12  C6  UNL     1      18.306  -1.061  53.338  1.00  0.00     0.183 A 
HETATM   13  N2  UNL     1      18.465  -2.281  53.917  1.00  0.00    -0.217 NA
HETATM   14  C5  UNL     1      17.561  -3.271  53.662  1.00  0.00     0.236 A 
HETATM   15  N1  UNL     1      16.493  -3.073  52.838  1.00  0.00    -0.241 NA
HETATM   16  C4  UNL     1      16.314  -1.875  52.253  1.00  0.00     0.075 A 
HETATM   17  C3  UNL     1      15.232  -1.694  51.425  1.00  0.00     0.072 A 
HETATM   18  C19 UNL     1      17.225  -0.867  52.504  1.00  0.00     0.049 A 
HETATM   19  C2  UNL     1      15.004  -0.486  50.801  1.00  0.00     0.103 A 
HETATM   20  C21 UNL     1      15.902   0.561  51.030  1.00  0.00     0.102 A 
HETATM   21  C20 UNL     1      16.981   0.344  51.870  1.00  0.00     0.057 A 
BRANCH  19  22
HETATM   22  O1  UNL     1      13.953  -0.175  49.946  1.00  0.00    -0.353 OA
HETATM   23  C1  UNL     1      12.667  -0.034  50.488  1.00  0.00     0.210 C 
ENDBRANCH  19  22
BRANCH  20  24
HETATM   24  O4  UNL     1      15.737   1.815  50.433  1.00  0.00    -0.353 OA
HETATM   25  C22 UNL     1      15.293   2.854  51.268  1.00  0.00     0.210 C 
ENDBRANCH  20  24
ENDBRANCH  11  12
ENDBRANCH   1  11
BRANCH   7  26
HETATM   26  C11 UNL     1      26.964  -0.653  53.075  1.00  0.00     0.075 A 
HETATM   27  C12 UNL     1      27.620   0.368  53.706  1.00  0.00     0.036 A 
HETATM   28  C13 UNL     1      28.951   0.222  54.044  1.00  0.00     0.044 A 
HETATM   29  C14 UNL     1      29.576  -0.967  53.726  1.00  0.00     0.119 A 
HETATM   30  F1  UNL     1      30.892  -1.068  54.077  1.00  0.00    -0.206 F 
HETATM   31  C15 UNL     1      28.949  -2.038  53.082  1.00  0.00     0.086 A 
HETATM   32  C16 UNL     1      27.620  -1.826  52.774  1.00  0.00     0.146 A 
HETATM   33  F2  UNL     1      26.927  -2.822  52.142  1.00  0.00    -0.204 F 
ENDBRANCH   7  26
TORSDOF 5
ENDMDL
MODEL 3
REMARK VINA RESULT:      -9.1      8.295     13.439
REMARK  5 active torsions:
REMARK  status: ('A' for Active; 'I' for Inactive)
REMARK    1  A    between atoms: O1_2  and  C2_3 
REMARK    2  A    between atoms: C6_9  and  O2_10 
REMARK    3  A    between atoms: O2_10  and  C7_11 
REMARK       I    between atoms: N3_14  and  C10_15 
REMARK       I    between atoms: C10_15  and  N4_17 
REMARK    4  A    between atoms: N4_17  and  C11_18 
REMARK    5  A    between atoms: C21_30  and  O4_31 
ROOT
HETATM    1  C7  UNL     1      27.467   6.256  48.209  1.00  0.00     0.091 C 
HETATM    2  C8  UNL     1      27.984   5.127  48.633  1.00  0.00     0.028 C 
HETATM    3  C9  UNL     1      27.134   4.242  49.092  1.00  0.00     0.116 C 
HETATM    4  N3  UNL     1      25.779   4.483  49.470  1.00  0.00    -0.284 N 
HETATM    5  C10 UNL     1      25.040   3.469  50.112  1.00  0.00     0.331 C 
HETATM    6  O3  UNL     1      25.637   2.380  50.321  1.00  0.00    -0.246 OA
HETATM    7  N4  UNL     1      23.693   3.667  50.504  1.00  0.00    -0.305 N 
HETATM    8  C17 UNL     1      25.273   5.775  49.152  1.00  0.00     0.104 C 
HETATM    9  C18 UNL     1      26.090   6.630  48.543  1.00  0.00     0.056 C 
HETATM   10  H7  UNL     1      23.186   4.557  50.340  1.00  0.00     0.171 HD
ENDROOT
BRANCH   1  11
HETATM   11  O2  UNL     1      28.269   7.094  47.426  1.00  0.00    -0.290 OA
BRANCH  11  12
HETATM   12  C6  UNL     1      29.163   7.911  48.100  1.00  0.00     0.183 A 
HETATM   13  N2  UNL     1      28.792   8.977  48.858  1.00  0.00    -0.217 NA
HETATM   14  C5  UNL     1      29.746   9.725  49.485  1.00  0.00     0.236 A 
HETATM   15  N1  UNL     1      31.074   9.433  49.374  1.00  0.00    -0.241 NA
HETATM   16  C4  UNL     1      31.467   8.383  48.629  1.00  0.00     0.075 A 
HETATM   17  C3  UNL     1      32.809   8.105  48.529  1.00  0.00     0.072 A 
HETATM   18  C19 UNL     1      30.508   7.621  47.991  1.00  0.00     0.049 A 
HETATM   19  C2  UNL     1      33.264   7.041  47.779  1.00  0.00     0.103 A 
HETATM   20  C21 UNL     1      32.325   6.245  47.117  1.00  0.00     0.102 A 
HETATM   21  C20 UNL     1      30.980   6.554  47.240  1.00  0.00     0.057 A 
BRANCH  19  22
HETATM   22  O1  UNL     1      34.587   6.654  47.597  1.00  0.00    -0.353 OA
HETATM   23  C1  UNL     1      35.273   6.085  48.681  1.00  0.00     0.210 C 
ENDBRANCH  19  22
BRANCH  20  24
HETATM   24  O4  UNL     1      32.709   5.149  46.337  1.00  0.00    -0.353 OA
HETATM   25  C22 UNL     1      32.433   3.876  46.864  1.00  0.00     0.210 C 
ENDBRANCH  20  24
ENDBRANCH  11  12
ENDBRANCH   1  11
BRANCH   7  26
HETATM   26  C11 UNL     1      23.054   2.578  51.141  1.00  0.00     0.075 A 
HETATM   27  C12 UNL     1      22.303   1.773  50.330  1.00  0.00     0.036 A 
HETATM   28  C13 UNL     1      21.643   0.684  50.866  1.00  0.00     0.044 A 
HETATM   29  C14 UNL     1      21.771   0.450  52.221  1.00  0.00     0.119 A 
HETATM   30  F1  UNL     1      21.101  -0.637  52.708  1.00  0.00    -0.206 F 
HETATM   31  C15 UNL     1      22.525   1.243  53.089  1.00  0.00     0.086 A 
HETATM   32  C16 UNL     1      23.158   2.313  52.488  1.00  0.00     0.146 A 
HETATM   33  F2  UNL     1      23.919   3.144  53.264  1.00  0.00    -0.204 F 
ENDBRANCH   7  26
TORSDOF 5
ENDMDL
MODEL 4
REMARK VINA RESULT:      -9.0      8.288     10.446
REMARK  5 active torsions:
REMARK  status: ('A' for Active; 'I' for Inactive)
REMARK    1  A    between atoms: O1_2  and  C2_3 
REMARK    2  A    between atoms: C6_9  and  O2_10 
REMARK    3  A    between atoms: O2_10  and  C7_11 
REMARK       I    between atoms: N3_14  and  C10_15 
REMARK       I    between atoms: C10_15  and  N4_17 
REMARK    4  A    between atoms: N4_17  and  C11_18 
REMARK    5  A    between atoms: C21_30  and  O4_31 
ROOT
HETATM    1  C7  UNL     1      26.166   4.864  49.407  1.00  0.00     0.091 C 
HETATM    2  C8  UNL     1      25.598   5.864  50.038  1.00  0.00     0.028 C 
HETATM    3  C9  UNL     1      25.994   7.064  49.689  1.00  0.00     0.116 C 
HETATM    4  N3  UNL     1      27.170   7.386  48.946  1.00  0.00    -0.284 N 
HETATM    5  C10 UNL     1      27.555   8.734  48.799  1.00  0.00     0.331 C 
HETATM    6  O3  UNL     1      26.820   9.597  49.346  1.00  0.00    -0.246 OA
HETATM    7  N4  UNL     1      28.715   9.098  48.069  1.00  0.00    -0.305 N 
HETATM    8  C17 UNL     1      27.875   6.278  48.400  1.00  0.00     0.104 C 
HETATM    9  C18 UNL     1      27.388   5.060  48.623  1.00  0.00     0.056 C 
HETATM   10  H7  UNL     1      29.332   8.401  47.612  1.00  0.00     0.171 HD
ENDROOT
BRANCH   1  11
HETATM   11  O2  UNL     1      25.569   3.602  49.502  1.00  0.00    -0.290 OA
BRANCH  11  12
HETATM   12  C6  UNL     1      25.836   2.869  50.647  1.00  0.00     0.183 A 
HETATM   13  N2  UNL     1      27.054   2.823  51.250  1.00  0.00    -0.217 NA
HETATM   14  C5  UNL     1      27.222   2.071  52.376  1.00  0.00     0.236 A 
HETATM   15  N1  UNL     1      26.196   1.358  52.922  1.00  0.00    -0.241 NA
HETATM   16  C4  UNL     1      24.981   1.386  52.344  1.00  0.00     0.075 A 
HETATM   17  C3  UNL     1      23.959   0.660  52.908  1.00  0.00     0.072 A 
HETATM   18  C19 UNL     1      24.802   2.144  51.203  1.00  0.00     0.049 A 
HETATM   19  C2  UNL     1      22.696   0.655  52.355  1.00  0.00     0.103 A 
HETATM   20  C21 UNL     1      22.474   1.410  51.199  1.00  0.00     0.102 A 
HETATM   21  C20 UNL     1      23.526   2.130  50.658  1.00  0.00     0.057 A 
BRANCH  19  22
HETATM   22  O1  UNL     1      21.583  -0.032  52.825  1.00  0.00    -0.353 OA
HETATM   23  C1  UNL     1      21.080   0.296  54.093  1.00  0.00     0.210 C 
ENDBRANCH  19  22
BRANCH  20  24
HETATM   24  O4  UNL     1      21.220   1.455  50.581  1.00  0.00    -0.353 OA
HETATM   25  C22 UNL     1      21.172   1.074  49.230  1.00  0.00     0.210 C 
ENDBRANCH  20  24
ENDBRANCH  11  12
ENDBRANCH   1  11
BRANCH   7  26
HETATM   26  C11 UNL     1      29.002  10.480  47.990  1.00  0.00     0.075 A 
HETATM   27  C12 UNL     1      28.353  11.166  46.999  1.00  0.00     0.036 A 
HETATM   28  C13 UNL     1      28.573  12.521  46.847  1.00  0.00     0.044 A 
HETATM   29  C14 UNL     1      29.452  13.139  47.714  1.00  0.00     0.119 A 
HETATM   30  F1  UNL     1      29.639  14.479  47.527  1.00  0.00    -0.206 F 
HETATM   31  C15 UNL     1      30.137  12.482  48.740  1.00  0.00     0.086 A 
HETATM   32  C16 UNL     1      29.873  11.130  48.836  1.00  0.00     0.146 A 
HETATM   33  F2  UNL     1      30.501  10.407  49.813  1.00  0.00    -0.204 F 
ENDBRANCH   7  26
TORSDOF 5
ENDMDL
MODEL 5
REMARK VINA RESULT:      -9.0      7.645     12.168
REMARK  5 active torsions:
REMARK  status: ('A' for Active; 'I' for Inactive)
REMARK    1  A    between atoms: O1_2  and  C2_3 
REMARK    2  A    between atoms: C6_9  and  O2_10 
REMARK    3  A    between atoms: O2_10  and  C7_11 
REMARK       I    between atoms: N3_14  and  C10_15 
REMARK       I    between atoms: C10_15  and  N4_17 
REMARK    4  A    between atoms: N4_17  and  C11_18 
REMARK    5  A    between atoms: C21_30  and  O4_31 
ROOT
HETATM    1  C7  UNL     1      26.279   5.418  48.898  1.00  0.00     0.091 C 
HETATM    2  C8  UNL     1      25.169   5.614  49.568  1.00  0.00     0.028 C 
HETATM    3  C9  UNL     1      24.927   4.767  50.539  1.00  0.00     0.116 C 
HETATM    4  N3  UNL     1      25.557   3.502  50.738  1.00  0.00    -0.284 N 
HETATM    5  C10 UNL     1      25.066   2.625  51.727  1.00  0.00     0.331 C 
HETATM    6  O3  UNL     1      24.075   3.020  52.394  1.00  0.00    -0.246 OA
HETATM    7  N4  UNL     1      25.663   1.359  51.957  1.00  0.00    -0.305 N 
HETATM    8  C17 UNL     1      26.666   3.227  49.889  1.00  0.00     0.104 C 
HETATM    9  C18 UNL     1      27.013   4.154  49.001  1.00  0.00     0.056 C 
HETATM   10  H7  UNL     1      26.480   1.018  51.417  1.00  0.00     0.171 HD
ENDROOT
BRANCH   1  11
HETATM   11  O2  UNL     1      26.745   6.454  48.080  1.00  0.00    -0.290 OA
BRANCH  11  12
HETATM   12  C6  UNL     1      27.380   7.511  48.711  1.00  0.00     0.183 A 
HETATM   13  N2  UNL     1      26.736   8.441  49.465  1.00  0.00    -0.217 NA
HETATM   14  C5  UNL     1      27.449   9.449  50.049  1.00  0.00     0.236 A 
HETATM   15  N1  UNL     1      28.800   9.552  49.899  1.00  0.00    -0.241 NA
HETATM   16  C4  UNL     1      29.461   8.643  49.158  1.00  0.00     0.075 A 
HETATM   17  C3  UNL     1      30.823   8.764  49.017  1.00  0.00     0.072 A 
HETATM   18  C19 UNL     1      28.747   7.621  48.562  1.00  0.00     0.049 A 
HETATM   19  C2  UNL     1      31.547   7.860  48.269  1.00  0.00     0.103 A 
HETATM   20  C21 UNL     1      30.862   6.810  47.650  1.00  0.00     0.102 A 
HETATM   21  C20 UNL     1      29.490   6.719  47.813  1.00  0.00     0.057 A 
BRANCH  19  22
HETATM   22  O1  UNL     1      32.919   7.869  48.050  1.00  0.00    -0.353 OA
HETATM   23  C1  UNL     1      33.449   8.809  47.154  1.00  0.00     0.210 C 
ENDBRANCH  19  22
BRANCH  20  24
HETATM   24  O4  UNL     1      31.527   5.854  46.875  1.00  0.00    -0.353 OA
HETATM   25  C22 UNL     1      31.635   4.566  47.424  1.00  0.00     0.210 C 
ENDBRANCH  20  24
ENDBRANCH  11  12
ENDBRANCH   1  11
BRANCH   7  26
HETATM   26  C11 UNL     1      25.085   0.566  52.974  1.00  0.00     0.075 A 
HETATM   27  C12 UNL     1      23.783   0.195  52.772  1.00  0.00     0.036 A 
HETATM   28  C13 UNL     1      23.137  -0.581  53.714  1.00  0.00     0.044 A 
HETATM   29  C14 UNL     1      23.843  -0.958  54.839  1.00  0.00     0.119 A 
HETATM   30  F1  UNL     1      23.165  -1.725  55.744  1.00  0.00    -0.206 F 
HETATM   31  C15 UNL     1      25.171  -0.605  55.091  1.00  0.00     0.086 A 
HETATM   32  C16 UNL     1      25.756   0.171  54.110  1.00  0.00     0.146 A 
HETATM   33  F2  UNL     1      27.056   0.563  54.274  1.00  0.00    -0.204 F 
ENDBRANCH   7  26
TORSDOF 5
ENDMDL
MODEL 6
REMARK VINA RESULT:      -8.8      4.371     10.725
REMARK  5 active torsions:
REMARK  status: ('A' for Active; 'I' for Inactive)
REMARK    1  A    between atoms: O1_2  and  C2_3 
REMARK    2  A    between atoms: C6_9  and  O2_10 
REMARK    3  A    between atoms: O2_10  and  C7_11 
REMARK       I    between atoms: N3_14  and  C10_15 
REMARK       I    between atoms: C10_15  and  N4_17 
REMARK    4  A    between atoms: N4_17  and  C11_18 
REMARK    5  A    between atoms: C21_30  and  O4_31 
ROOT
HETATM    1  C7  UNL     1      21.211   0.247  51.892  1.00  0.00     0.091 C 
HETATM    2  C8  UNL     1      20.863  -0.175  53.085  1.00  0.00     0.028 C 
HETATM    3  C9  UNL     1      19.616  -0.554  53.219  1.00  0.00     0.116 C 
HETATM    4  N3  UNL     1      18.541  -0.267  52.324  1.00  0.00    -0.284 N 
HETATM    5  C10 UNL     1      17.219  -0.593  52.692  1.00  0.00     0.331 C 
HETATM    6  O3  UNL     1      17.062  -1.131  53.818  1.00  0.00    -0.246 OA
HETATM    7  N4  UNL     1      16.124  -0.326  51.834  1.00  0.00    -0.305 N 
HETATM    8  C17 UNL     1      18.912   0.344  51.094  1.00  0.00     0.104 C 
HETATM    9  C18 UNL     1      20.202   0.591  50.887  1.00  0.00     0.056 C 
HETATM   10  H7  UNL     1      16.236   0.117  50.903  1.00  0.00     0.171 HD
ENDROOT
BRANCH   1  11
HETATM   11  O2  UNL     1      22.577   0.357  51.606  1.00  0.00    -0.290 OA
BRANCH  11  12
HETATM   12  C6  UNL     1      23.239   1.454  52.133  1.00  0.00     0.183 A 
HETATM   13  N2  UNL     1      22.777   2.730  52.049  1.00  0.00    -0.217 NA
HETATM   14  C5  UNL     1      23.500   3.748  52.599  1.00  0.00     0.236 A 
HETATM   15  N1  UNL     1      24.684   3.523  53.238  1.00  0.00    -0.241 NA
HETATM   16  C4  UNL     1      25.163   2.270  53.334  1.00  0.00     0.075 A 
HETATM   17  C3  UNL     1      26.358   2.062  53.981  1.00  0.00     0.072 A 
HETATM   18  C19 UNL     1      24.438   1.233  52.779  1.00  0.00     0.049 A 
HETATM   19  C2  UNL     1      26.892   0.798  54.107  1.00  0.00     0.103 A 
HETATM   20  C21 UNL     1      26.189  -0.279  53.560  1.00  0.00     0.102 A 
HETATM   21  C20 UNL     1      24.988  -0.034  52.915  1.00  0.00     0.057 A 
BRANCH  19  22
HETATM   22  O1  UNL     1      28.085   0.455  54.735  1.00  0.00    -0.353 OA
HETATM   23  C1  UNL     1      29.189   1.308  54.585  1.00  0.00     0.210 C 
ENDBRANCH  19  22
BRANCH  20  24
HETATM   24  O4  UNL     1      26.666  -1.590  53.648  1.00  0.00    -0.353 OA
HETATM   25  C22 UNL     1      27.010  -2.216  52.438  1.00  0.00     0.210 C 
ENDBRANCH  20  24
ENDBRANCH  11  12
ENDBRANCH   1  11
BRANCH   7  26
HETATM   26  C11 UNL     1      14.845  -0.695  52.310  1.00  0.00     0.075 A 
HETATM   27  C12 UNL     1      14.430  -1.957  51.981  1.00  0.00     0.036 A 
HETATM   28  C13 UNL     1      13.194  -2.404  52.404  1.00  0.00     0.044 A 
HETATM   29  C14 UNL     1      12.414  -1.545  53.153  1.00  0.00     0.119 A 
HETATM   30  F1  UNL     1      11.199  -2.028  53.549  1.00  0.00    -0.206 F 
HETATM   31  C15 UNL     1      12.793  -0.250  53.513  1.00  0.00     0.086 A 
HETATM   32  C16 UNL     1      14.039   0.133  53.059  1.00  0.00     0.146 A 
HETATM   33  F2  UNL     1      14.491   1.387  53.365  1.00  0.00    -0.204 F 
ENDBRANCH   7  26
TORSDOF 5
ENDMDL
MODEL 7
REMARK VINA RESULT:      -8.8      2.871      3.349
REMARK  5 active torsions:
REMARK  status: ('A' for Active; 'I' for Inactive)
REMARK    1  A    between atoms: O1_2  and  C2_3 
REMARK    2  A    between atoms: C6_9  and  O2_10 
REMARK    3  A    between atoms: O2_10  and  C7_11 
REMARK       I    between atoms: N3_14  and  C10_15 
REMARK       I    between atoms: C10_15  and  N4_17 
REMARK    4  A    between atoms: N4_17  and  C11_18 
REMARK    5  A    between atoms: C21_30  and  O4_31 
ROOT
HETATM    1  C7  UNL     1      19.433   0.591  51.044  1.00  0.00     0.091 C 
HETATM    2  C8  UNL     1      19.612   0.007  52.205  1.00  0.00     0.028 C 
HETATM    3  C9  UNL     1      20.817   0.097  52.714  1.00  0.00     0.116 C 
HETATM    4  N3  UNL     1      22.005   0.474  52.019  1.00  0.00    -0.284 N 
HETATM    5  C10 UNL     1      23.256   0.355  52.658  1.00  0.00     0.331 C 
HETATM    6  O3  UNL     1      23.250  -0.089  53.836  1.00  0.00    -0.246 OA
HETATM    7  N4  UNL     1      24.460   0.719  52.005  1.00  0.00    -0.305 N 
HETATM    8  C17 UNL     1      21.815   0.955  50.693  1.00  0.00     0.104 C 
HETATM    9  C18 UNL     1      20.572   1.011  50.224  1.00  0.00     0.056 C 
HETATM   10  H7  UNL     1      24.483   1.086  51.035  1.00  0.00     0.171 HD
ENDROOT
BRANCH   1  11
HETATM   11  O2  UNL     1      18.119   0.803  50.610  1.00  0.00    -0.290 OA
BRANCH  11  12
HETATM   12  C6  UNL     1      17.547   2.025  50.926  1.00  0.00     0.183 A 
HETATM   13  N2  UNL     1      18.076   3.225  50.565  1.00  0.00    -0.217 NA
HETATM   14  C5  UNL     1      17.439   4.378  50.923  1.00  0.00     0.236 A 
HETATM   15  N1  UNL     1      16.277   4.365  51.637  1.00  0.00    -0.241 NA
HETATM   16  C4  UNL     1      15.734   3.190  52.005  1.00  0.00     0.075 A 
HETATM   17  C3  UNL     1      14.563   3.196  52.725  1.00  0.00     0.072 A 
HETATM   18  C19 UNL     1      16.372   2.018  51.649  1.00  0.00     0.049 A 
HETATM   19  C2  UNL     1      13.965   2.021  53.127  1.00  0.00     0.103 A 
HETATM   20  C21 UNL     1      14.579   0.812  52.786  1.00  0.00     0.102 A 
HETATM   21  C20 UNL     1      15.758   0.843  52.060  1.00  0.00     0.057 A 
BRANCH  19  22
HETATM   22  O1  UNL     1      12.787   1.891  53.854  1.00  0.00    -0.353 OA
HETATM   23  C1  UNL     1      12.086   3.053  54.208  1.00  0.00     0.210 C 
ENDBRANCH  19  22
BRANCH  20  24
HETATM   24  O4  UNL     1      14.032  -0.420  53.157  1.00  0.00    -0.353 OA
HETATM   25  C22 UNL     1      13.560  -1.237  52.117  1.00  0.00     0.210 C 
ENDBRANCH  20  24
ENDBRANCH  11  12
ENDBRANCH   1  11
BRANCH   7  26
HETATM   26  C11 UNL     1      25.653   0.556  52.745  1.00  0.00     0.075 A 
HETATM   27  C12 UNL     1      26.355  -0.592  52.496  1.00  0.00     0.036 A 
HETATM   28  C13 UNL     1      27.534  -0.835  53.173  1.00  0.00     0.044 A 
HETATM   29  C14 UNL     1      27.963   0.105  54.089  1.00  0.00     0.119 A 
HETATM   30  F1  UNL     1      29.133  -0.177  54.736  1.00  0.00    -0.206 F 
HETATM   31  C15 UNL     1      27.282   1.291  54.378  1.00  0.00     0.086 A 
HETATM   32  C16 UNL     1      26.113   1.471  53.666  1.00  0.00     0.146 A 
HETATM   33  F2  UNL     1      25.381   2.605  53.885  1.00  0.00    -0.204 F 
ENDBRANCH   7  26
TORSDOF 5
ENDMDL
MODEL 8
REMARK VINA RESULT:      -8.5      9.594     13.325
REMARK  5 active torsions:
REMARK  status: ('A' for Active; 'I' for Inactive)
REMARK    1  A    between atoms: O1_2  and  C2_3 
REMARK    2  A    between atoms: C6_9  and  O2_10 
REMARK    3  A    between atoms: O2_10  and  C7_11 
REMARK       I    between atoms: N3_14  and  C10_15 
REMARK       I    between atoms: C10_15  and  N4_17 
REMARK    4  A    between atoms: N4_17  and  C11_18 
REMARK    5  A    between atoms: C21_30  and  O4_31 
ROOT
HETATM    1  C7  UNL     1      27.646   6.761  48.282  1.00  0.00     0.091 C 
HETATM    2  C8  UNL     1      28.151   5.553  48.376  1.00  0.00     0.028 C 
HETATM    3  C9  UNL     1      27.349   4.630  48.848  1.00  0.00     0.116 C 
HETATM    4  N3  UNL     1      26.126   4.848  49.551  1.00  0.00    -0.284 N 
HETATM    5  C10 UNL     1      25.462   3.759  50.151  1.00  0.00     0.331 C 
HETATM    6  O3  UNL     1      26.001   2.629  50.028  1.00  0.00    -0.246 OA
HETATM    7  N4  UNL     1      24.245   3.931  50.858  1.00  0.00    -0.305 N 
HETATM    8  C17 UNL     1      25.668   6.195  49.584  1.00  0.00     0.104 C 
HETATM    9  C18 UNL     1      26.403   7.117  48.971  1.00  0.00     0.056 C 
HETATM   10  H7  UNL     1      23.787   4.854  50.968  1.00  0.00     0.171 HD
ENDROOT
BRANCH   1  11
HETATM   11  O2  UNL     1      28.331   7.700  47.502  1.00  0.00    -0.290 OA
BRANCH  11  12
HETATM   12  C6  UNL     1      29.173   8.573  48.171  1.00  0.00     0.183 A 
HETATM   13  N2  UNL     1      30.313   8.189  48.806  1.00  0.00    -0.217 NA
HETATM   14  C5  UNL     1      31.080   9.123  49.440  1.00  0.00     0.236 A 
HETATM   15  N1  UNL     1      30.737  10.442  49.456  1.00  0.00    -0.241 NA
HETATM   16  C4  UNL     1      29.615  10.848  48.835  1.00  0.00     0.075 A 
HETATM   17  C3  UNL     1      29.285  12.182  48.862  1.00  0.00     0.072 A 
HETATM   18  C19 UNL     1      28.831   9.910  48.191  1.00  0.00     0.049 A 
HETATM   19  C2  UNL     1      28.146  12.649  48.241  1.00  0.00     0.103 A 
HETATM   20  C21 UNL     1      27.326  11.731  47.578  1.00  0.00     0.102 A 
HETATM   21  C20 UNL     1      27.688  10.395  47.570  1.00  0.00     0.057 A 
BRANCH  19  22
HETATM   22  O1  UNL     1      27.702  13.966  48.194  1.00  0.00    -0.353 OA
HETATM   23  C1  UNL     1      28.277  14.833  47.253  1.00  0.00     0.210 C 
ENDBRANCH  19  22
BRANCH  20  24
HETATM   24  O4  UNL     1      26.155  12.129  46.925  1.00  0.00    -0.353 OA
HETATM   25  C22 UNL     1      24.943  11.832  47.572  1.00  0.00     0.210 C 
ENDBRANCH  20  24
ENDBRANCH  11  12
ENDBRANCH   1  11
BRANCH   7  26
HETATM   26  C11 UNL     1      23.671   2.766  51.417  1.00  0.00     0.075 A 
HETATM   27  C12 UNL     1      22.773   2.106  50.624  1.00  0.00     0.036 A 
HETATM   28  C13 UNL     1      22.163   0.957  51.089  1.00  0.00     0.044 A 
HETATM   29  C14 UNL     1      22.488   0.516  52.356  1.00  0.00     0.119 A 
HETATM   30  F1  UNL     1      21.861  -0.623  52.775  1.00  0.00    -0.206 F 
HETATM   31  C15 UNL     1      23.397   1.155  53.203  1.00  0.00     0.086 A 
HETATM   32  C16 UNL     1      23.970   2.296  52.677  1.00  0.00     0.146 A 
HETATM   33  F2  UNL     1      24.873   2.987  53.438  1.00  0.00    -0.204 F 
ENDBRANCH   7  26
TORSDOF 5
ENDMDL
MODEL 9
REMARK VINA RESULT:      -8.4      8.507     12.527
REMARK  5 active torsions:
REMARK  status: ('A' for Active; 'I' for Inactive)
REMARK    1  A    between atoms: O1_2  and  C2_3 
REMARK    2  A    between atoms: C6_9  and  O2_10 
REMARK    3  A    between atoms: O2_10  and  C7_11 
REMARK       I    between atoms: N3_14  and  C10_15 
REMARK       I    between atoms: C10_15  and  N4_17 
REMARK    4  A    between atoms: N4_17  and  C11_18 
REMARK    5  A    between atoms: C21_30  and  O4_31 
ROOT
HETATM    1  C7  UNL     1      26.111   6.809  49.531  1.00  0.00     0.091 C 
HETATM    2  C8  UNL     1      25.105   7.082  50.328  1.00  0.00     0.028 C 
HETATM    3  C9  UNL     1      24.558   6.057  50.935  1.00  0.00     0.116 C 
HETATM    4  N3  UNL     1      24.723   4.682  50.593  1.00  0.00    -0.284 N 
HETATM    5  C10 UNL     1      23.932   3.703  51.229  1.00  0.00     0.331 C 
HETATM    6  O3  UNL     1      23.104   4.112  52.084  1.00  0.00    -0.246 OA
HETATM    7  N4  UNL     1      24.064   2.326  50.918  1.00  0.00    -0.305 N 
HETATM    8  C17 UNL     1      25.708   4.408  49.603  1.00  0.00     0.104 C 
HETATM    9  C18 UNL     1      26.378   5.437  49.092  1.00  0.00     0.056 C 
HETATM   10  H7  UNL     1      24.740   1.972  50.217  1.00  0.00     0.171 HD
ENDROOT
BRANCH   1  11
HETATM   11  O2  UNL     1      26.925   7.869  49.114  1.00  0.00    -0.290 OA
BRANCH  11  12
HETATM   12  C6  UNL     1      27.022   8.082  47.749  1.00  0.00     0.183 A 
HETATM   13  N2  UNL     1      25.959   8.362  46.948  1.00  0.00    -0.217 NA
HETATM   14  C5  UNL     1      26.153   8.556  45.611  1.00  0.00     0.236 A 
HETATM   15  N1  UNL     1      27.393   8.479  45.047  1.00  0.00    -0.241 NA
HETATM   16  C4  UNL     1      28.461   8.203  45.818  1.00  0.00     0.075 A 
HETATM   17  C3  UNL     1      29.702   8.128  45.232  1.00  0.00     0.072 A 
HETATM   18  C19 UNL     1      28.273   8.004  47.172  1.00  0.00     0.049 A 
HETATM   19  C2  UNL     1      30.828   7.849  45.977  1.00  0.00     0.103 A 
HETATM   20  C21 UNL     1      30.681   7.641  47.351  1.00  0.00     0.102 A 
HETATM   21  C20 UNL     1      29.416   7.724  47.909  1.00  0.00     0.057 A 
BRANCH  19  22
HETATM   22  O1  UNL     1      32.133   7.747  45.509  1.00  0.00    -0.353 OA
HETATM   23  C1  UNL     1      32.371   6.995  44.349  1.00  0.00     0.210 C 
ENDBRANCH  19  22
BRANCH  20  24
HETATM   24  O4  UNL     1      31.776   7.354  48.173  1.00  0.00    -0.353 OA
HETATM   25  C22 UNL     1      31.698   7.799  49.503  1.00  0.00     0.210 C 
ENDBRANCH  20  24
ENDBRANCH  11  12
ENDBRANCH   1  11
BRANCH   7  26
HETATM   26  C11 UNL     1      23.216   1.438  51.620  1.00  0.00     0.075 A 
HETATM   27  C12 UNL     1      22.054   1.098  50.983  1.00  0.00     0.036 A 
HETATM   28  C13 UNL     1      21.166   0.234  51.593  1.00  0.00     0.044 A 
HETATM   29  C14 UNL     1      21.492  -0.258  52.841  1.00  0.00     0.119 A 
HETATM   30  F1  UNL     1      20.584  -1.108  53.408  1.00  0.00    -0.206 F 
HETATM   31  C15 UNL     1      22.665   0.060  53.531  1.00  0.00     0.086 A 
HETATM   32  C16 UNL     1      23.507   0.927  52.865  1.00  0.00     0.146 A 
HETATM   33  F2  UNL     1      24.680   1.294  53.467  1.00  0.00    -0.204 F 
ENDBRANCH   7  26
TORSDOF 5
ENDMDL
