MODEL 1
REMARK VINA RESULT:      -8.6      0.000      0.000
REMARK  5 active torsions:
REMARK  status: ('A' for Active; 'I' for Inactive)
REMARK    1  A    between atoms: O1_2  and  C2_3 
REMARK    2  A    between atoms: C2_3  and  O2_4 
REMARK    3  A    between atoms: O2_4  and  C3_5 
REMARK    4  A    between atoms: C7_11  and  N3_12 
REMARK    5  A    between atoms: N3_12  and  C8_13 
ROOT
HETATM    1  C3  UNL     1      19.505  -0.224  52.452  1.00  0.00     0.110 A 
HETATM    2  C4  UNL     1      19.946  -0.824  53.613  1.00  0.00     0.072 A 
HETATM    3  C5  UNL     1      21.284  -0.821  53.950  1.00  0.00     0.077 A 
HETATM    4  N1  UNL     1      21.768  -1.395  55.075  1.00  0.00    -0.241 NA
HETATM    5  C6  UNL     1      23.074  -1.379  55.383  1.00  0.00     0.236 A 
HETATM    6  N2  UNL     1      23.952  -0.782  54.568  1.00  0.00    -0.223 NA
HETATM    7  C7  UNL     1      23.587  -0.181  53.428  1.00  0.00     0.144 A 
HETATM    8  C14 UNL     1      22.245  -0.227  53.161  1.00  0.00     0.075 A 
HETATM    9  C15 UNL     1      21.800   0.370  52.005  1.00  0.00     0.121 A 
HETATM   10  C16 UNL     1      20.467   0.376  51.653  1.00  0.00     0.136 A 
HETATM   11  O3  UNL     1      20.053   0.986  50.483  1.00  0.00    -0.344 OA
HETATM   12  C17 UNL     1      20.825   1.896  49.733  1.00  0.00     0.202 C 
HETATM   13  C18 UNL     1      22.199   2.109  50.287  1.00  0.00     0.202 C 
HETATM   14  O4  UNL     1      22.618   1.012  51.094  1.00  0.00    -0.345 OA
ENDROOT
BRANCH   7  15
HETATM   15  N3  UNL     1      24.582   0.428  52.630  1.00  0.00    -0.340 N 
HETATM   16  H8  UNL     1      24.664   1.086  51.840  1.00  0.00     0.167 HD
BRANCH  15  17
HETATM   17  C8  UNL     1      25.953   0.129  52.880  1.00  0.00     0.035 A 
HETATM   18  C9  UNL     1      26.589  -1.103  52.679  1.00  0.00     0.032 A 
HETATM   19  C10 UNL     1      27.907  -1.389  52.939  1.00  0.00     0.046 A 
HETATM   20  C11 UNL     1      28.692  -0.380  53.447  1.00  0.00     0.138 A 
HETATM   21  F1  UNL     1      29.982  -0.691  53.693  1.00  0.00    -0.204 F 
HETATM   22  C12 UNL     1      28.137   0.852  53.670  1.00  0.00     0.074 A 
HETATM   23 CL1  UNL     1      29.247   2.049  54.318  1.00  0.00    -0.081 Cl
HETATM   24  C13 UNL     1      26.813   1.091  53.393  1.00  0.00     0.056 A 
ENDBRANCH  15  17
ENDBRANCH   7  15
BRANCH   1  25
HETATM   25  O2  UNL     1      18.179  -0.193  52.060  1.00  0.00    -0.323 OA
BRANCH  25  26
HETATM   26  C2  UNL     1      17.194  -1.088  52.475  1.00  0.00     0.344 C 
BRANCH  26  27
HETATM   27  O1  UNL     1      16.210  -0.377  53.150  1.00  0.00    -0.371 OA
HETATM   28  C1  UNL     1      15.657   0.572  52.283  1.00  0.00     0.204 C 
ENDBRANCH  26  27
ENDBRANCH  25  26
ENDBRANCH   1  25
TORSDOF 5
ENDMDL
MODEL 2
REMARK VINA RESULT:      -8.2      2.041      3.678
REMARK  5 active torsions:
REMARK  status: ('A' for Active; 'I' for Inactive)
REMARK    1  A    between atoms: O1_2  and  C2_3 
REMARK    2  A    between atoms: C2_3  and  O2_4 
REMARK    3  A    between atoms: O2_4  and  C3_5 
REMARK    4  A    between atoms: C7_11  and  N3_12 
REMARK    5  A    between atoms: N3_12  and  C8_13 
ROOT
HETATM    1  C3  UNL     1      21.298   0.799  50.888  1.00  0.00     0.110 A 
HETATM    2  C4  UNL     1      22.081   1.641  50.127  1.00  0.00     0.072 A 
HETATM    3  C5  UNL     1      23.315   2.066  50.576  1.00  0.00     0.077 A 
HETATM    4  N1  UNL     1      24.120   2.890  49.869  1.00  0.00    -0.241 NA
HETATM    5  C6  UNL     1      25.317   3.289  50.326  1.00  0.00     0.236 A 
HETATM    6  N2  UNL     1      25.755   2.872  51.520  1.00  0.00    -0.223 NA
HETATM    7  C7  UNL     1      25.044   2.055  52.307  1.00  0.00     0.144 A 
HETATM    8  C14 UNL     1      23.831   1.679  51.793  1.00  0.00     0.075 A 
HETATM    9  C15 UNL     1      23.047   0.839  52.549  1.00  0.00     0.121 A 
HETATM   10  C16 UNL     1      21.812   0.406  52.115  1.00  0.00     0.136 A 
HETATM   11  O3  UNL     1      21.049  -0.438  52.900  1.00  0.00    -0.344 OA
HETATM   12  C17 UNL     1      21.536  -1.174  53.999  1.00  0.00     0.202 C 
HETATM   13  C18 UNL     1      22.978  -0.912  54.299  1.00  0.00     0.202 C 
HETATM   14  O4  UNL     1      23.401   0.351  53.793  1.00  0.00    -0.345 OA
ENDROOT
BRANCH   7  15
HETATM   15  N3  UNL     1      25.588   1.663  53.551  1.00  0.00    -0.340 N 
HETATM   16  H8  UNL     1      25.364   1.708  54.558  1.00  0.00     0.167 HD
BRANCH  15  17
HETATM   17  C8  UNL     1      26.839   0.983  53.580  1.00  0.00     0.035 A 
HETATM   18  C9  UNL     1      28.085   1.541  53.898  1.00  0.00     0.032 A 
HETATM   19  C10 UNL     1      29.291   0.884  53.906  1.00  0.00     0.046 A 
HETATM   20  C11 UNL     1      29.295  -0.450  53.571  1.00  0.00     0.138 A 
HETATM   21  F1  UNL     1      30.494  -1.069  53.588  1.00  0.00    -0.204 F 
HETATM   22  C12 UNL     1      28.113  -1.062  53.249  1.00  0.00     0.074 A 
HETATM   23 CL1  UNL     1      28.257  -2.765  52.843  1.00  0.00    -0.081 Cl
HETATM   24  C13 UNL     1      26.930  -0.363  53.255  1.00  0.00     0.056 A 
ENDBRANCH  15  17
ENDBRANCH   7  15
BRANCH   1  25
HETATM   25  O2  UNL     1      20.055   0.340  50.493  1.00  0.00    -0.323 OA
BRANCH  25  26
HETATM   26  C2  UNL     1      18.880   1.090  50.492  1.00  0.00     0.344 C 
BRANCH  26  27
HETATM   27  O1  UNL     1      17.800   0.217  50.469  1.00  0.00    -0.371 OA
HETATM   28  C1  UNL     1      17.750  -0.477  51.684  1.00  0.00     0.204 C 
ENDBRANCH  26  27
ENDBRANCH  25  26
ENDBRANCH   1  25
TORSDOF 5
ENDMDL
MODEL 3
REMARK VINA RESULT:      -8.1      2.154      2.435
REMARK  5 active torsions:
REMARK  status: ('A' for Active; 'I' for Inactive)
REMARK    1  A    between atoms: O1_2  and  C2_3 
REMARK    2  A    between atoms: C2_3  and  O2_4 
REMARK    3  A    between atoms: O2_4  and  C3_5 
REMARK    4  A    between atoms: C7_11  and  N3_12 
REMARK    5  A    between atoms: N3_12  and  C8_13 
ROOT
HETATM    1  C3  UNL     1      20.343   2.798  52.330  1.00  0.00     0.110 A 
HETATM    2  C4  UNL     1      20.396   1.687  53.145  1.00  0.00     0.072 A 
HETATM    3  C5  UNL     1      21.556   0.951  53.270  1.00  0.00     0.077 A 
HETATM    4  N1  UNL     1      21.660  -0.145  54.055  1.00  0.00    -0.241 NA
HETATM    5  C6  UNL     1      22.800  -0.845  54.162  1.00  0.00     0.236 A 
HETATM    6  N2  UNL     1      23.888  -0.469  53.479  1.00  0.00    -0.223 NA
HETATM    7  C7  UNL     1      23.902   0.600  52.672  1.00  0.00     0.144 A 
HETATM    8  C14 UNL     1      22.715   1.278  52.599  1.00  0.00     0.075 A 
HETATM    9  C15 UNL     1      22.657   2.386  51.788  1.00  0.00     0.121 A 
HETATM   10  C16 UNL     1      21.506   3.133  51.652  1.00  0.00     0.136 A 
HETATM   11  O3  UNL     1      21.483   4.243  50.827  1.00  0.00    -0.344 OA
HETATM   12  C17 UNL     1      22.626   4.897  50.327  1.00  0.00     0.202 C 
HETATM   13  C18 UNL     1      23.911   4.236  50.719  1.00  0.00     0.202 C 
HETATM   14  O4  UNL     1      23.719   2.861  51.040  1.00  0.00    -0.345 OA
ENDROOT
BRANCH   7  15
HETATM   15  N3  UNL     1      25.099   0.925  51.994  1.00  0.00    -0.340 N 
HETATM   16  H8  UNL     1      25.414   1.434  51.153  1.00  0.00     0.167 HD
BRANCH  15  17
HETATM   17  C8  UNL     1      26.342   0.472  52.521  1.00  0.00     0.035 A 
HETATM   18  C9  UNL     1      26.845  -0.835  52.469  1.00  0.00     0.032 A 
HETATM   19  C10 UNL     1      28.037  -1.268  52.995  1.00  0.00     0.046 A 
HETATM   20  C11 UNL     1      28.826  -0.344  53.640  1.00  0.00     0.138 A 
HETATM   21  F1  UNL     1      29.990  -0.800  54.147  1.00  0.00    -0.204 F 
HETATM   22  C12 UNL     1      28.397   0.954  53.730  1.00  0.00     0.074 A 
HETATM   23 CL1  UNL     1      29.497   2.031  54.576  1.00  0.00    -0.081 Cl
HETATM   24  C13 UNL     1      27.196   1.341  53.187  1.00  0.00     0.056 A 
ENDBRANCH  15  17
ENDBRANCH   7  15
BRANCH   1  25
HETATM   25  O2  UNL     1      19.212   3.575  52.164  1.00  0.00    -0.323 OA
BRANCH  25  26
HETATM   26  C2  UNL     1      18.145   3.277  51.318  1.00  0.00     0.344 C 
BRANCH  26  27
HETATM   27  O1  UNL     1      17.288   4.371  51.286  1.00  0.00    -0.371 OA
HETATM   28  C1  UNL     1      16.185   4.109  52.107  1.00  0.00     0.204 C 
ENDBRANCH  26  27
ENDBRANCH  25  26
ENDBRANCH   1  25
TORSDOF 5
ENDMDL
MODEL 4
REMARK VINA RESULT:      -7.9      4.596      8.275
REMARK  5 active torsions:
REMARK  status: ('A' for Active; 'I' for Inactive)
REMARK    1  A    between atoms: O1_2  and  C2_3 
REMARK    2  A    between atoms: C2_3  and  O2_4 
REMARK    3  A    between atoms: O2_4  and  C3_5 
REMARK    4  A    between atoms: C7_11  and  N3_12 
REMARK    5  A    between atoms: N3_12  and  C8_13 
ROOT
HETATM    1  C3  UNL     1      26.154   0.842  54.085  1.00  0.00     0.110 A 
HETATM    2  C4  UNL     1      26.293   1.789  53.093  1.00  0.00     0.072 A 
HETATM    3  C5  UNL     1      25.308   1.978  52.146  1.00  0.00     0.077 A 
HETATM    4  N1  UNL     1      25.396   2.893  51.154  1.00  0.00    -0.241 NA
HETATM    5  C6  UNL     1      24.423   3.060  50.244  1.00  0.00     0.236 A 
HETATM    6  N2  UNL     1      23.316   2.309  50.296  1.00  0.00    -0.223 NA
HETATM    7  C7  UNL     1      23.120   1.374  51.234  1.00  0.00     0.144 A 
HETATM    8  C14 UNL     1      24.142   1.244  52.136  1.00  0.00     0.075 A 
HETATM    9  C15 UNL     1      24.007   0.301  53.127  1.00  0.00     0.121 A 
HETATM   10  C16 UNL     1      24.982   0.099  54.081  1.00  0.00     0.136 A 
HETATM   11  O3  UNL     1      24.815  -0.858  55.065  1.00  0.00    -0.344 OA
HETATM   12  C17 UNL     1      23.586  -1.464  55.396  1.00  0.00     0.202 C 
HETATM   13  C18 UNL     1      22.450  -1.023  54.527  1.00  0.00     0.202 C 
HETATM   14  O4  UNL     1      22.908  -0.526  53.273  1.00  0.00    -0.345 OA
ENDROOT
BRANCH   7  15
HETATM   15  N3  UNL     1      21.917   0.631  51.214  1.00  0.00    -0.340 N 
HETATM   16  H8  UNL     1      21.598  -0.351  51.197  1.00  0.00     0.167 HD
BRANCH  15  17
HETATM   17  C8  UNL     1      20.672   1.323  51.208  1.00  0.00     0.035 A 
HETATM   18  C9  UNL     1      20.374   2.512  51.888  1.00  0.00     0.032 A 
HETATM   19  C10 UNL     1      19.166   3.164  51.892  1.00  0.00     0.046 A 
HETATM   20  C11 UNL     1      18.137   2.611  51.167  1.00  0.00     0.138 A 
HETATM   21  F1  UNL     1      16.962   3.273  51.191  1.00  0.00    -0.204 F 
HETATM   22  C12 UNL     1      18.356   1.448  50.477  1.00  0.00     0.074 A 
HETATM   23 CL1  UNL     1      16.962   0.848  49.591  1.00  0.00    -0.081 Cl
HETATM   24  C13 UNL     1      19.583   0.831  50.502  1.00  0.00     0.056 A 
ENDBRANCH  15  17
ENDBRANCH   7  15
BRANCH   1  25
HETATM   25  O2  UNL     1      27.105   0.606  55.061  1.00  0.00    -0.323 OA
BRANCH  25  26
HETATM   26  C2  UNL     1      28.418   0.201  54.827  1.00  0.00     0.344 C 
BRANCH  26  27
HETATM   27  O1  UNL     1      28.392  -0.990  54.113  1.00  0.00    -0.371 OA
HETATM   28  C1  UNL     1      29.648  -1.202  53.534  1.00  0.00     0.204 C 
ENDBRANCH  26  27
ENDBRANCH  25  26
ENDBRANCH   1  25
TORSDOF 5
ENDMDL
MODEL 5
REMARK VINA RESULT:      -7.9      4.595      7.823
REMARK  5 active torsions:
REMARK  status: ('A' for Active; 'I' for Inactive)
REMARK    1  A    between atoms: O1_2  and  C2_3 
REMARK    2  A    between atoms: C2_3  and  O2_4 
REMARK    3  A    between atoms: O2_4  and  C3_5 
REMARK    4  A    between atoms: C7_11  and  N3_12 
REMARK    5  A    between atoms: N3_12  and  C8_13 
ROOT
HETATM    1  C3  UNL     1      26.452   0.072  53.160  1.00  0.00     0.110 A 
HETATM    2  C4  UNL     1      25.544  -0.667  53.889  1.00  0.00     0.072 A 
HETATM    3  C5  UNL     1      24.201  -0.350  53.884  1.00  0.00     0.077 A 
HETATM    4  N1  UNL     1      23.271  -1.042  54.580  1.00  0.00    -0.241 NA
HETATM    5  C6  UNL     1      21.970  -0.716  54.558  1.00  0.00     0.236 A 
HETATM    6  N2  UNL     1      21.548   0.326  53.831  1.00  0.00    -0.223 NA
HETATM    7  C7  UNL     1      22.379   1.082  53.102  1.00  0.00     0.144 A 
HETATM    8  C14 UNL     1      23.694   0.706  53.159  1.00  0.00     0.075 A 
HETATM    9  C15 UNL     1      24.603   1.440  52.434  1.00  0.00     0.121 A 
HETATM   10  C16 UNL     1      25.948   1.137  52.429  1.00  0.00     0.136 A 
HETATM   11  O3  UNL     1      26.836   1.896  51.688  1.00  0.00    -0.344 OA
HETATM   12  C17 UNL     1      26.468   2.790  50.662  1.00  0.00     0.202 C 
HETATM   13  C18 UNL     1      24.988   2.906  50.475  1.00  0.00     0.202 C 
HETATM   14  O4  UNL     1      24.277   2.533  51.652  1.00  0.00    -0.345 OA
ENDROOT
BRANCH   7  15
HETATM   15  N3  UNL     1      21.844   2.160  52.361  1.00  0.00    -0.340 N 
HETATM   16  H8  UNL     1      22.082   3.129  52.097  1.00  0.00     0.167 HD
BRANCH  15  17
HETATM   17  C8  UNL     1      20.580   2.006  51.723  1.00  0.00     0.035 A 
HETATM   18  C9  UNL     1      20.233   1.029  50.779  1.00  0.00     0.032 A 
HETATM   19  C10 UNL     1      19.017   0.899  50.155  1.00  0.00     0.046 A 
HETATM   20  C11 UNL     1      18.033   1.806  50.472  1.00  0.00     0.138 A 
HETATM   21  F1  UNL     1      16.850   1.652  49.842  1.00  0.00    -0.204 F 
HETATM   22  C12 UNL     1      18.301   2.789  51.387  1.00  0.00     0.074 A 
HETATM   23 CL1  UNL     1      16.960   3.880  51.704  1.00  0.00    -0.081 Cl
HETATM   24  C13 UNL     1      19.534   2.880  51.987  1.00  0.00     0.056 A 
ENDBRANCH  15  17
ENDBRANCH   7  15
BRANCH   1  25
HETATM   25  O2  UNL     1      27.808  -0.196  53.126  1.00  0.00    -0.323 OA
BRANCH  25  26
HETATM   26  C2  UNL     1      28.650  -0.247  54.236  1.00  0.00     0.344 C 
BRANCH  26  27
HETATM   27  O1  UNL     1      28.543   0.954  54.926  1.00  0.00    -0.371 OA
HETATM   28  C1  UNL     1      29.333   1.918  54.288  1.00  0.00     0.204 C 
ENDBRANCH  26  27
ENDBRANCH  25  26
ENDBRANCH   1  25
TORSDOF 5
ENDMDL
MODEL 6
REMARK VINA RESULT:      -7.8      4.352      5.766
REMARK  5 active torsions:
REMARK  status: ('A' for Active; 'I' for Inactive)
REMARK    1  A    between atoms: O1_2  and  C2_3 
REMARK    2  A    between atoms: C2_3  and  O2_4 
REMARK    3  A    between atoms: O2_4  and  C3_5 
REMARK    4  A    between atoms: C7_11  and  N3_12 
REMARK    5  A    between atoms: N3_12  and  C8_13 
ROOT
HETATM    1  C3  UNL     1      23.157   0.218  52.806  1.00  0.00     0.110 A 
HETATM    2  C4  UNL     1      24.438   0.375  53.290  1.00  0.00     0.072 A 
HETATM    3  C5  UNL     1      25.347   1.192  52.648  1.00  0.00     0.077 A 
HETATM    4  N1  UNL     1      26.613   1.380  53.081  1.00  0.00    -0.241 NA
HETATM    5  C6  UNL     1      27.479   2.180  52.440  1.00  0.00     0.236 A 
HETATM    6  N2  UNL     1      27.104   2.827  51.330  1.00  0.00    -0.223 NA
HETATM    7  C7  UNL     1      25.875   2.717  50.810  1.00  0.00     0.144 A 
HETATM    8  C14 UNL     1      25.032   1.889  51.502  1.00  0.00     0.075 A 
HETATM    9  C15 UNL     1      23.754   1.729  51.023  1.00  0.00     0.121 A 
HETATM   10  C16 UNL     1      22.834   0.917  51.652  1.00  0.00     0.136 A 
HETATM   11  O3  UNL     1      21.555   0.779  51.143  1.00  0.00    -0.344 OA
HETATM   12  C17 UNL     1      20.971   1.639  50.191  1.00  0.00     0.202 C 
HETATM   13  C18 UNL     1      21.896   2.712  49.710  1.00  0.00     0.202 C 
HETATM   14  O4  UNL     1      23.263   2.348  49.888  1.00  0.00    -0.345 OA
ENDROOT
BRANCH   7  15
HETATM   15  N3  UNL     1      25.565   3.441  49.636  1.00  0.00    -0.340 N 
HETATM   16  H8  UNL     1      25.112   3.299  48.720  1.00  0.00     0.167 HD
BRANCH  15  17
HETATM   17  C8  UNL     1      25.940   4.813  49.546  1.00  0.00     0.035 A 
HETATM   18  C9  UNL     1      25.368   5.883  50.248  1.00  0.00     0.032 A 
HETATM   19  C10 UNL     1      25.722   7.205  50.142  1.00  0.00     0.046 A 
HETATM   20  C11 UNL     1      26.733   7.529  49.267  1.00  0.00     0.138 A 
HETATM   21  F1  UNL     1      27.058   8.836  49.185  1.00  0.00    -0.204 F 
HETATM   22  C12 UNL     1      27.338   6.534  48.547  1.00  0.00     0.074 A 
HETATM   23 CL1  UNL     1      28.613   7.082  47.469  1.00  0.00    -0.081 Cl
HETATM   24  C13 UNL     1      26.950   5.224  48.687  1.00  0.00     0.056 A 
ENDBRANCH  15  17
ENDBRANCH   7  15
BRANCH   1  25
HETATM   25  O2  UNL     1      22.203  -0.585  53.404  1.00  0.00    -0.323 OA
BRANCH  25  26
HETATM   26  C2  UNL     1      22.320  -1.180  54.658  1.00  0.00     0.344 C 
BRANCH  26  27
HETATM   27  O1  UNL     1      21.083  -1.700  55.017  1.00  0.00    -0.371 OA
HETATM   28  C1  UNL     1      20.195  -1.543  53.947  1.00  0.00     0.204 C 
ENDBRANCH  26  27
ENDBRANCH  25  26
ENDBRANCH   1  25
TORSDOF 5
ENDMDL
MODEL 7
REMARK VINA RESULT:      -7.1      4.778      7.174
REMARK  5 active torsions:
REMARK  status: ('A' for Active; 'I' for Inactive)
REMARK    1  A    between atoms: O1_2  and  C2_3 
REMARK    2  A    between atoms: C2_3  and  O2_4 
REMARK    3  A    between atoms: O2_4  and  C3_5 
REMARK    4  A    between atoms: C7_11  and  N3_12 
REMARK    5  A    between atoms: N3_12  and  C8_13 
ROOT
HETATM    1  C3  UNL     1      24.429   7.290  49.778  1.00  0.00     0.110 A 
HETATM    2  C4  UNL     1      23.365   7.021  50.612  1.00  0.00     0.072 A 
HETATM    3  C5  UNL     1      23.130   5.743  51.077  1.00  0.00     0.077 A 
HETATM    4  N1  UNL     1      22.102   5.427  51.896  1.00  0.00    -0.241 NA
HETATM    5  C6  UNL     1      21.895   4.177  52.337  1.00  0.00     0.236 A 
HETATM    6  N2  UNL     1      22.718   3.187  51.969  1.00  0.00    -0.223 NA
HETATM    7  C7  UNL     1      23.769   3.383  51.162  1.00  0.00     0.144 A 
HETATM    8  C14 UNL     1      23.935   4.676  50.742  1.00  0.00     0.075 A 
HETATM    9  C15 UNL     1      24.995   4.949  49.910  1.00  0.00     0.121 A 
HETATM   10  C16 UNL     1      25.243   6.220  49.437  1.00  0.00     0.136 A 
HETATM   11  O3  UNL     1      26.319   6.460  48.601  1.00  0.00    -0.344 OA
HETATM   12  C17 UNL     1      27.404   5.581  48.415  1.00  0.00     0.202 C 
HETATM   13  C18 UNL     1      27.266   4.295  49.168  1.00  0.00     0.202 C 
HETATM   14  O4  UNL     1      25.904   4.005  49.469  1.00  0.00    -0.345 OA
ENDROOT
BRANCH   7  15
HETATM   15  N3  UNL     1      24.588   2.280  50.831  1.00  0.00    -0.340 N 
HETATM   16  H8  UNL     1      24.831   1.698  50.013  1.00  0.00     0.167 HD
BRANCH  15  17
HETATM   17  C8  UNL     1      25.381   1.672  51.845  1.00  0.00     0.035 A 
HETATM   18  C9  UNL     1      25.102   0.476  52.520  1.00  0.00     0.032 A 
HETATM   19  C10 UNL     1      25.863  -0.094  53.511  1.00  0.00     0.046 A 
HETATM   20  C11 UNL     1      27.012   0.558  53.891  1.00  0.00     0.138 A 
HETATM   21  F1  UNL     1      27.738  -0.027  54.866  1.00  0.00    -0.204 F 
HETATM   22  C12 UNL     1      27.349   1.734  53.274  1.00  0.00     0.074 A 
HETATM   23 CL1  UNL     1      28.839   2.463  53.851  1.00  0.00    -0.081 Cl
HETATM   24  C13 UNL     1      26.556   2.267  52.287  1.00  0.00     0.056 A 
ENDBRANCH  15  17
ENDBRANCH   7  15
BRANCH   1  25
HETATM   25  O2  UNL     1      24.716   8.548  49.280  1.00  0.00    -0.323 OA
BRANCH  25  26
HETATM   26  C2  UNL     1      24.060   9.163  48.215  1.00  0.00     0.344 C 
BRANCH  26  27
HETATM   27  O1  UNL     1      24.898   9.139  47.107  1.00  0.00    -0.371 OA
HETATM   28  C1  UNL     1      24.388   8.232  46.171  1.00  0.00     0.204 C 
ENDBRANCH  26  27
ENDBRANCH  25  26
ENDBRANCH   1  25
TORSDOF 5
ENDMDL
MODEL 8
REMARK VINA RESULT:      -7.1      5.245      8.287
REMARK  5 active torsions:
REMARK  status: ('A' for Active; 'I' for Inactive)
REMARK    1  A    between atoms: O1_2  and  C2_3 
REMARK    2  A    between atoms: C2_3  and  O2_4 
REMARK    3  A    between atoms: O2_4  and  C3_5 
REMARK    4  A    between atoms: C7_11  and  N3_12 
REMARK    5  A    between atoms: N3_12  and  C8_13 
ROOT
HETATM    1  C3  UNL     1      24.789   1.089  52.322  1.00  0.00     0.110 A 
HETATM    2  C4  UNL     1      25.901   1.624  51.707  1.00  0.00     0.072 A 
HETATM    3  C5  UNL     1      25.790   2.691  50.838  1.00  0.00     0.077 A 
HETATM    4  N1  UNL     1      26.848   3.252  50.210  1.00  0.00    -0.241 NA
HETATM    5  C6  UNL     1      26.715   4.290  49.370  1.00  0.00     0.236 A 
HETATM    6  N2  UNL     1      25.505   4.809  49.127  1.00  0.00    -0.223 NA
HETATM    7  C7  UNL     1      24.387   4.336  49.693  1.00  0.00     0.144 A 
HETATM    8  C14 UNL     1      24.579   3.277  50.540  1.00  0.00     0.075 A 
HETATM    9  C15 UNL     1      23.474   2.740  51.156  1.00  0.00     0.121 A 
HETATM   10  C16 UNL     1      23.568   1.674  52.025  1.00  0.00     0.136 A 
HETATM   11  O3  UNL     1      22.435   1.158  52.628  1.00  0.00    -0.344 OA
HETATM   12  C17 UNL     1      21.188   1.813  52.692  1.00  0.00     0.202 C 
HETATM   13  C18 UNL     1      21.167   3.126  51.975  1.00  0.00     0.202 C 
HETATM   14  O4  UNL     1      22.181   3.197  50.976  1.00  0.00    -0.345 OA
ENDROOT
BRANCH   7  15
HETATM   15  N3  UNL     1      23.153   4.950  49.380  1.00  0.00    -0.340 N 
HETATM   16  H8  UNL     1      22.277   5.237  49.844  1.00  0.00     0.167 HD
BRANCH  15  17
HETATM   17  C8  UNL     1      22.895   5.349  48.038  1.00  0.00     0.035 A 
HETATM   18  C9  UNL     1      23.202   6.590  47.462  1.00  0.00     0.032 A 
HETATM   19  C10 UNL     1      22.934   6.975  46.171  1.00  0.00     0.046 A 
HETATM   20  C11 UNL     1      22.302   6.069  45.351  1.00  0.00     0.138 A 
HETATM   21  F1  UNL     1      22.052   6.476  44.089  1.00  0.00    -0.204 F 
HETATM   22  C12 UNL     1      21.972   4.835  45.847  1.00  0.00     0.074 A 
HETATM   23 CL1  UNL     1      21.173   3.774  44.697  1.00  0.00    -0.081 Cl
HETATM   24  C13 UNL     1      22.261   4.495  47.146  1.00  0.00     0.056 A 
ENDBRANCH  15  17
ENDBRANCH   7  15
BRANCH   1  25
HETATM   25  O2  UNL     1      24.837   0.022  53.200  1.00  0.00    -0.323 OA
BRANCH  25  26
HETATM   26  C2  UNL     1      25.960  -0.763  53.457  1.00  0.00     0.344 C 
BRANCH  26  27
HETATM   27  O1  UNL     1      26.383  -0.516  54.756  1.00  0.00    -0.371 OA
HETATM   28  C1  UNL     1      27.626   0.128  54.715  1.00  0.00     0.204 C 
ENDBRANCH  26  27
ENDBRANCH  25  26
ENDBRANCH   1  25
TORSDOF 5
ENDMDL
MODEL 9
REMARK VINA RESULT:      -6.9      4.799      8.238
REMARK  5 active torsions:
REMARK  status: ('A' for Active; 'I' for Inactive)
REMARK    1  A    between atoms: O1_2  and  C2_3 
REMARK    2  A    between atoms: C2_3  and  O2_4 
REMARK    3  A    between atoms: O2_4  and  C3_5 
REMARK    4  A    between atoms: C7_11  and  N3_12 
REMARK    5  A    between atoms: N3_12  and  C8_13 
ROOT
HETATM    1  C3  UNL     1      24.123   1.950  51.656  1.00  0.00     0.110 A 
HETATM    2  C4  UNL     1      23.797   1.314  52.835  1.00  0.00     0.072 A 
HETATM    3  C5  UNL     1      22.553   0.744  53.016  1.00  0.00     0.077 A 
HETATM    4  N1  UNL     1      22.183   0.110  54.151  1.00  0.00    -0.241 NA
HETATM    5  C6  UNL     1      20.968  -0.438  54.303  1.00  0.00     0.236 A 
HETATM    6  N2  UNL     1      20.069  -0.370  53.314  1.00  0.00    -0.223 NA
HETATM    7  C7  UNL     1      20.325   0.233  52.145  1.00  0.00     0.144 A 
HETATM    8  C14 UNL     1      21.578   0.775  52.042  1.00  0.00     0.075 A 
HETATM    9  C15 UNL     1      21.908   1.410  50.869  1.00  0.00     0.121 A 
HETATM   10  C16 UNL     1      23.146   1.984  50.672  1.00  0.00     0.136 A 
HETATM   11  O3  UNL     1      23.446   2.615  49.479  1.00  0.00    -0.344 OA
HETATM   12  C17 UNL     1      22.710   2.470  48.285  1.00  0.00     0.202 C 
HETATM   13  C18 UNL     1      21.502   1.600  48.432  1.00  0.00     0.202 C 
HETATM   14  O4  UNL     1      21.059   1.538  49.785  1.00  0.00    -0.345 OA
ENDROOT
BRANCH   7  15
HETATM   15  N3  UNL     1      19.317   0.252  51.154  1.00  0.00    -0.340 N 
HETATM   16  H8  UNL     1      19.131  -0.127  50.213  1.00  0.00     0.167 HD
BRANCH  15  17
HETATM   17  C8  UNL     1      18.123   0.993  51.391  1.00  0.00     0.035 A 
HETATM   18  C9  UNL     1      17.998   2.389  51.419  1.00  0.00     0.032 A 
HETATM   19  C10 UNL     1      16.847   3.096  51.666  1.00  0.00     0.046 A 
HETATM   20  C11 UNL     1      15.698   2.382  51.914  1.00  0.00     0.138 A 
HETATM   21  F1  UNL     1      14.584   3.105  52.153  1.00  0.00    -0.204 F 
HETATM   22  C12 UNL     1      15.746   1.013  51.903  1.00  0.00     0.074 A 
HETATM   23 CL1  UNL     1      14.211   0.225  52.233  1.00  0.00    -0.081 Cl
HETATM   24  C13 UNL     1      16.921   0.349  51.651  1.00  0.00     0.056 A 
ENDBRANCH  15  17
ENDBRANCH   7  15
BRANCH   1  25
HETATM   25  O2  UNL     1      25.351   2.539  51.416  1.00  0.00    -0.323 OA
BRANCH  25  26
HETATM   26  C2  UNL     1      26.557   1.858  51.262  1.00  0.00     0.344 C 
BRANCH  26  27
HETATM   27  O1  UNL     1      27.552   2.569  51.922  1.00  0.00    -0.371 OA
HETATM   28  C1  UNL     1      27.785   1.976  53.168  1.00  0.00     0.204 C 
ENDBRANCH  26  27
ENDBRANCH  25  26
ENDBRANCH   1  25
TORSDOF 5
ENDMDL
