MODEL 1
REMARK VINA RESULT:      -8.5      0.000      0.000
REMARK  10 active torsions:
REMARK  status: ('A' for Active; 'I' for Inactive)
REMARK    1  A    between atoms: C4_5  and  C5_6 
REMARK    2  A    between atoms: C6_7  and  O1_8 
REMARK    3  A    between atoms: C8_10  and  O2_11 
REMARK    4  A    between atoms: C12_16  and  C13_17 
REMARK    5  A    between atoms: C13_17  and  C14_18 
REMARK    6  A    between atoms: C14_18  and  C15_19 
REMARK    7  A    between atoms: C15_19  and  C16_20 
REMARK    8  A    between atoms: C16_20  and  C17_21 
REMARK    9  A    between atoms: C17_21  and  C18_22 
REMARK   10  A    between atoms: C21_27  and  O5_28 
ROOT
HETATM    1  C5  UNL     1      22.236   1.054  52.796  1.00  0.00     0.017 A 
HETATM    2  C6  UNL     1      21.238   0.400  53.528  1.00  0.00     0.077 A 
HETATM    3  C7  UNL     1      21.405  -0.546  54.493  1.00  0.00     0.074 A 
HETATM    4  C8  UNL     1      22.697  -0.916  54.798  1.00  0.00     0.085 A 
HETATM    5  C9  UNL     1      23.741  -0.331  54.136  1.00  0.00     0.082 A 
HETATM    6  C10 UNL     1      25.036  -0.700  54.443  1.00  0.00     0.190 A 
HETATM    7  O3  UNL     1      25.252  -1.570  55.326  1.00  0.00    -0.287 OA
HETATM    8  C11 UNL     1      26.045  -0.073  53.738  1.00  0.00     0.093 A 
HETATM    9  C12 UNL     1      25.770   0.876  52.778  1.00  0.00     0.080 A 
HETATM   10  O4  UNL     1      24.519   1.172  52.544  1.00  0.00    -0.309 OA
HETATM   11  C20 UNL     1      23.516   0.622  53.167  1.00  0.00     0.102 A 
ENDROOT
BRANCH   1  12
HETATM   12  C4  UNL     1      21.887   2.058  51.792  1.00  0.00     0.056 C 
HETATM   13  C3  UNL     1      22.188   3.460  52.096  1.00  0.00     0.042 C 
HETATM   14  C2  UNL     1      23.225   4.008  51.152  1.00  0.00     0.272 C 
HETATM   15  N1  UNL     1      22.641   4.084  49.838  1.00  0.00     0.086 N 
HETATM   16  C1  UNL     1      21.873   5.252  49.572  1.00  0.00     0.310 C 
HETATM   17  C22 UNL     1      22.008   2.862  49.424  1.00  0.00     0.304 C 
HETATM   18  C21 UNL     1      22.388   1.744  50.397  1.00  0.00     0.155 C 
BRANCH  18  19
HETATM   19  O5  UNL     1      21.769   0.582  49.889  1.00  0.00    -0.393 OA
HETATM   20  H20 UNL     1      22.464  -0.085  49.768  1.00  0.00     0.210 HD
ENDBRANCH  18  19
ENDBRANCH   1  12
BRANCH   2  21
HETATM   21  O1  UNL     1      19.931   0.761  53.233  1.00  0.00    -0.360 OA
HETATM   22  H9  UNL     1      19.192   0.103  53.023  1.00  0.00     0.217 HD
ENDBRANCH   2  21
BRANCH   4  23
HETATM   23  O2  UNL     1      22.948  -1.867  55.763  1.00  0.00    -0.360 OA
HETATM   24  H11 UNL     1      22.898  -2.862  55.604  1.00  0.00     0.217 HD
ENDBRANCH   4  23
BRANCH   9  25
HETATM   25  C13 UNL     1      26.798   1.544  52.031  1.00  0.00     0.038 C 
BRANCH  25  26
HETATM   26  C14 UNL     1      26.588   2.550  51.201  1.00  0.00     0.011 C 
BRANCH  26  27
HETATM   27  C15 UNL     1      26.273   2.864  49.847  1.00  0.00     0.055 C 
BRANCH  27  28
HETATM   28  C16 UNL     1      26.744   3.969  49.277  1.00  0.00    -0.128 C 
BRANCH  28  29
HETATM   29  C17 UNL     1      27.517   4.857  48.706  1.00  0.00     0.056 C 
BRANCH  29  30
HETATM   30  C18 UNL     1      27.023   6.212  48.532  1.00  0.00     0.020 C 
HETATM   31  C19 UNL     1      28.219   6.664  48.108  1.00  0.00     0.085 C 
HETATM   32 CL1  UNL     1      29.476   5.430  48.048  1.00  0.00    -0.097 Cl
ENDBRANCH  29  30
ENDBRANCH  28  29
ENDBRANCH  27  28
ENDBRANCH  26  27
ENDBRANCH  25  26
ENDBRANCH   9  25
TORSDOF 10
ENDMDL
MODEL 2
REMARK VINA RESULT:      -8.3      2.132      4.607
REMARK  10 active torsions:
REMARK  status: ('A' for Active; 'I' for Inactive)
REMARK    1  A    between atoms: C4_5  and  C5_6 
REMARK    2  A    between atoms: C6_7  and  O1_8 
REMARK    3  A    between atoms: C8_10  and  O2_11 
REMARK    4  A    between atoms: C12_16  and  C13_17 
REMARK    5  A    between atoms: C13_17  and  C14_18 
REMARK    6  A    between atoms: C14_18  and  C15_19 
REMARK    7  A    between atoms: C15_19  and  C16_20 
REMARK    8  A    between atoms: C16_20  and  C17_21 
REMARK    9  A    between atoms: C17_21  and  C18_22 
REMARK   10  A    between atoms: C21_27  and  O5_28 
ROOT
HETATM    1  C5  UNL     1      24.543  -0.151  53.594  1.00  0.00     0.017 A 
HETATM    2  C6  UNL     1      24.086  -0.915  54.673  1.00  0.00     0.077 A 
HETATM    3  C7  UNL     1      22.793  -1.150  55.033  1.00  0.00     0.074 A 
HETATM    4  C8  UNL     1      21.809  -0.576  54.258  1.00  0.00     0.085 A 
HETATM    5  C9  UNL     1      22.157   0.189  53.179  1.00  0.00     0.082 A 
HETATM    6  C10 UNL     1      21.170   0.762  52.401  1.00  0.00     0.190 A 
HETATM    7  O3  UNL     1      19.958   0.580  52.686  1.00  0.00    -0.287 OA
HETATM    8  C11 UNL     1      21.588   1.522  51.327  1.00  0.00     0.093 A 
HETATM    9  C12 UNL     1      22.925   1.699  51.047  1.00  0.00     0.080 A 
HETATM   10  O4  UNL     1      23.800   1.124  51.829  1.00  0.00    -0.309 OA
HETATM   11  C20 UNL     1      23.481   0.394  52.860  1.00  0.00     0.102 A 
ENDROOT
BRANCH   1  12
HETATM   12  C4  UNL     1      25.975  -0.002  53.339  1.00  0.00     0.056 C 
HETATM   13  C3  UNL     1      26.725   0.928  54.188  1.00  0.00     0.042 C 
HETATM   14  C2  UNL     1      27.744   0.198  55.022  1.00  0.00     0.272 C 
HETATM   15  N1  UNL     1      28.758  -0.320  54.141  1.00  0.00     0.086 N 
HETATM   16  C1  UNL     1      29.792   0.591  53.790  1.00  0.00     0.310 C 
HETATM   17  C22 UNL     1      28.224  -1.056  53.028  1.00  0.00     0.304 C 
HETATM   18  C21 UNL     1      26.734  -1.310  53.262  1.00  0.00     0.155 C 
BRANCH  18  19
HETATM   19  O5  UNL     1      26.309  -2.075  52.153  1.00  0.00    -0.393 OA
HETATM   20  H20 UNL     1      25.570  -1.598  51.741  1.00  0.00     0.210 HD
ENDBRANCH  18  19
ENDBRANCH   1  12
BRANCH   2  21
HETATM   21  O1  UNL     1      25.065  -1.499  55.464  1.00  0.00    -0.360 OA
HETATM   22  H9  UNL     1      25.596  -2.318  55.201  1.00  0.00     0.217 HD
ENDBRANCH   2  21
BRANCH   4  23
HETATM   23  O2  UNL     1      20.477  -0.767  54.558  1.00  0.00    -0.360 OA
HETATM   24  H11 UNL     1      20.066  -1.666  54.760  1.00  0.00     0.217 HD
ENDBRANCH   4  23
BRANCH   9  25
HETATM   25  C13 UNL     1      23.388   2.483  49.937  1.00  0.00     0.038 C 
BRANCH  25  26
HETATM   26  C14 UNL     1      24.457   3.260  49.962  1.00  0.00     0.011 C 
BRANCH  26  27
HETATM   27  C15 UNL     1      25.879   3.241  50.066  1.00  0.00     0.055 C 
BRANCH  27  28
HETATM   28  C16 UNL     1      26.632   3.950  49.232  1.00  0.00    -0.128 C 
BRANCH  28  29
HETATM   29  C17 UNL     1      27.453   4.830  48.720  1.00  0.00     0.056 C 
BRANCH  29  30
HETATM   30  C18 UNL     1      26.987   6.191  48.512  1.00  0.00     0.020 C 
HETATM   31  C19 UNL     1      28.196   6.612  48.096  1.00  0.00     0.085 C 
HETATM   32 CL1  UNL     1      29.431   5.354  48.078  1.00  0.00    -0.097 Cl
ENDBRANCH  29  30
ENDBRANCH  28  29
ENDBRANCH  27  28
ENDBRANCH  26  27
ENDBRANCH  25  26
ENDBRANCH   9  25
TORSDOF 10
ENDMDL
MODEL 3
REMARK VINA RESULT:      -7.9      3.687      6.804
REMARK  10 active torsions:
REMARK  status: ('A' for Active; 'I' for Inactive)
REMARK    1  A    between atoms: C4_5  and  C5_6 
REMARK    2  A    between atoms: C6_7  and  O1_8 
REMARK    3  A    between atoms: C8_10  and  O2_11 
REMARK    4  A    between atoms: C12_16  and  C13_17 
REMARK    5  A    between atoms: C13_17  and  C14_18 
REMARK    6  A    between atoms: C14_18  and  C15_19 
REMARK    7  A    between atoms: C15_19  and  C16_20 
REMARK    8  A    between atoms: C16_20  and  C17_21 
REMARK    9  A    between atoms: C17_21  and  C18_22 
REMARK   10  A    between atoms: C21_27  and  O5_28 
ROOT
HETATM    1  C5  UNL     1      25.235   2.212  51.882  1.00  0.00     0.017 A 
HETATM    2  C6  UNL     1      26.629   2.241  52.001  1.00  0.00     0.077 A 
HETATM    3  C7  UNL     1      27.411   1.438  52.776  1.00  0.00     0.074 A 
HETATM    4  C8  UNL     1      26.774   0.482  53.538  1.00  0.00     0.085 A 
HETATM    5  C9  UNL     1      25.411   0.376  53.488  1.00  0.00     0.082 A 
HETATM    6  C10 UNL     1      24.774  -0.583  54.250  1.00  0.00     0.190 A 
HETATM    7  O3  UNL     1      25.444  -1.353  54.985  1.00  0.00    -0.287 OA
HETATM    8  C11 UNL     1      23.398  -0.638  54.155  1.00  0.00     0.093 A 
HETATM    9  C12 UNL     1      22.697   0.222  53.338  1.00  0.00     0.080 A 
HETATM   10  O4  UNL     1      23.371   1.102  52.647  1.00  0.00    -0.309 OA
HETATM   11  C20 UNL     1      24.669   1.214  52.686  1.00  0.00     0.102 A 
ENDROOT
BRANCH   1  12
HETATM   12  C4  UNL     1      24.543   3.145  50.995  1.00  0.00     0.056 C 
HETATM   13  C3  UNL     1      23.970   2.610  49.756  1.00  0.00     0.042 C 
HETATM   14  C2  UNL     1      22.468   2.722  49.763  1.00  0.00     0.272 C 
HETATM   15  N1  UNL     1      22.121   4.118  49.699  1.00  0.00     0.086 N 
HETATM   16  C1  UNL     1      22.094   4.687  48.396  1.00  0.00     0.310 C 
HETATM   17  C22 UNL     1      22.808   4.921  50.674  1.00  0.00     0.304 C 
HETATM   18  C21 UNL     1      23.501   4.003  51.683  1.00  0.00     0.155 C 
BRANCH  18  19
HETATM   19  O5  UNL     1      24.103   4.869  52.622  1.00  0.00    -0.393 OA
HETATM   20  H20 UNL     1      24.546   5.574  52.121  1.00  0.00     0.210 HD
ENDBRANCH  18  19
ENDBRANCH   1  12
BRANCH   2  21
HETATM   21  O1  UNL     1      27.286   3.198  51.241  1.00  0.00    -0.360 OA
HETATM   22  H9  UNL     1      28.271   3.168  51.015  1.00  0.00     0.217 HD
ENDBRANCH   2  21
BRANCH   4  23
HETATM   23  O2  UNL     1      27.496  -0.368  54.347  1.00  0.00    -0.360 OA
HETATM   24  H11 UNL     1      27.403  -0.409  55.351  1.00  0.00     0.217 HD
ENDBRANCH   4  23
BRANCH   9  25
HETATM   25  C13 UNL     1      21.267   0.187  53.219  1.00  0.00     0.038 C 
BRANCH  25  26
HETATM   26  C14 UNL     1      20.589   0.638  52.178  1.00  0.00     0.011 C 
BRANCH  26  27
HETATM   27  C15 UNL     1      19.390   0.453  51.431  1.00  0.00     0.055 C 
BRANCH  27  28
HETATM   28  C16 UNL     1      18.380  -0.253  51.929  1.00  0.00    -0.128 C 
BRANCH  28  29
HETATM   29  C17 UNL     1      17.658  -1.102  52.614  1.00  0.00     0.056 C 
BRANCH  29  30
HETATM   30  C18 UNL     1      16.321  -1.428  52.146  1.00  0.00     0.020 C 
HETATM   31  C19 UNL     1      16.280  -2.573  52.853  1.00  0.00     0.085 C 
HETATM   32 CL1  UNL     1      17.738  -2.892  53.792  1.00  0.00    -0.097 Cl
ENDBRANCH  29  30
ENDBRANCH  28  29
ENDBRANCH  27  28
ENDBRANCH  26  27
ENDBRANCH  25  26
ENDBRANCH   9  25
TORSDOF 10
ENDMDL
MODEL 4
REMARK VINA RESULT:      -7.9      1.669      1.993
REMARK  10 active torsions:
REMARK  status: ('A' for Active; 'I' for Inactive)
REMARK    1  A    between atoms: C4_5  and  C5_6 
REMARK    2  A    between atoms: C6_7  and  O1_8 
REMARK    3  A    between atoms: C8_10  and  O2_11 
REMARK    4  A    between atoms: C12_16  and  C13_17 
REMARK    5  A    between atoms: C13_17  and  C14_18 
REMARK    6  A    between atoms: C14_18  and  C15_19 
REMARK    7  A    between atoms: C15_19  and  C16_20 
REMARK    8  A    between atoms: C16_20  and  C17_21 
REMARK    9  A    between atoms: C17_21  and  C18_22 
REMARK   10  A    between atoms: C21_27  and  O5_28 
ROOT
HETATM    1  C5  UNL     1      21.933   0.643  52.645  1.00  0.00     0.017 A 
HETATM    2  C6  UNL     1      21.024  -0.056  53.446  1.00  0.00     0.077 A 
HETATM    3  C7  UNL     1      21.306  -0.887  54.489  1.00  0.00     0.074 A 
HETATM    4  C8  UNL     1      22.635  -1.073  54.805  1.00  0.00     0.085 A 
HETATM    5  C9  UNL     1      23.599  -0.430  54.078  1.00  0.00     0.082 A 
HETATM    6  C10 UNL     1      24.930  -0.615  54.397  1.00  0.00     0.190 A 
HETATM    7  O3  UNL     1      25.251  -1.372  55.350  1.00  0.00    -0.287 OA
HETATM    8  C11 UNL     1      25.853   0.061  53.625  1.00  0.00     0.093 A 
HETATM    9  C12 UNL     1      25.463   0.881  52.589  1.00  0.00     0.080 A 
HETATM   10  O4  UNL     1      24.185   1.006  52.349  1.00  0.00    -0.309 OA
HETATM   11  C20 UNL     1      23.257   0.399  53.033  1.00  0.00     0.102 A 
ENDROOT
BRANCH   1  12
HETATM   12  C4  UNL     1      21.463   1.505  51.562  1.00  0.00     0.056 C 
HETATM   13  C3  UNL     1      21.301   0.904  50.235  1.00  0.00     0.042 C 
HETATM   14  C2  UNL     1      19.854   0.906  49.813  1.00  0.00     0.272 C 
HETATM   15  N1  UNL     1      19.452   2.271  49.598  1.00  0.00     0.086 N 
HETATM   16  C1  UNL     1      19.760   2.810  48.318  1.00  0.00     0.310 C 
HETATM   17  C22 UNL     1      19.781   3.142  50.693  1.00  0.00     0.304 C 
HETATM   18  C21 UNL     1      20.217   2.299  51.892  1.00  0.00     0.155 C 
BRANCH  18  19
HETATM   19  O5  UNL     1      20.470   3.226  52.927  1.00  0.00    -0.393 OA
HETATM   20  H20 UNL     1      20.225   2.798  53.763  1.00  0.00     0.210 HD
ENDBRANCH  18  19
ENDBRANCH   1  12
BRANCH   2  21
HETATM   21  O1  UNL     1      19.682   0.120  53.141  1.00  0.00    -0.360 OA
HETATM   22  H9  UNL     1      19.114   0.883  53.485  1.00  0.00     0.217 HD
ENDBRANCH   2  21
BRANCH   4  23
HETATM   23  O2  UNL     1      23.001  -1.898  55.847  1.00  0.00    -0.360 OA
HETATM   24  H11 UNL     1      22.614  -2.816  56.003  1.00  0.00     0.217 HD
ENDBRANCH   4  23
BRANCH   9  25
HETATM   25  C13 UNL     1      26.401   1.597  51.771  1.00  0.00     0.038 C 
BRANCH  25  26
HETATM   26  C14 UNL     1      26.069   2.390  50.767  1.00  0.00     0.011 C 
BRANCH  26  27
HETATM   27  C15 UNL     1      26.567   2.990  49.574  1.00  0.00     0.055 C 
BRANCH  27  28
HETATM   28  C16 UNL     1      26.513   4.306  49.400  1.00  0.00    -0.128 C 
BRANCH  28  29
HETATM   29  C17 UNL     1      26.639   5.516  48.919  1.00  0.00     0.056 C 
BRANCH  29  30
HETATM   30  C18 UNL     1      27.907   5.911  48.329  1.00  0.00     0.020 C 
HETATM   31  C19 UNL     1      27.411   7.082  47.885  1.00  0.00     0.085 C 
HETATM   32 CL1  UNL     1      25.712   7.339  48.275  1.00  0.00    -0.097 Cl
ENDBRANCH  29  30
ENDBRANCH  28  29
ENDBRANCH  27  28
ENDBRANCH  26  27
ENDBRANCH  25  26
ENDBRANCH   9  25
TORSDOF 10
ENDMDL
MODEL 5
REMARK VINA RESULT:      -7.8      2.347      3.056
REMARK  10 active torsions:
REMARK  status: ('A' for Active; 'I' for Inactive)
REMARK    1  A    between atoms: C4_5  and  C5_6 
REMARK    2  A    between atoms: C6_7  and  O1_8 
REMARK    3  A    between atoms: C8_10  and  O2_11 
REMARK    4  A    between atoms: C12_16  and  C13_17 
REMARK    5  A    between atoms: C13_17  and  C14_18 
REMARK    6  A    between atoms: C14_18  and  C15_19 
REMARK    7  A    between atoms: C15_19  and  C16_20 
REMARK    8  A    between atoms: C16_20  and  C17_21 
REMARK    9  A    between atoms: C17_21  and  C18_22 
REMARK   10  A    between atoms: C21_27  and  O5_28 
ROOT
HETATM    1  C5  UNL     1      21.832   0.407  52.702  1.00  0.00     0.017 A 
HETATM    2  C6  UNL     1      20.987  -0.283  53.578  1.00  0.00     0.077 A 
HETATM    3  C7  UNL     1      21.348  -1.052  54.644  1.00  0.00     0.074 A 
HETATM    4  C8  UNL     1      22.695  -1.178  54.903  1.00  0.00     0.085 A 
HETATM    5  C9  UNL     1      23.601  -0.540  54.101  1.00  0.00     0.082 A 
HETATM    6  C10 UNL     1      24.951  -0.665  54.362  1.00  0.00     0.190 A 
HETATM    7  O3  UNL     1      25.344  -1.364  55.332  1.00  0.00    -0.287 OA
HETATM    8  C11 UNL     1      25.813   0.004  53.516  1.00  0.00     0.093 A 
HETATM    9  C12 UNL     1      25.345   0.759  52.463  1.00  0.00     0.080 A 
HETATM   10  O4  UNL     1      24.054   0.830  52.280  1.00  0.00    -0.309 OA
HETATM   11  C20 UNL     1      23.181   0.226  53.036  1.00  0.00     0.102 A 
ENDROOT
BRANCH   1  12
HETATM   12  C4  UNL     1      21.282   1.199  51.604  1.00  0.00     0.056 C 
HETATM   13  C3  UNL     1      20.188   0.614  50.823  1.00  0.00     0.042 C 
HETATM   14  C2  UNL     1      18.917   1.405  50.995  1.00  0.00     0.272 C 
HETATM   15  N1  UNL     1      19.101   2.691  50.374  1.00  0.00     0.086 N 
HETATM   16  C1  UNL     1      18.866   2.737  48.972  1.00  0.00     0.310 C 
HETATM   17  C22 UNL     1      20.307   3.355  50.787  1.00  0.00     0.304 C 
HETATM   18  C21 UNL     1      20.904   2.616  51.985  1.00  0.00     0.155 C 
BRANCH  18  19
HETATM   19  O5  UNL     1      22.047   3.360  52.350  1.00  0.00    -0.393 OA
HETATM   20  H20 UNL     1      22.311   3.882  51.575  1.00  0.00     0.210 HD
ENDBRANCH  18  19
ENDBRANCH   1  12
BRANCH   2  21
HETATM   21  O1  UNL     1      19.627  -0.167  53.331  1.00  0.00    -0.360 OA
HETATM   22  H9  UNL     1      19.233   0.201  52.476  1.00  0.00     0.217 HD
ENDBRANCH   2  21
BRANCH   4  23
HETATM   23  O2  UNL     1      23.140  -1.940  55.963  1.00  0.00    -0.360 OA
HETATM   24  H11 UNL     1      24.094  -1.951  56.290  1.00  0.00     0.217 HD
ENDBRANCH   4  23
BRANCH   9  25
HETATM   25  C13 UNL     1      26.218   1.466  51.567  1.00  0.00     0.038 C 
BRANCH  25  26
HETATM   26  C14 UNL     1      26.035   2.714  51.172  1.00  0.00     0.011 C 
BRANCH  26  27
HETATM   27  C15 UNL     1      25.575   3.508  50.082  1.00  0.00     0.055 C 
BRANCH  27  28
HETATM   28  C16 UNL     1      24.347   3.356  49.599  1.00  0.00    -0.128 C 
BRANCH  28  29
HETATM   29  C17 UNL     1      23.323   3.064  48.839  1.00  0.00     0.056 C 
BRANCH  29  30
HETATM   30  C18 UNL     1      22.754   4.102  47.995  1.00  0.00     0.020 C 
HETATM   31  C19 UNL     1      21.975   3.227  47.331  1.00  0.00     0.085 C 
HETATM   32 CL1  UNL     1      22.142   1.558  47.872  1.00  0.00    -0.097 Cl
ENDBRANCH  29  30
ENDBRANCH  28  29
ENDBRANCH  27  28
ENDBRANCH  26  27
ENDBRANCH  25  26
ENDBRANCH   9  25
TORSDOF 10
ENDMDL
MODEL 6
REMARK VINA RESULT:      -7.7      3.336      6.579
REMARK  10 active torsions:
REMARK  status: ('A' for Active; 'I' for Inactive)
REMARK    1  A    between atoms: C4_5  and  C5_6 
REMARK    2  A    between atoms: C6_7  and  O1_8 
REMARK    3  A    between atoms: C8_10  and  O2_11 
REMARK    4  A    between atoms: C12_16  and  C13_17 
REMARK    5  A    between atoms: C13_17  and  C14_18 
REMARK    6  A    between atoms: C14_18  and  C15_19 
REMARK    7  A    between atoms: C15_19  and  C16_20 
REMARK    8  A    between atoms: C16_20  and  C17_21 
REMARK    9  A    between atoms: C17_21  and  C18_22 
REMARK   10  A    between atoms: C21_27  and  O5_28 
ROOT
HETATM    1  C5  UNL     1      25.187   2.270  51.877  1.00  0.00     0.017 A 
HETATM    2  C6  UNL     1      26.584   2.257  51.946  1.00  0.00     0.077 A 
HETATM    3  C7  UNL     1      27.371   1.412  52.669  1.00  0.00     0.074 A 
HETATM    4  C8  UNL     1      26.735   0.452  53.427  1.00  0.00     0.085 A 
HETATM    5  C9  UNL     1      25.369   0.384  53.424  1.00  0.00     0.082 A 
HETATM    6  C10 UNL     1      24.733  -0.579  54.182  1.00  0.00     0.190 A 
HETATM    7  O3  UNL     1      25.407  -1.388  54.870  1.00  0.00    -0.287 OA
HETATM    8  C11 UNL     1      23.353  -0.595  54.136  1.00  0.00     0.093 A 
HETATM    9  C12 UNL     1      22.648   0.308  53.369  1.00  0.00     0.080 A 
HETATM   10  O4  UNL     1      23.321   1.189  52.679  1.00  0.00    -0.309 OA
HETATM   11  C20 UNL     1      24.622   1.265  52.673  1.00  0.00     0.102 A 
ENDROOT
BRANCH   1  12
HETATM   12  C4  UNL     1      24.490   3.246  51.043  1.00  0.00     0.056 C 
HETATM   13  C3  UNL     1      23.861   2.764  49.810  1.00  0.00     0.042 C 
HETATM   14  C2  UNL     1      22.363   2.913  49.872  1.00  0.00     0.272 C 
HETATM   15  N1  UNL     1      22.052   4.319  49.861  1.00  0.00     0.086 N 
HETATM   16  C1  UNL     1      21.996   4.928  48.577  1.00  0.00     0.310 C 
HETATM   17  C22 UNL     1      22.792   5.074  50.835  1.00  0.00     0.304 C 
HETATM   18  C21 UNL     1      23.495   4.109  51.791  1.00  0.00     0.155 C 
BRANCH  18  19
HETATM   19  O5  UNL     1      24.151   4.931  52.733  1.00  0.00    -0.393 OA
HETATM   20  H20 UNL     1      23.468   5.454  53.184  1.00  0.00     0.210 HD
ENDBRANCH  18  19
ENDBRANCH   1  12
BRANCH   2  21
HETATM   21  O1  UNL     1      27.240   3.218  51.189  1.00  0.00    -0.360 OA
HETATM   22  H9  UNL     1      28.243   3.262  51.069  1.00  0.00     0.217 HD
ENDBRANCH   2  21
BRANCH   4  23
HETATM   23  O2  UNL     1      27.462  -0.440  54.185  1.00  0.00    -0.360 OA
HETATM   24  H11 UNL     1      28.289  -0.196  54.708  1.00  0.00     0.217 HD
ENDBRANCH   4  23
BRANCH   9  25
HETATM   25  C13 UNL     1      21.214   0.314  53.302  1.00  0.00     0.038 C 
BRANCH  25  26
HETATM   26  C14 UNL     1      20.431  -0.573  53.891  1.00  0.00     0.011 C 
BRANCH  26  27
HETATM   27  C15 UNL     1      19.284  -1.394  53.688  1.00  0.00     0.055 C 
BRANCH  27  28
HETATM   28  C16 UNL     1      18.299  -1.001  52.888  1.00  0.00    -0.128 C 
BRANCH  28  29
HETATM   29  C17 UNL     1      17.611  -0.498  51.896  1.00  0.00     0.056 C 
BRANCH  29  30
HETATM   30  C18 UNL     1      16.271  -1.000  51.641  1.00  0.00     0.020 C 
HETATM   31  C19 UNL     1      16.243  -0.485  50.397  1.00  0.00     0.085 C 
HETATM   32 CL1  UNL     1      17.712   0.377  49.940  1.00  0.00    -0.097 Cl
ENDBRANCH  29  30
ENDBRANCH  28  29
ENDBRANCH  27  28
ENDBRANCH  26  27
ENDBRANCH  25  26
ENDBRANCH   9  25
TORSDOF 10
ENDMDL
MODEL 7
REMARK VINA RESULT:      -7.7      2.014      4.486
REMARK  10 active torsions:
REMARK  status: ('A' for Active; 'I' for Inactive)
REMARK    1  A    between atoms: C4_5  and  C5_6 
REMARK    2  A    between atoms: C6_7  and  O1_8 
REMARK    3  A    between atoms: C8_10  and  O2_11 
REMARK    4  A    between atoms: C12_16  and  C13_17 
REMARK    5  A    between atoms: C13_17  and  C14_18 
REMARK    6  A    between atoms: C14_18  and  C15_19 
REMARK    7  A    between atoms: C15_19  and  C16_20 
REMARK    8  A    between atoms: C16_20  and  C17_21 
REMARK    9  A    between atoms: C17_21  and  C18_22 
REMARK   10  A    between atoms: C21_27  and  O5_28 
ROOT
HETATM    1  C5  UNL     1      23.553   0.441  53.031  1.00  0.00     0.017 A 
HETATM    2  C6  UNL     1      22.646  -0.334  53.763  1.00  0.00     0.077 A 
HETATM    3  C7  UNL     1      21.329  -0.549  53.489  1.00  0.00     0.074 A 
HETATM    4  C8  UNL     1      20.812   0.060  52.366  1.00  0.00     0.085 A 
HETATM    5  C9  UNL     1      21.621   0.838  51.585  1.00  0.00     0.082 A 
HETATM    6  C10 UNL     1      21.102   1.446  50.459  1.00  0.00     0.190 A 
HETATM    7  O3  UNL     1      19.892   1.284  50.155  1.00  0.00    -0.287 OA
HETATM    8  C11 UNL     1      21.971   2.218  49.713  1.00  0.00     0.093 A 
HETATM    9  C12 UNL     1      23.291   2.372  50.077  1.00  0.00     0.080 A 
HETATM   10  O4  UNL     1      23.708   1.765  51.156  1.00  0.00    -0.309 OA
HETATM   11  C20 UNL     1      22.947   1.021  51.909  1.00  0.00     0.102 A 
ENDROOT
BRANCH   1  12
HETATM   12  C4  UNL     1      24.944   0.565  53.460  1.00  0.00     0.056 C 
HETATM   13  C3  UNL     1      25.854  -0.542  53.152  1.00  0.00     0.042 C 
HETATM   14  C2  UNL     1      26.929  -0.108  52.191  1.00  0.00     0.272 C 
HETATM   15  N1  UNL     1      27.785   0.830  52.869  1.00  0.00     0.086 N 
HETATM   16  C1  UNL     1      28.816   0.259  53.665  1.00  0.00     0.310 C 
HETATM   17  C22 UNL     1      27.066   1.892  53.517  1.00  0.00     0.304 C 
HETATM   18  C21 UNL     1      25.608   1.866  53.057  1.00  0.00     0.155 C 
BRANCH  18  19
HETATM   19  O5  UNL     1      24.995   2.964  53.700  1.00  0.00    -0.393 OA
HETATM   20  H20 UNL     1      24.775   2.682  54.603  1.00  0.00     0.210 HD
ENDBRANCH  18  19
ENDBRANCH   1  12
BRANCH   2  21
HETATM   21  O1  UNL     1      23.151  -0.953  54.898  1.00  0.00    -0.360 OA
HETATM   22  H9  UNL     1      22.975  -0.643  55.843  1.00  0.00     0.217 HD
ENDBRANCH   2  21
BRANCH   4  23
HETATM   23  O2  UNL     1      19.488  -0.110  52.022  1.00  0.00    -0.360 OA
HETATM   24  H11 UNL     1      18.894   0.630  51.676  1.00  0.00     0.217 HD
ENDBRANCH   4  23
BRANCH   9  25
HETATM   25  C13 UNL     1      24.216   3.168  49.321  1.00  0.00     0.038 C 
BRANCH  25  26
HETATM   26  C14 UNL     1      25.078   4.019  49.849  1.00  0.00     0.011 C 
BRANCH  26  27
HETATM   27  C15 UNL     1      25.614   5.332  49.709  1.00  0.00     0.055 C 
BRANCH  27  28
HETATM   28  C16 UNL     1      26.600   5.578  48.852  1.00  0.00    -0.128 C 
BRANCH  28  29
HETATM   29  C17 UNL     1      27.612   6.116  48.223  1.00  0.00     0.056 C 
BRANCH  29  30
HETATM   30  C18 UNL     1      28.924   5.503  48.345  1.00  0.00     0.020 C 
HETATM   31  C19 UNL     1      29.523   6.490  47.652  1.00  0.00     0.085 C 
HETATM   32 CL1  UNL     1      28.425   7.756  47.104  1.00  0.00    -0.097 Cl
ENDBRANCH  29  30
ENDBRANCH  28  29
ENDBRANCH  27  28
ENDBRANCH  26  27
ENDBRANCH  25  26
ENDBRANCH   9  25
TORSDOF 10
ENDMDL
MODEL 8
REMARK VINA RESULT:      -7.4      1.704      2.604
REMARK  10 active torsions:
REMARK  status: ('A' for Active; 'I' for Inactive)
REMARK    1  A    between atoms: C4_5  and  C5_6 
REMARK    2  A    between atoms: C6_7  and  O1_8 
REMARK    3  A    between atoms: C8_10  and  O2_11 
REMARK    4  A    between atoms: C12_16  and  C13_17 
REMARK    5  A    between atoms: C13_17  and  C14_18 
REMARK    6  A    between atoms: C14_18  and  C15_19 
REMARK    7  A    between atoms: C15_19  and  C16_20 
REMARK    8  A    between atoms: C16_20  and  C17_21 
REMARK    9  A    between atoms: C17_21  and  C18_22 
REMARK   10  A    between atoms: C21_27  and  O5_28 
ROOT
HETATM    1  C5  UNL     1      23.018   1.197  52.568  1.00  0.00     0.017 A 
HETATM    2  C6  UNL     1      22.974   0.127  53.469  1.00  0.00     0.077 A 
HETATM    3  C7  UNL     1      24.026  -0.574  53.977  1.00  0.00     0.074 A 
HETATM    4  C8  UNL     1      25.288  -0.202  53.565  1.00  0.00     0.085 A 
HETATM    5  C9  UNL     1      25.434   0.835  52.685  1.00  0.00     0.082 A 
HETATM    6  C10 UNL     1      26.698   1.208  52.274  1.00  0.00     0.190 A 
HETATM    7  O3  UNL     1      27.709   0.597  52.708  1.00  0.00    -0.287 OA
HETATM    8  C11 UNL     1      26.777   2.261  51.385  1.00  0.00     0.093 A 
HETATM    9  C12 UNL     1      25.648   2.907  50.931  1.00  0.00     0.080 A 
HETATM   10  O4  UNL     1      24.486   2.496  51.365  1.00  0.00    -0.309 OA
HETATM   11  C20 UNL     1      24.334   1.510  52.203  1.00  0.00     0.102 A 
ENDROOT
BRANCH   1  12
HETATM   12  C4  UNL     1      21.788   1.849  52.124  1.00  0.00     0.056 C 
HETATM   13  C3  UNL     1      21.722   3.311  52.212  1.00  0.00     0.042 C 
HETATM   14  C2  UNL     1      21.620   3.931  50.843  1.00  0.00     0.272 C 
HETATM   15  N1  UNL     1      20.337   3.585  50.288  1.00  0.00     0.086 N 
HETATM   16  C1  UNL     1      19.253   4.419  50.677  1.00  0.00     0.310 C 
HETATM   17  C22 UNL     1      20.047   2.179  50.356  1.00  0.00     0.304 C 
HETATM   18  C21 UNL     1      21.316   1.422  50.750  1.00  0.00     0.155 C 
BRANCH  18  19
HETATM   19  O5  UNL     1      20.953   0.058  50.743  1.00  0.00    -0.393 OA
HETATM   20  H20 UNL     1      21.710  -0.443  51.088  1.00  0.00     0.210 HD
ENDBRANCH  18  19
ENDBRANCH   1  12
BRANCH   2  21
HETATM   21  O1  UNL     1      21.710  -0.260  53.894  1.00  0.00    -0.360 OA
HETATM   22  H9  UNL     1      20.906   0.351  53.923  1.00  0.00     0.217 HD
ENDBRANCH   2  21
BRANCH   4  23
HETATM   23  O2  UNL     1      26.403  -0.862  54.033  1.00  0.00    -0.360 OA
HETATM   24  H11 UNL     1      27.336  -0.477  54.020  1.00  0.00     0.217 HD
ENDBRANCH   4  23
BRANCH   9  25
HETATM   25  C13 UNL     1      25.700   4.004  50.007  1.00  0.00     0.038 C 
BRANCH  25  26
HETATM   26  C14 UNL     1      26.735   4.286  49.235  1.00  0.00     0.011 C 
BRANCH  26  27
HETATM   27  C15 UNL     1      27.406   5.355  48.573  1.00  0.00     0.055 C 
BRANCH  27  28
HETATM   28  C16 UNL     1      28.707   5.283  48.310  1.00  0.00    -0.128 C 
BRANCH  28  29
HETATM   29  C17 UNL     1      29.968   5.574  48.119  1.00  0.00     0.056 C 
BRANCH  29  30
HETATM   30  C18 UNL     1      30.430   6.923  48.397  1.00  0.00     0.020 C 
HETATM   31  C19 UNL     1      31.615   6.713  47.794  1.00  0.00     0.085 C 
HETATM   32 CL1  UNL     1      31.807   5.092  47.127  1.00  0.00    -0.097 Cl
ENDBRANCH  29  30
ENDBRANCH  28  29
ENDBRANCH  27  28
ENDBRANCH  26  27
ENDBRANCH  25  26
ENDBRANCH   9  25
TORSDOF 10
ENDMDL
MODEL 9
REMARK VINA RESULT:      -7.3      1.727      2.497
REMARK  10 active torsions:
REMARK  status: ('A' for Active; 'I' for Inactive)
REMARK    1  A    between atoms: C4_5  and  C5_6 
REMARK    2  A    between atoms: C6_7  and  O1_8 
REMARK    3  A    between atoms: C8_10  and  O2_11 
REMARK    4  A    between atoms: C12_16  and  C13_17 
REMARK    5  A    between atoms: C13_17  and  C14_18 
REMARK    6  A    between atoms: C14_18  and  C15_19 
REMARK    7  A    between atoms: C15_19  and  C16_20 
REMARK    8  A    between atoms: C16_20  and  C17_21 
REMARK    9  A    between atoms: C17_21  and  C18_22 
REMARK   10  A    between atoms: C21_27  and  O5_28 
ROOT
HETATM    1  C5  UNL     1      22.927   1.225  52.537  1.00  0.00     0.017 A 
HETATM    2  C6  UNL     1      22.773   0.170  53.444  1.00  0.00     0.077 A 
HETATM    3  C7  UNL     1      23.753  -0.609  53.983  1.00  0.00     0.074 A 
HETATM    4  C8  UNL     1      25.050  -0.343  53.602  1.00  0.00     0.085 A 
HETATM    5  C9  UNL     1      25.302   0.670  52.719  1.00  0.00     0.082 A 
HETATM    6  C10 UNL     1      26.603   0.937  52.339  1.00  0.00     0.190 A 
HETATM    7  O3  UNL     1      27.549   0.250  52.804  1.00  0.00    -0.287 OA
HETATM    8  C11 UNL     1      26.789   1.972  51.445  1.00  0.00     0.093 A 
HETATM    9  C12 UNL     1      25.728   2.702  50.957  1.00  0.00     0.080 A 
HETATM   10  O4  UNL     1      24.526   2.390  51.364  1.00  0.00    -0.309 OA
HETATM   11  C20 UNL     1      24.273   1.427  52.204  1.00  0.00     0.102 A 
ENDROOT
BRANCH   1  12
HETATM   12  C4  UNL     1      21.765   1.970  52.056  1.00  0.00     0.056 C 
HETATM   13  C3  UNL     1      21.836   3.434  52.083  1.00  0.00     0.042 C 
HETATM   14  C2  UNL     1      21.799   4.003  50.689  1.00  0.00     0.272 C 
HETATM   15  N1  UNL     1      20.492   3.756  50.138  1.00  0.00     0.086 N 
HETATM   16  C1  UNL     1      19.489   4.703  50.483  1.00  0.00     0.310 C 
HETATM   17  C22 UNL     1      20.071   2.387  50.261  1.00  0.00     0.304 C 
HETATM   18  C21 UNL     1      21.262   1.532  50.696  1.00  0.00     0.155 C 
BRANCH  18  19
HETATM   19  O5  UNL     1      20.773   0.209  50.743  1.00  0.00    -0.393 OA
HETATM   20  H20 UNL     1      20.303   0.105  51.587  1.00  0.00     0.210 HD
ENDBRANCH  18  19
ENDBRANCH   1  12
BRANCH   2  21
HETATM   21  O1  UNL     1      21.473  -0.110  53.837  1.00  0.00    -0.360 OA
HETATM   22  H9  UNL     1      21.200  -0.338  54.784  1.00  0.00     0.217 HD
ENDBRANCH   2  21
BRANCH   4  23
HETATM   23  O2  UNL     1      26.097  -1.087  54.104  1.00  0.00    -0.360 OA
HETATM   24  H11 UNL     1      27.057  -0.778  54.113  1.00  0.00     0.217 HD
ENDBRANCH   4  23
BRANCH   9  25
HETATM   25  C13 UNL     1      25.892   3.784  50.027  1.00  0.00     0.038 C 
BRANCH  25  26
HETATM   26  C14 UNL     1      26.941   3.942  49.239  1.00  0.00     0.011 C 
BRANCH  26  27
HETATM   27  C15 UNL     1      27.786   4.927  48.649  1.00  0.00     0.055 C 
BRANCH  27  28
HETATM   28  C16 UNL     1      27.314   6.129  48.336  1.00  0.00    -0.128 C 
BRANCH  28  29
HETATM   29  C17 UNL     1      26.862   7.356  48.393  1.00  0.00     0.056 C 
BRANCH  29  30
HETATM   30  C18 UNL     1      25.734   7.731  47.557  1.00  0.00     0.020 C 
HETATM   31  C19 UNL     1      25.870   9.039  47.846  1.00  0.00     0.085 C 
HETATM   32 CL1  UNL     1      27.201   9.401  48.943  1.00  0.00    -0.097 Cl
ENDBRANCH  29  30
ENDBRANCH  28  29
ENDBRANCH  27  28
ENDBRANCH  26  27
ENDBRANCH  25  26
ENDBRANCH   9  25
TORSDOF 10
ENDMDL
