MODEL 1
REMARK VINA RESULT:      -8.6      0.000      0.000
REMARK  4 active torsions:
REMARK  status: ('A' for Active; 'I' for Inactive)
REMARK    1  A    between atoms: C4_4  and  C5_5 
REMARK    2  A    between atoms: C5_5  and  C6_6 
REMARK    3  A    between atoms: C11_12  and  N2_13 
REMARK    4  A    between atoms: N2_13  and  C12_14 
ROOT
HETATM    1  C6  UNL     1      24.236  -0.213  53.073  1.00  0.00    -0.011 C 
HETATM    2  C7  UNL     1      22.946  -0.389  53.294  1.00  0.00     0.005 A 
HETATM    3  C8  UNL     1      22.452  -1.182  54.407  1.00  0.00     0.012 A 
HETATM    4  C9  UNL     1      21.136  -1.275  54.511  1.00  0.00    -0.004 A 
HETATM    5  C10 UNL     1      20.151  -0.637  53.587  1.00  0.00     0.178 A 
HETATM    6  N1  UNL     1      20.754   0.117  52.532  1.00  0.00    -0.268 NA
HETATM    7  C11 UNL     1      22.013   0.246  52.376  1.00  0.00     0.133 A 
ENDROOT
BRANCH   7   8
HETATM    8  N2  UNL     1      22.416   1.034  51.266  1.00  0.00    -0.341 N 
HETATM    9  H13 UNL     1      22.313   0.568  50.315  1.00  0.00     0.167 HD
BRANCH   8  10
HETATM   10  C12 UNL     1      22.934   2.352  51.304  1.00  0.00     0.035 A 
HETATM   11  C13 UNL     1      22.404   3.279  52.192  1.00  0.00     0.032 A 
HETATM   12  C14 UNL     1      22.858   4.578  52.276  1.00  0.00     0.046 A 
HETATM   13  C15 UNL     1      23.871   5.015  51.471  1.00  0.00     0.133 A 
HETATM   14  F1  UNL     1      24.270   6.301  51.605  1.00  0.00    -0.205 F 
HETATM   15  C16 UNL     1      24.433   4.131  50.569  1.00  0.00     0.051 A 
HETATM   16 BR1  UNL     1      25.832   4.715  49.449  1.00  0.00    -0.048 Br
HETATM   17  C17 UNL     1      23.945   2.844  50.522  1.00  0.00     0.051 A 
ENDBRANCH   8  10
ENDBRANCH   7   8
BRANCH   1  18
HETATM   18  C5  UNL     1      25.424  -0.711  53.806  1.00  0.00     0.040 C 
BRANCH  18  19
HETATM   19  C4  UNL     1      26.706  -0.423  53.050  1.00  0.00     0.034 A 
HETATM   20  C3  UNL     1      27.712   0.230  53.893  1.00  0.00    -0.011 A 
HETATM   21  C2  UNL     1      27.966   1.407  53.345  1.00  0.00    -0.065 A 
HETATM   22  C1  UNL     1      28.877   2.501  53.731  1.00  0.00     0.048 C 
HETATM   23  C19 UNL     1      27.169   1.600  52.142  1.00  0.00     0.003 A 
HETATM   24  C18 UNL     1      26.417   0.527  51.950  1.00  0.00    -0.017 A 
ENDBRANCH  18  19
ENDBRANCH   1  18
TORSDOF 4
ENDMDL
MODEL 2
REMARK VINA RESULT:      -8.5      2.169      5.049
REMARK  4 active torsions:
REMARK  status: ('A' for Active; 'I' for Inactive)
REMARK    1  A    between atoms: C4_4  and  C5_5 
REMARK    2  A    between atoms: C5_5  and  C6_6 
REMARK    3  A    between atoms: C11_12  and  N2_13 
REMARK    4  A    between atoms: N2_13  and  C12_14 
ROOT
HETATM    1  C6  UNL     1      25.157   0.029  53.369  1.00  0.00    -0.011 C 
HETATM    2  C7  UNL     1      26.404   0.398  53.594  1.00  0.00     0.005 A 
HETATM    3  C8  UNL     1      27.084   0.109  54.845  1.00  0.00     0.012 A 
HETATM    4  C9  UNL     1      28.333   0.537  54.936  1.00  0.00    -0.004 A 
HETATM    5  C10 UNL     1      29.072   1.275  53.868  1.00  0.00     0.178 A 
HETATM    6  N1  UNL     1      28.301   1.500  52.685  1.00  0.00    -0.268 NA
HETATM    7  C11 UNL     1      27.095   1.116  52.533  1.00  0.00     0.133 A 
ENDROOT
BRANCH   7   8
HETATM    8  N2  UNL     1      26.501   1.437  51.285  1.00  0.00    -0.341 N 
HETATM    9  H13 UNL     1      26.496   0.651  50.568  1.00  0.00     0.167 HD
BRANCH   8  10
HETATM   10  C12 UNL     1      25.930   2.677  50.909  1.00  0.00     0.035 A 
HETATM   11  C13 UNL     1      26.539   3.451  49.930  1.00  0.00     0.032 A 
HETATM   12  C14 UNL     1      26.039   4.670  49.522  1.00  0.00     0.046 A 
HETATM   13  C15 UNL     1      24.898   5.175  50.076  1.00  0.00     0.133 A 
HETATM   14  F1  UNL     1      24.461   6.375  49.629  1.00  0.00    -0.205 F 
HETATM   15  C16 UNL     1      24.253   4.443  51.056  1.00  0.00     0.051 A 
HETATM   16 BR1  UNL     1      22.677   5.124  51.834  1.00  0.00    -0.048 Br
HETATM   17  C17 UNL     1      24.791   3.232  51.431  1.00  0.00     0.051 A 
ENDBRANCH   8  10
ENDBRANCH   7   8
BRANCH   1  18
HETATM   18  C5  UNL     1      24.192  -0.703  54.222  1.00  0.00     0.040 C 
BRANCH  18  19
HETATM   19  C4  UNL     1      22.843  -0.845  53.544  1.00  0.00     0.034 A 
HETATM   20  C3  UNL     1      22.520   0.313  52.704  1.00  0.00    -0.011 A 
HETATM   21  C2  UNL     1      21.415   0.847  53.197  1.00  0.00    -0.065 A 
HETATM   22  C1  UNL     1      20.614   2.016  52.787  1.00  0.00     0.048 C 
HETATM   23  C19 UNL     1      20.952   0.099  54.358  1.00  0.00     0.003 A 
HETATM   24  C18 UNL     1      21.784  -0.907  54.578  1.00  0.00    -0.017 A 
ENDBRANCH  18  19
ENDBRANCH   1  18
TORSDOF 4
ENDMDL
MODEL 3
REMARK VINA RESULT:      -8.5      2.837      5.873
REMARK  4 active torsions:
REMARK  status: ('A' for Active; 'I' for Inactive)
REMARK    1  A    between atoms: C4_4  and  C5_5 
REMARK    2  A    between atoms: C5_5  and  C6_6 
REMARK    3  A    between atoms: C11_12  and  N2_13 
REMARK    4  A    between atoms: N2_13  and  C12_14 
ROOT
HETATM    1  C6  UNL     1      26.407   1.671  51.691  1.00  0.00    -0.011 C 
HETATM    2  C7  UNL     1      27.128   1.229  52.705  1.00  0.00     0.005 A 
HETATM    3  C8  UNL     1      28.341   1.898  53.142  1.00  0.00     0.012 A 
HETATM    4  C9  UNL     1      28.966   1.348  54.171  1.00  0.00    -0.004 A 
HETATM    5  C10 UNL     1      28.520   0.119  54.894  1.00  0.00     0.178 A 
HETATM    6  N1  UNL     1      27.316  -0.450  54.375  1.00  0.00    -0.268 NA
HETATM    7  C11 UNL     1      26.666   0.030  53.388  1.00  0.00     0.133 A 
ENDROOT
BRANCH   7   8
HETATM    8  N2  UNL     1      25.493  -0.681  53.021  1.00  0.00    -0.341 N 
HETATM    9  H13 UNL     1      25.645  -1.495  52.353  1.00  0.00     0.167 HD
BRANCH   8  10
HETATM   10  C12 UNL     1      24.170  -0.414  53.448  1.00  0.00     0.035 A 
HETATM   11  C13 UNL     1      23.652  -1.075  54.554  1.00  0.00     0.032 A 
HETATM   12  C14 UNL     1      22.371  -0.865  55.018  1.00  0.00     0.046 A 
HETATM   13  C15 UNL     1      21.541   0.022  54.395  1.00  0.00     0.133 A 
HETATM   14  F1  UNL     1      20.297   0.181  54.903  1.00  0.00    -0.205 F 
HETATM   15  C16 UNL     1      22.009   0.707  53.289  1.00  0.00     0.051 A 
HETATM   16 BR1  UNL     1      20.878   1.936  52.415  1.00  0.00    -0.048 Br
HETATM   17  C17 UNL     1      23.295   0.463  52.862  1.00  0.00     0.051 A 
ENDBRANCH   8  10
ENDBRANCH   7   8
BRANCH   1  18
HETATM   18  C5  UNL     1      26.595   2.841  50.803  1.00  0.00     0.040 C 
BRANCH  18  19
HETATM   19  C4  UNL     1      25.350   3.705  50.746  1.00  0.00     0.034 A 
HETATM   20  C3  UNL     1      24.130   2.908  50.579  1.00  0.00    -0.011 A 
HETATM   21  C2  UNL     1      23.578   3.288  49.439  1.00  0.00    -0.065 A 
HETATM   22  C1  UNL     1      22.352   2.855  48.742  1.00  0.00     0.048 C 
HETATM   23  C19 UNL     1      24.373   4.327  48.800  1.00  0.00     0.003 A 
HETATM   24  C18 UNL     1      25.426   4.587  49.559  1.00  0.00    -0.017 A 
ENDBRANCH  18  19
ENDBRANCH   1  18
TORSDOF 4
ENDMDL
MODEL 4
REMARK VINA RESULT:      -8.4      1.904      2.741
REMARK  4 active torsions:
REMARK  status: ('A' for Active; 'I' for Inactive)
REMARK    1  A    between atoms: C4_4  and  C5_5 
REMARK    2  A    between atoms: C5_5  and  C6_6 
REMARK    3  A    between atoms: C11_12  and  N2_13 
REMARK    4  A    between atoms: N2_13  and  C12_14 
ROOT
HETATM    1  C6  UNL     1      23.887   0.788  53.087  1.00  0.00    -0.011 C 
HETATM    2  C7  UNL     1      22.843   1.033  52.318  1.00  0.00     0.005 A 
HETATM    3  C8  UNL     1      21.808   0.041  52.077  1.00  0.00     0.012 A 
HETATM    4  C9  UNL     1      20.817   0.420  51.285  1.00  0.00    -0.004 A 
HETATM    5  C10 UNL     1      20.694   1.762  50.640  1.00  0.00     0.178 A 
HETATM    6  N1  UNL     1      21.770   2.652  50.950  1.00  0.00    -0.268 NA
HETATM    7  C11 UNL     1      22.753   2.349  51.703  1.00  0.00     0.133 A 
ENDROOT
BRANCH   7   8
HETATM    8  N2  UNL     1      23.722   3.370  51.888  1.00  0.00    -0.341 N 
HETATM    9  H13 UNL     1      23.683   3.870  52.826  1.00  0.00     0.167 HD
BRANCH   8  10
HETATM   10  C12 UNL     1      24.711   3.780  50.961  1.00  0.00     0.035 A 
HETATM   11  C13 UNL     1      25.699   2.889  50.563  1.00  0.00     0.032 A 
HETATM   12  C14 UNL     1      26.693   3.226  49.669  1.00  0.00     0.046 A 
HETATM   13  C15 UNL     1      26.747   4.477  49.125  1.00  0.00     0.133 A 
HETATM   14  F1  UNL     1      27.747   4.740  48.253  1.00  0.00    -0.205 F 
HETATM   15  C16 UNL     1      25.785   5.401  49.488  1.00  0.00     0.051 A 
HETATM   16 BR1  UNL     1      25.841   7.135  48.748  1.00  0.00    -0.048 Br
HETATM   17  C17 UNL     1      24.813   5.019  50.385  1.00  0.00     0.051 A 
ENDBRANCH   8  10
ENDBRANCH   7   8
BRANCH   1  18
HETATM   18  C5  UNL     1      24.271  -0.425  53.846  1.00  0.00     0.040 C 
BRANCH  18  19
HETATM   19  C4  UNL     1      25.775  -0.531  54.005  1.00  0.00     0.034 A 
HETATM   20  C3  UNL     1      26.378   0.736  54.433  1.00  0.00    -0.011 A 
HETATM   21  C2  UNL     1      27.221   1.099  53.481  1.00  0.00    -0.065 A 
HETATM   22  C1  UNL     1      28.111   2.268  53.342  1.00  0.00     0.048 C 
HETATM   23  C19 UNL     1      27.230   0.126  52.397  1.00  0.00     0.003 A 
HETATM   24  C18 UNL     1      26.380  -0.846  52.689  1.00  0.00    -0.017 A 
ENDBRANCH  18  19
ENDBRANCH   1  18
TORSDOF 4
ENDMDL
MODEL 5
REMARK VINA RESULT:      -8.3      1.896      4.771
REMARK  4 active torsions:
REMARK  status: ('A' for Active; 'I' for Inactive)
REMARK    1  A    between atoms: C4_4  and  C5_5 
REMARK    2  A    between atoms: C5_5  and  C6_6 
REMARK    3  A    between atoms: C11_12  and  N2_13 
REMARK    4  A    between atoms: N2_13  and  C12_14 
ROOT
HETATM    1  C6  UNL     1      24.853   0.231  53.242  1.00  0.00    -0.011 C 
HETATM    2  C7  UNL     1      26.062   0.746  53.366  1.00  0.00     0.005 A 
HETATM    3  C8  UNL     1      26.952   0.380  54.455  1.00  0.00     0.012 A 
HETATM    4  C9  UNL     1      28.136   0.973  54.458  1.00  0.00    -0.004 A 
HETATM    5  C10 UNL     1      28.606   1.965  53.444  1.00  0.00     0.178 A 
HETATM    6  N1  UNL     1      27.645   2.245  52.423  1.00  0.00    -0.268 NA
HETATM    7  C11 UNL     1      26.490   1.710  52.363  1.00  0.00     0.133 A 
ENDROOT
BRANCH   7   8
HETATM    8  N2  UNL     1      25.680   2.120  51.271  1.00  0.00    -0.341 N 
HETATM    9  H13 UNL     1      25.816   1.568  50.372  1.00  0.00     0.167 HD
BRANCH   8  10
HETATM   10  C12 UNL     1      24.731   3.171  51.265  1.00  0.00     0.035 A 
HETATM   11  C13 UNL     1      24.100   3.542  52.446  1.00  0.00     0.032 A 
HETATM   12  C14 UNL     1      23.165   4.553  52.507  1.00  0.00     0.046 A 
HETATM   13  C15 UNL     1      22.814   5.247  51.386  1.00  0.00     0.133 A 
HETATM   14  F1  UNL     1      21.891   6.228  51.516  1.00  0.00    -0.205 F 
HETATM   15  C16 UNL     1      23.414   4.918  50.184  1.00  0.00     0.051 A 
HETATM   16 BR1  UNL     1      22.944   5.865  48.624  1.00  0.00    -0.048 Br
HETATM   17  C17 UNL     1      24.342   3.900  50.172  1.00  0.00     0.051 A 
ENDBRANCH   8  10
ENDBRANCH   7   8
BRANCH   1  18
HETATM   18  C5  UNL     1      24.128  -0.757  54.075  1.00  0.00     0.040 C 
BRANCH  18  19
HETATM   19  C4  UNL     1      22.689  -0.917  53.625  1.00  0.00     0.034 A 
HETATM   20  C3  UNL     1      22.285   0.128  52.679  1.00  0.00    -0.011 A 
HETATM   21  C2  UNL     1      21.286   0.787  53.241  1.00  0.00    -0.065 A 
HETATM   22  C1  UNL     1      20.474   1.930  52.782  1.00  0.00     0.048 C 
HETATM   23  C19 UNL     1      20.976   0.238  54.554  1.00  0.00     0.003 A 
HETATM   24  C18 UNL     1      21.796  -0.773  54.798  1.00  0.00    -0.017 A 
ENDBRANCH  18  19
ENDBRANCH   1  18
TORSDOF 4
ENDMDL
MODEL 6
REMARK VINA RESULT:      -8.2      2.073      2.637
REMARK  4 active torsions:
REMARK  status: ('A' for Active; 'I' for Inactive)
REMARK    1  A    between atoms: C4_4  and  C5_5 
REMARK    2  A    between atoms: C5_5  and  C6_6 
REMARK    3  A    between atoms: C11_12  and  N2_13 
REMARK    4  A    between atoms: N2_13  and  C12_14 
ROOT
HETATM    1  C6  UNL     1      23.869   0.113  53.139  1.00  0.00    -0.011 C 
HETATM    2  C7  UNL     1      22.596  -0.157  53.362  1.00  0.00     0.005 A 
HETATM    3  C8  UNL     1      22.168  -1.376  54.027  1.00  0.00     0.012 A 
HETATM    4  C9  UNL     1      20.861  -1.520  54.186  1.00  0.00    -0.004 A 
HETATM    5  C10 UNL     1      19.826  -0.539  53.741  1.00  0.00     0.178 A 
HETATM    6  N1  UNL     1      20.366   0.620  53.101  1.00  0.00    -0.268 NA
HETATM    7  C11 UNL     1      21.612   0.818  52.916  1.00  0.00     0.133 A 
ENDROOT
BRANCH   7   8
HETATM    8  N2  UNL     1      21.950   2.031  52.260  1.00  0.00    -0.341 N 
HETATM    9  H13 UNL     1      22.132   2.860  52.901  1.00  0.00     0.167 HD
BRANCH   8  10
HETATM   10  C12 UNL     1      22.060   2.238  50.863  1.00  0.00     0.035 A 
HETATM   11  C13 UNL     1      21.760   1.206  49.984  1.00  0.00     0.032 A 
HETATM   12  C14 UNL     1      21.853   1.340  48.615  1.00  0.00     0.046 A 
HETATM   13  C15 UNL     1      22.250   2.520  48.055  1.00  0.00     0.133 A 
HETATM   14  F1  UNL     1      22.317   2.584  46.706  1.00  0.00    -0.205 F 
HETATM   15  C16 UNL     1      22.559   3.580  48.887  1.00  0.00     0.051 A 
HETATM   16 BR1  UNL     1      23.109   5.218  48.135  1.00  0.00    -0.048 Br
HETATM   17  C17 UNL     1      22.453   3.398  50.249  1.00  0.00     0.051 A 
ENDBRANCH   8  10
ENDBRANCH   7   8
BRANCH   1  18
HETATM   18  C5  UNL     1      25.095  -0.653  53.461  1.00  0.00     0.040 C 
BRANCH  18  19
HETATM   19  C4  UNL     1      26.337   0.209  53.349  1.00  0.00     0.034 A 
HETATM   20  C3  UNL     1      27.456  -0.508  52.729  1.00  0.00    -0.011 A 
HETATM   21  C2  UNL     1      28.430  -0.543  53.623  1.00  0.00    -0.065 A 
HETATM   22  C1  UNL     1      29.787  -1.120  53.583  1.00  0.00     0.048 C 
HETATM   23  C19 UNL     1      28.030   0.128  54.851  1.00  0.00     0.003 A 
HETATM   24  C18 UNL     1      26.794   0.580  54.708  1.00  0.00    -0.017 A 
ENDBRANCH  18  19
ENDBRANCH   1  18
TORSDOF 4
ENDMDL
MODEL 7
REMARK VINA RESULT:      -8.0      3.160      4.994
REMARK  4 active torsions:
REMARK  status: ('A' for Active; 'I' for Inactive)
REMARK    1  A    between atoms: C4_4  and  C5_5 
REMARK    2  A    between atoms: C5_5  and  C6_6 
REMARK    3  A    between atoms: C11_12  and  N2_13 
REMARK    4  A    between atoms: N2_13  and  C12_14 
ROOT
HETATM    1  C6  UNL     1      25.418   2.450  53.065  1.00  0.00    -0.011 C 
HETATM    2  C7  UNL     1      25.204   2.829  51.818  1.00  0.00     0.005 A 
HETATM    3  C8  UNL     1      26.277   2.918  50.842  1.00  0.00     0.012 A 
HETATM    4  C9  UNL     1      25.922   3.312  49.629  1.00  0.00    -0.004 A 
HETATM    5  C10 UNL     1      24.532   3.661  49.207  1.00  0.00     0.178 A 
HETATM    6  N1  UNL     1      23.564   3.536  50.252  1.00  0.00    -0.268 NA
HETATM    7  C11 UNL     1      23.839   3.163  51.440  1.00  0.00     0.133 A 
ENDROOT
BRANCH   7   8
HETATM    8  N2  UNL     1      22.739   3.102  52.335  1.00  0.00    -0.341 N 
HETATM    9  H13 UNL     1      22.612   3.956  52.958  1.00  0.00     0.167 HD
BRANCH   8  10
HETATM   10  C12 UNL     1      21.817   2.037  52.477  1.00  0.00     0.035 A 
HETATM   11  C13 UNL     1      20.573   2.112  51.864  1.00  0.00     0.032 A 
HETATM   12  C14 UNL     1      19.628   1.113  51.967  1.00  0.00     0.046 A 
HETATM   13  C15 UNL     1      19.884  -0.016  52.691  1.00  0.00     0.133 A 
HETATM   14  F1  UNL     1      18.914  -0.958  52.749  1.00  0.00    -0.205 F 
HETATM   15  C16 UNL     1      21.109  -0.140  53.320  1.00  0.00     0.051 A 
HETATM   16 BR1  UNL     1      21.482  -1.692  54.324  1.00  0.00    -0.048 Br
HETATM   17  C17 UNL     1      22.020   0.884  53.189  1.00  0.00     0.051 A 
ENDBRANCH   8  10
ENDBRANCH   7   8
BRANCH   1  18
HETATM   18  C5  UNL     1      26.664   2.049  53.758  1.00  0.00     0.040 C 
BRANCH  18  19
HETATM   19  C4  UNL     1      26.645   0.580  54.133  1.00  0.00     0.034 A 
HETATM   20  C3  UNL     1      27.989   0.060  54.407  1.00  0.00    -0.011 A 
HETATM   21  C2  UNL     1      28.214  -0.902  53.527  1.00  0.00    -0.065 A 
HETATM   22  C1  UNL     1      29.374  -1.785  53.304  1.00  0.00     0.048 C 
HETATM   23  C19 UNL     1      27.069  -1.074  52.644  1.00  0.00     0.003 A 
HETATM   24  C18 UNL     1      26.130  -0.206  52.987  1.00  0.00    -0.017 A 
ENDBRANCH  18  19
ENDBRANCH   1  18
TORSDOF 4
ENDMDL
MODEL 8
REMARK VINA RESULT:      -8.0      2.632      5.595
REMARK  4 active torsions:
REMARK  status: ('A' for Active; 'I' for Inactive)
REMARK    1  A    between atoms: C4_4  and  C5_5 
REMARK    2  A    between atoms: C5_5  and  C6_6 
REMARK    3  A    between atoms: C11_12  and  N2_13 
REMARK    4  A    between atoms: N2_13  and  C12_14 
ROOT
HETATM    1  C6  UNL     1      24.032   2.125  52.025  1.00  0.00    -0.011 C 
HETATM    2  C7  UNL     1      25.276   2.024  52.455  1.00  0.00     0.005 A 
HETATM    3  C8  UNL     1      25.598   1.550  53.790  1.00  0.00     0.012 A 
HETATM    4  C9  UNL     1      26.886   1.498  54.090  1.00  0.00    -0.004 A 
HETATM    5  C10 UNL     1      28.001   1.884  53.173  1.00  0.00     0.178 A 
HETATM    6  N1  UNL     1      27.562   2.334  51.889  1.00  0.00    -0.268 NA
HETATM    7  C11 UNL     1      26.339   2.408  51.538  1.00  0.00     0.133 A 
ENDROOT
BRANCH   7   8
HETATM    8  N2  UNL     1      26.107   2.882  50.220  1.00  0.00    -0.341 N 
HETATM    9  H13 UNL     1      25.802   2.143  49.518  1.00  0.00     0.167 HD
BRANCH   8  10
HETATM   10  C12 UNL     1      26.242   4.214  49.760  1.00  0.00     0.035 A 
HETATM   11  C13 UNL     1      27.271   4.544  48.886  1.00  0.00     0.032 A 
HETATM   12  C14 UNL     1      27.462   5.822  48.405  1.00  0.00     0.046 A 
HETATM   13  C15 UNL     1      26.629   6.837  48.775  1.00  0.00     0.133 A 
HETATM   14  F1  UNL     1      26.872   8.067  48.265  1.00  0.00    -0.205 F 
HETATM   15  C16 UNL     1      25.588   6.562  49.643  1.00  0.00     0.051 A 
HETATM   16 BR1  UNL     1      24.426   7.951  50.166  1.00  0.00    -0.048 Br
HETATM   17  C17 UNL     1      25.438   5.271  50.097  1.00  0.00     0.051 A 
ENDBRANCH   8  10
ENDBRANCH   7   8
BRANCH   1  18
HETATM   18  C5  UNL     1      22.746   1.821  52.693  1.00  0.00     0.040 C 
BRANCH  18  19
HETATM   19  C4  UNL     1      22.310   0.391  52.439  1.00  0.00     0.034 A 
HETATM   20  C3  UNL     1      20.886   0.297  52.100  1.00  0.00    -0.011 A 
HETATM   21  C2  UNL     1      20.319  -0.451  53.032  1.00  0.00    -0.065 A 
HETATM   22  C1  UNL     1      18.927  -0.895  53.231  1.00  0.00     0.048 C 
HETATM   23  C19 UNL     1      21.301  -0.885  54.016  1.00  0.00     0.003 A 
HETATM   24  C18 UNL     1      22.486  -0.398  53.681  1.00  0.00    -0.017 A 
ENDBRANCH  18  19
ENDBRANCH   1  18
TORSDOF 4
ENDMDL
MODEL 9
REMARK VINA RESULT:      -7.9      2.714      4.956
REMARK  4 active torsions:
REMARK  status: ('A' for Active; 'I' for Inactive)
REMARK    1  A    between atoms: C4_4  and  C5_5 
REMARK    2  A    between atoms: C5_5  and  C6_6 
REMARK    3  A    between atoms: C11_12  and  N2_13 
REMARK    4  A    between atoms: N2_13  and  C12_14 
ROOT
HETATM    1  C6  UNL     1      23.065   2.010  51.847  1.00  0.00    -0.011 C 
HETATM    2  C7  UNL     1      22.716   1.114  52.753  1.00  0.00     0.005 A 
HETATM    3  C8  UNL     1      21.436   1.165  53.439  1.00  0.00     0.012 A 
HETATM    4  C9  UNL     1      21.216   0.205  54.323  1.00  0.00    -0.004 A 
HETATM    5  C10 UNL     1      22.169  -0.898  54.654  1.00  0.00     0.178 A 
HETATM    6  N1  UNL     1      23.392  -0.843  53.915  1.00  0.00    -0.268 NA
HETATM    7  C11 UNL     1      23.666   0.054  53.052  1.00  0.00     0.133 A 
ENDROOT
BRANCH   7   8
HETATM    8  N2  UNL     1      24.935  -0.064  52.426  1.00  0.00    -0.341 N 
HETATM    9  H13 UNL     1      24.936  -0.574  51.492  1.00  0.00     0.167 HD
BRANCH   8  10
HETATM   10  C12 UNL     1      26.173   0.418  52.917  1.00  0.00     0.035 A 
HETATM   11  C13 UNL     1      26.305   1.756  53.266  1.00  0.00     0.032 A 
HETATM   12  C14 UNL     1      27.482   2.290  53.745  1.00  0.00     0.046 A 
HETATM   13  C15 UNL     1      28.590   1.508  53.901  1.00  0.00     0.133 A 
HETATM   14  F1  UNL     1      29.712   2.095  54.378  1.00  0.00    -0.205 F 
HETATM   15  C16 UNL     1      28.510   0.168  53.569  1.00  0.00     0.051 A 
HETATM   16 BR1  UNL     1      30.028  -0.930  53.778  1.00  0.00    -0.048 Br
HETATM   17  C17 UNL     1      27.313  -0.320  53.094  1.00  0.00     0.051 A 
ENDBRANCH   8  10
ENDBRANCH   7   8
BRANCH   1  18
HETATM   18  C5  UNL     1      22.342   3.192  51.322  1.00  0.00     0.040 C 
BRANCH  18  19
HETATM   19  C4  UNL     1      22.961   3.695  50.032  1.00  0.00     0.034 A 
HETATM   20  C3  UNL     1      24.227   3.022  49.725  1.00  0.00    -0.011 A 
HETATM   21  C2  UNL     1      25.161   3.958  49.701  1.00  0.00    -0.065 A 
HETATM   22  C1  UNL     1      26.614   3.898  49.449  1.00  0.00     0.048 C 
HETATM   23  C19 UNL     1      24.590   5.268  49.982  1.00  0.00     0.003 A 
HETATM   24  C18 UNL     1      23.288   5.132  50.180  1.00  0.00    -0.017 A 
ENDBRANCH  18  19
ENDBRANCH   1  18
TORSDOF 4
ENDMDL
