MODEL 1
REMARK VINA RESULT:      -8.4      0.000      0.000
REMARK  0 active torsions:
REMARK  status: ('A' for Active; 'I' for Inactive)
ROOT
HETATM    1  C1  UNL     1      27.623   2.407  53.167  1.00  0.00     0.046 C 
HETATM    2  C2  UNL     1      26.675   1.276  53.103  1.00  0.00    -0.055 A 
HETATM    3  C3  UNL     1      27.108   0.050  52.850  1.00  0.00     0.006 A 
HETATM    4  C4  UNL     1      26.090  -0.994  52.809  1.00  0.00     0.019 A 
HETATM    5  C5  UNL     1      24.796  -0.799  53.002  1.00  0.00     0.111 A 
HETATM    6  N1  UNL     1      24.432   0.550  53.265  1.00  0.00    -0.289 N 
HETATM    7  N2  UNL     1      23.064   0.808  53.476  1.00  0.00    -0.291 N 
HETATM    8  C6  UNL     1      21.956  -0.042  53.200  1.00  0.00     0.226 C 
HETATM    9  N3  UNL     1      21.170  -0.178  52.195  1.00  0.00    -0.213 NA
HETATM   10  C7  UNL     1      21.283   0.618  51.003  1.00  0.00     0.235 C 
HETATM   11  F1  UNL     1      21.889   0.636  49.800  1.00  0.00    -0.182 F 
HETATM   12  C8  UNL     1      20.485   1.661  51.286  1.00  0.00     0.084 A 
HETATM   13  C9  UNL     1      19.551   2.604  51.956  1.00  0.00     0.184 A 
HETATM   14  N4  UNL     1      20.072   2.864  50.619  1.00  0.00    -0.373 N 
HETATM   15  C10 UNL     1      20.457   3.313  49.315  1.00  0.00     0.128 C 
HETATM   16  C11 UNL     1      21.159   4.657  49.435  1.00  0.00     0.058 C 
HETATM   17  C12 UNL     1      22.358   4.441  50.296  1.00  0.00    -0.057 C 
HETATM   18  C13 UNL     1      22.369   4.929  51.528  1.00  0.00     0.007 C 
HETATM   19  C14 UNL     1      23.173   4.747  52.737  1.00  0.00     0.001 C 
HETATM   20  C15 UNL     1      24.199   3.974  53.058  1.00  0.00     0.009 C 
HETATM   21  C16 UNL     1      24.832   2.797  52.437  1.00  0.00    -0.029 C 
HETATM   22  C17 UNL     1      25.078   2.533  51.140  1.00  0.00     0.009 C 
HETATM   23  C18 UNL     1      24.292   2.748  49.904  1.00  0.00     0.001 C 
HETATM   24  C19 UNL     1      23.374   3.665  49.546  1.00  0.00     0.007 C 
HETATM   25  C20 UNL     1      25.281   1.713  53.347  1.00  0.00     0.169 A 
HETATM   26  H7  UNL     1      22.665   1.686  53.878  1.00  0.00     0.188 HD
ENDROOT
TORSDOF 0
ENDMDL
MODEL 2
REMARK VINA RESULT:      -8.4      2.043      4.911
REMARK  0 active torsions:
REMARK  status: ('A' for Active; 'I' for Inactive)
ROOT
HETATM    1  C1  UNL     1      18.636  -0.021  51.217  1.00  0.00     0.046 C 
HETATM    2  C2  UNL     1      19.763  -0.006  52.173  1.00  0.00    -0.055 A 
HETATM    3  C3  UNL     1      19.546  -0.157  53.470  1.00  0.00     0.006 A 
HETATM    4  C4  UNL     1      20.726  -0.126  54.327  1.00  0.00     0.019 A 
HETATM    5  C5  UNL     1      21.968   0.041  53.901  1.00  0.00     0.111 A 
HETATM    6  N1  UNL     1      22.096   0.195  52.493  1.00  0.00    -0.289 N 
HETATM    7  N2  UNL     1      23.399   0.376  51.991  1.00  0.00    -0.291 N 
HETATM    8  C6  UNL     1      24.583   0.695  52.714  1.00  0.00     0.226 C 
HETATM    9  N3  UNL     1      25.177   1.795  53.003  1.00  0.00    -0.213 NA
HETATM   10  C7  UNL     1      24.684   3.080  52.589  1.00  0.00     0.235 C 
HETATM   11  F1  UNL     1      23.872   4.078  52.988  1.00  0.00    -0.182 F 
HETATM   12  C8  UNL     1      25.296   3.245  51.403  1.00  0.00     0.084 A 
HETATM   13  C9  UNL     1      26.130   3.053  50.188  1.00  0.00     0.184 A 
HETATM   14  N4  UNL     1      25.326   4.254  50.382  1.00  0.00    -0.373 N 
HETATM   15  C10 UNL     1      24.620   5.500  50.368  1.00  0.00     0.128 C 
HETATM   16  C11 UNL     1      23.698   5.540  49.159  1.00  0.00     0.058 C 
HETATM   17  C12 UNL     1      22.750   4.396  49.303  1.00  0.00    -0.057 C 
HETATM   18  C13 UNL     1      22.873   3.346  48.504  1.00  0.00     0.007 C 
HETATM   19  C14 UNL     1      22.364   1.974  48.463  1.00  0.00     0.001 C 
HETATM   20  C15 UNL     1      21.593   1.250  49.260  1.00  0.00     0.009 C 
HETATM   21  C16 UNL     1      21.104   1.412  50.640  1.00  0.00    -0.029 C 
HETATM   22  C17 UNL     1      20.677   2.515  51.282  1.00  0.00     0.009 C 
HETATM   23  C18 UNL     1      21.157   3.915  51.301  1.00  0.00     0.001 C 
HETATM   24  C19 UNL     1      21.788   4.683  50.393  1.00  0.00     0.007 C 
HETATM   25  C20 UNL     1      21.061   0.192  51.488  1.00  0.00     0.169 A 
HETATM   26  H7  UNL     1      23.682   0.297  50.988  1.00  0.00     0.188 HD
ENDROOT
TORSDOF 0
ENDMDL
MODEL 3
REMARK VINA RESULT:      -8.0      2.795      4.396
REMARK  0 active torsions:
REMARK  status: ('A' for Active; 'I' for Inactive)
ROOT
HETATM    1  C1  UNL     1      24.108  -0.080  53.429  1.00  0.00     0.046 C 
HETATM    2  C2  UNL     1      25.174   0.811  52.927  1.00  0.00    -0.055 A 
HETATM    3  C3  UNL     1      26.280   1.000  53.631  1.00  0.00     0.006 A 
HETATM    4  C4  UNL     1      27.268   1.899  53.046  1.00  0.00     0.019 A 
HETATM    5  C5  UNL     1      27.133   2.523  51.887  1.00  0.00     0.111 A 
HETATM    6  N1  UNL     1      25.911   2.257  51.209  1.00  0.00    -0.289 N 
HETATM    7  N2  UNL     1      25.721   2.900  49.971  1.00  0.00    -0.291 N 
HETATM    8  C6  UNL     1      26.457   3.988  49.423  1.00  0.00     0.226 C 
HETATM    9  N3  UNL     1      26.302   5.262  49.439  1.00  0.00    -0.213 NA
HETATM   10  C7  UNL     1      25.204   5.906  50.106  1.00  0.00     0.235 C 
HETATM   11  F1  UNL     1      24.847   6.421  51.299  1.00  0.00    -0.182 F 
HETATM   12  C8  UNL     1      24.281   5.965  49.130  1.00  0.00     0.084 A 
HETATM   13  C9  UNL     1      23.563   5.841  47.834  1.00  0.00     0.184 A 
HETATM   14  N4  UNL     1      22.938   6.456  48.999  1.00  0.00    -0.373 N 
HETATM   15  C10 UNL     1      22.141   7.090  50.006  1.00  0.00     0.128 C 
HETATM   16  C11 UNL     1      20.886   6.265  50.245  1.00  0.00     0.058 C 
HETATM   17  C12 UNL     1      21.338   4.916  50.698  1.00  0.00    -0.057 C 
HETATM   18  C13 UNL     1      21.217   3.882  49.880  1.00  0.00     0.007 C 
HETATM   19  C14 UNL     1      21.734   2.514  49.810  1.00  0.00     0.001 C 
HETATM   20  C15 UNL     1      22.568   1.802  50.552  1.00  0.00     0.009 C 
HETATM   21  C16 UNL     1      23.523   2.129  51.625  1.00  0.00    -0.029 C 
HETATM   22  C17 UNL     1      23.412   3.002  52.644  1.00  0.00     0.009 C 
HETATM   23  C18 UNL     1      22.856   4.370  52.737  1.00  0.00     0.001 C 
HETATM   24  C19 UNL     1      21.873   5.011  52.078  1.00  0.00     0.007 C 
HETATM   25  C20 UNL     1      24.821   1.406  51.617  1.00  0.00     0.169 A 
HETATM   26  H7  UNL     1      24.991   2.656  49.264  1.00  0.00     0.188 HD
ENDROOT
TORSDOF 0
ENDMDL
MODEL 4
REMARK VINA RESULT:      -7.9      2.728      4.282
REMARK  0 active torsions:
REMARK  status: ('A' for Active; 'I' for Inactive)
ROOT
HETATM    1  C1  UNL     1      25.962   7.874  48.424  1.00  0.00     0.046 C 
HETATM    2  C2  UNL     1      26.231   6.495  48.880  1.00  0.00    -0.055 A 
HETATM    3  C3  UNL     1      27.235   5.800  48.367  1.00  0.00     0.006 A 
HETATM    4  C4  UNL     1      27.413   4.449  48.887  1.00  0.00     0.019 A 
HETATM    5  C5  UNL     1      26.653   3.887  49.813  1.00  0.00     0.111 A 
HETATM    6  N1  UNL     1      25.602   4.713  50.300  1.00  0.00    -0.289 N 
HETATM    7  N2  UNL     1      24.767   4.158  51.288  1.00  0.00    -0.291 N 
HETATM    8  C6  UNL     1      24.654   2.794  51.680  1.00  0.00     0.226 C 
HETATM    9  N3  UNL     1      23.885   1.830  51.326  1.00  0.00    -0.213 NA
HETATM   10  C7  UNL     1      22.856   1.976  50.333  1.00  0.00     0.235 C 
HETATM   11  F1  UNL     1      22.647   1.872  49.006  1.00  0.00    -0.182 F 
HETATM   12  C8  UNL     1      21.797   2.337  51.078  1.00  0.00     0.084 A 
HETATM   13  C9  UNL     1      20.906   2.701  52.211  1.00  0.00     0.184 A 
HETATM   14  N4  UNL     1      20.420   2.661  50.837  1.00  0.00    -0.373 N 
HETATM   15  C10 UNL     1      19.738   2.684  49.578  1.00  0.00     0.128 C 
HETATM   16  C11 UNL     1      19.208   4.086  49.320  1.00  0.00     0.058 C 
HETATM   17  C12 UNL     1      20.390   4.996  49.300  1.00  0.00    -0.057 C 
HETATM   18  C13 UNL     1      20.583   5.833  50.308  1.00  0.00     0.007 C 
HETATM   19  C14 UNL     1      21.679   6.669  50.802  1.00  0.00     0.001 C 
HETATM   20  C15 UNL     1      22.931   6.872  50.423  1.00  0.00     0.009 C 
HETATM   21  C16 UNL     1      23.847   6.185  49.496  1.00  0.00    -0.029 C 
HETATM   22  C17 UNL     1      23.605   5.632  48.293  1.00  0.00     0.009 C 
HETATM   23  C18 UNL     1      22.484   4.819  47.769  1.00  0.00     0.001 C 
HETATM   24  C19 UNL     1      21.172   4.766  48.061  1.00  0.00     0.007 C 
HETATM   25  C20 UNL     1      25.267   6.062  49.918  1.00  0.00     0.169 A 
HETATM   26  H7  UNL     1      24.095   4.690  51.886  1.00  0.00     0.188 HD
ENDROOT
TORSDOF 0
ENDMDL
MODEL 5
REMARK VINA RESULT:      -7.7      1.826      3.440
REMARK  0 active torsions:
REMARK  status: ('A' for Active; 'I' for Inactive)
ROOT
HETATM    1  C1  UNL     1      24.827   5.047  49.245  1.00  0.00     0.046 C 
HETATM    2  C2  UNL     1      25.284   3.891  50.042  1.00  0.00    -0.055 A 
HETATM    3  C3  UNL     1      26.358   3.206  49.680  1.00  0.00     0.006 A 
HETATM    4  C4  UNL     1      26.723   2.083  50.535  1.00  0.00     0.019 A 
HETATM    5  C5  UNL     1      26.065   1.713  51.622  1.00  0.00     0.111 A 
HETATM    6  N1  UNL     1      24.926   2.509  51.927  1.00  0.00    -0.289 N 
HETATM    7  N2  UNL     1      24.193   2.154  53.075  1.00  0.00    -0.291 N 
HETATM    8  C6  UNL     1      24.269   0.949  53.828  1.00  0.00     0.226 C 
HETATM    9  N3  UNL     1      23.625  -0.161  53.795  1.00  0.00    -0.213 NA
HETATM   10  C7  UNL     1      22.563  -0.419  52.860  1.00  0.00     0.235 C 
HETATM   11  F1  UNL     1      22.339  -0.910  51.626  1.00  0.00    -0.182 F 
HETATM   12  C8  UNL     1      21.484   0.005  53.540  1.00  0.00     0.084 A 
HETATM   13  C9  UNL     1      20.579   0.560  54.580  1.00  0.00     0.184 A 
HETATM   14  N4  UNL     1      20.070   0.083  53.299  1.00  0.00    -0.373 N 
HETATM   15  C10 UNL     1      19.363  -0.325  52.123  1.00  0.00     0.128 C 
HETATM   16  C11 UNL     1      18.648   0.877  51.526  1.00  0.00     0.058 C 
HETATM   17  C12 UNL     1      19.701   1.881  51.190  1.00  0.00    -0.057 C 
HETATM   18  C13 UNL     1      19.806   2.980  51.921  1.00  0.00     0.007 C 
HETATM   19  C14 UNL     1      20.793   4.045  52.105  1.00  0.00     0.001 C 
HETATM   20  C15 UNL     1      21.999   4.284  51.613  1.00  0.00     0.009 C 
HETATM   21  C16 UNL     1      22.976   3.481  50.856  1.00  0.00    -0.029 C 
HETATM   22  C17 UNL     1      22.781   2.592  49.865  1.00  0.00     0.009 C 
HETATM   23  C18 UNL     1      21.764   1.539  49.647  1.00  0.00     0.001 C 
HETATM   24  C19 UNL     1      20.477   1.412  50.018  1.00  0.00     0.007 C 
HETATM   25  C20 UNL     1      24.409   3.650  51.212  1.00  0.00     0.169 A 
HETATM   26  H7  UNL     1      23.472   2.747  53.544  1.00  0.00     0.188 HD
ENDROOT
TORSDOF 0
ENDMDL
MODEL 6
REMARK VINA RESULT:      -7.4      3.375      5.302
REMARK  0 active torsions:
REMARK  status: ('A' for Active; 'I' for Inactive)
ROOT
HETATM    1  C1  UNL     1      26.227   4.629  49.327  1.00  0.00     0.046 C 
HETATM    2  C2  UNL     1      25.079   5.503  49.641  1.00  0.00    -0.055 A 
HETATM    3  C3  UNL     1      25.236   6.574  50.404  1.00  0.00     0.006 A 
HETATM    4  C4  UNL     1      24.039   7.368  50.653  1.00  0.00     0.019 A 
HETATM    5  C5  UNL     1      22.835   7.093  50.177  1.00  0.00     0.111 A 
HETATM    6  N1  UNL     1      22.768   5.923  49.370  1.00  0.00    -0.289 N 
HETATM    7  N2  UNL     1      21.507   5.590  48.841  1.00  0.00    -0.291 N 
HETATM    8  C6  UNL     1      20.233   6.102  49.215  1.00  0.00     0.226 C 
HETATM    9  N3  UNL     1      19.330   5.720  50.043  1.00  0.00    -0.213 NA
HETATM   10  C7  UNL     1      19.464   4.539  50.852  1.00  0.00     0.235 C 
HETATM   11  F1  UNL     1      19.927   4.125  52.048  1.00  0.00    -0.182 F 
HETATM   12  C8  UNL     1      18.917   3.597  50.065  1.00  0.00     0.084 A 
HETATM   13  C9  UNL     1      18.262   2.882  48.939  1.00  0.00     0.184 A 
HETATM   14  N4  UNL     1      18.674   2.185  50.152  1.00  0.00    -0.373 N 
HETATM   15  C10 UNL     1      18.994   1.311  51.240  1.00  0.00     0.128 C 
HETATM   16  C11 UNL     1      19.949   0.233  50.753  1.00  0.00     0.058 C 
HETATM   17  C12 UNL     1      21.172   0.933  50.259  1.00  0.00    -0.057 C 
HETATM   18  C13 UNL     1      21.411   0.981  48.957  1.00  0.00     0.007 C 
HETATM   19  C14 UNL     1      22.292   1.735  48.065  1.00  0.00     0.001 C 
HETATM   20  C15 UNL     1      23.178   2.703  48.241  1.00  0.00     0.009 C 
HETATM   21  C16 UNL     1      23.501   3.609  49.357  1.00  0.00    -0.029 C 
HETATM   22  C17 UNL     1      23.548   3.366  50.680  1.00  0.00     0.009 C 
HETATM   23  C18 UNL     1      22.689   2.574  51.587  1.00  0.00     0.001 C 
HETATM   24  C19 UNL     1      21.931   1.476  51.411  1.00  0.00     0.007 C 
HETATM   25  C20 UNL     1      23.830   5.016  49.011  1.00  0.00     0.169 A 
HETATM   26  H7  UNL     1      21.331   4.898  48.077  1.00  0.00     0.188 HD
ENDROOT
TORSDOF 0
ENDMDL
MODEL 7
REMARK VINA RESULT:      -7.4      2.168      5.702
REMARK  0 active torsions:
REMARK  status: ('A' for Active; 'I' for Inactive)
ROOT
HETATM    1  C1  UNL     1      24.447   8.116  49.697  1.00  0.00     0.046 C 
HETATM    2  C2  UNL     1      23.040   7.667  49.700  1.00  0.00    -0.055 A 
HETATM    3  C3  UNL     1      22.062   8.517  49.974  1.00  0.00     0.006 A 
HETATM    4  C4  UNL     1      20.710   7.972  49.951  1.00  0.00     0.019 A 
HETATM    5  C5  UNL     1      20.406   6.713  49.682  1.00  0.00     0.111 A 
HETATM    6  N1  UNL     1      21.523   5.879  49.401  1.00  0.00    -0.289 N 
HETATM    7  N2  UNL     1      21.249   4.529  49.108  1.00  0.00    -0.291 N 
HETATM    8  C6  UNL     1      20.036   3.814  49.315  1.00  0.00     0.226 C 
HETATM    9  N3  UNL     1      19.587   3.084  50.270  1.00  0.00    -0.213 NA
HETATM   10  C7  UNL     1      20.336   2.822  51.469  1.00  0.00     0.235 C 
HETATM   11  F1  UNL     1      20.552   3.309  52.707  1.00  0.00    -0.182 F 
HETATM   12  C8  UNL     1      21.006   1.704  51.141  1.00  0.00     0.084 A 
HETATM   13  C9  UNL     1      21.542   0.521  50.419  1.00  0.00     0.184 A 
HETATM   14  N4  UNL     1      21.945   0.830  51.786  1.00  0.00    -0.373 N 
HETATM   15  C10 UNL     1      22.473   0.944  53.112  1.00  0.00     0.128 C 
HETATM   16  C11 UNL     1      23.985   1.088  53.039  1.00  0.00     0.058 C 
HETATM   17  C12 UNL     1      24.262   2.325  52.251  1.00  0.00    -0.057 C 
HETATM   18  C13 UNL     1      24.749   2.217  51.024  1.00  0.00     0.007 C 
HETATM   19  C14 UNL     1      24.916   3.095  49.864  1.00  0.00     0.001 C 
HETATM   20  C15 UNL     1      24.597   4.354  49.604  1.00  0.00     0.009 C 
HETATM   21  C16 UNL     1      23.732   5.351  50.259  1.00  0.00    -0.029 C 
HETATM   22  C17 UNL     1      23.548   5.607  51.567  1.00  0.00     0.009 C 
HETATM   23  C18 UNL     1      23.417   4.732  52.753  1.00  0.00     0.001 C 
HETATM   24  C19 UNL     1      23.909   3.517  53.058  1.00  0.00     0.007 C 
HETATM   25  C20 UNL     1      22.923   6.227  49.373  1.00  0.00     0.169 A 
HETATM   26  H7  UNL     1      21.921   3.849  48.686  1.00  0.00     0.188 HD
ENDROOT
TORSDOF 0
ENDMDL
MODEL 8
REMARK VINA RESULT:      -7.2     11.363     13.548
REMARK  0 active torsions:
REMARK  status: ('A' for Active; 'I' for Inactive)
ROOT
HETATM    1  C1  UNL     1      33.230   8.527  41.359  1.00  0.00     0.046 C 
HETATM    2  C2  UNL     1      33.354   7.112  41.764  1.00  0.00    -0.055 A 
HETATM    3  C3  UNL     1      32.804   6.152  41.036  1.00  0.00     0.006 A 
HETATM    4  C4  UNL     1      32.986   4.791  41.524  1.00  0.00     0.019 A 
HETATM    5  C5  UNL     1      33.647   4.460  42.622  1.00  0.00     0.111 A 
HETATM    6  N1  UNL     1      34.199   5.560  43.335  1.00  0.00    -0.289 N 
HETATM    7  N2  UNL     1      34.912   5.259  44.511  1.00  0.00    -0.291 N 
HETATM    8  C6  UNL     1      34.933   4.035  45.237  1.00  0.00     0.226 C 
HETATM    9  N3  UNL     1      34.262   3.581  46.232  1.00  0.00    -0.213 NA
HETATM   10  C7  UNL     1      33.224   4.334  46.881  1.00  0.00     0.235 C 
HETATM   11  F1  UNL     1      31.898   4.568  46.828  1.00  0.00    -0.182 F 
HETATM   12  C8  UNL     1      33.907   4.981  47.841  1.00  0.00     0.084 A 
HETATM   13  C9  UNL     1      34.982   5.490  48.732  1.00  0.00     0.184 A 
HETATM   14  N4  UNL     1      33.595   5.909  48.891  1.00  0.00    -0.373 N 
HETATM   15  C10 UNL     1      32.311   6.449  49.223  1.00  0.00     0.128 C 
HETATM   16  C11 UNL     1      32.353   7.963  49.085  1.00  0.00     0.058 C 
HETATM   17  C12 UNL     1      32.699   8.256  47.663  1.00  0.00    -0.057 C 
HETATM   18  C13 UNL     1      33.901   8.731  47.373  1.00  0.00     0.007 C 
HETATM   19  C14 UNL     1      34.713   8.905  46.167  1.00  0.00     0.001 C 
HETATM   20  C15 UNL     1      34.545   8.608  44.888  1.00  0.00     0.009 C 
HETATM   21  C16 UNL     1      33.590   7.766  44.146  1.00  0.00    -0.029 C 
HETATM   22  C17 UNL     1      32.267   7.597  44.327  1.00  0.00     0.009 C 
HETATM   23  C18 UNL     1      31.429   7.460  45.539  1.00  0.00     0.001 C 
HETATM   24  C19 UNL     1      31.543   7.932  46.794  1.00  0.00     0.007 C 
HETATM   25  C20 UNL     1      34.130   6.966  43.018  1.00  0.00     0.169 A 
HETATM   26  H7  UNL     1      35.541   5.916  45.026  1.00  0.00     0.188 HD
ENDROOT
TORSDOF 0
ENDMDL
MODEL 9
REMARK VINA RESULT:      -7.1      2.630      5.311
REMARK  0 active torsions:
REMARK  status: ('A' for Active; 'I' for Inactive)
ROOT
HETATM    1  C1  UNL     1      23.293   7.179  46.626  1.00  0.00     0.046 C 
HETATM    2  C2  UNL     1      23.998   6.802  47.869  1.00  0.00    -0.055 A 
HETATM    3  C3  UNL     1      25.319   6.860  47.937  1.00  0.00     0.006 A 
HETATM    4  C4  UNL     1      25.914   6.466  49.209  1.00  0.00     0.019 A 
HETATM    5  C5  UNL     1      25.236   6.064  50.271  1.00  0.00     0.111 A 
HETATM    6  N1  UNL     1      23.824   6.035  50.098  1.00  0.00    -0.289 N 
HETATM    7  N2  UNL     1      23.059   5.613  51.202  1.00  0.00    -0.291 N 
HETATM    8  C6  UNL     1      23.506   4.954  52.381  1.00  0.00     0.226 C 
HETATM    9  N3  UNL     1      23.603   3.722  52.727  1.00  0.00    -0.213 NA
HETATM   10  C7  UNL     1      23.222   2.637  51.865  1.00  0.00     0.235 C 
HETATM   11  F1  UNL     1      23.718   1.817  50.917  1.00  0.00    -0.182 F 
HETATM   12  C8  UNL     1      21.929   2.463  52.189  1.00  0.00     0.084 A 
HETATM   13  C9  UNL     1      20.583   2.586  52.808  1.00  0.00     0.184 A 
HETATM   14  N4  UNL     1      20.865   1.589  51.781  1.00  0.00    -0.373 N 
HETATM   15  C10 UNL     1      20.920   0.549  50.799  1.00  0.00     0.128 C 
HETATM   16  C11 UNL     1      19.923   0.852  49.691  1.00  0.00     0.058 C 
HETATM   17  C12 UNL     1      20.325   2.162  49.098  1.00  0.00    -0.057 C 
HETATM   18  C13 UNL     1      19.581   3.234  49.329  1.00  0.00     0.007 C 
HETATM   19  C14 UNL     1      19.726   4.682  49.176  1.00  0.00     0.001 C 
HETATM   20  C15 UNL     1      20.705   5.476  48.768  1.00  0.00     0.009 C 
HETATM   21  C16 UNL     1      22.143   5.285  48.515  1.00  0.00    -0.029 C 
HETATM   22  C17 UNL     1      22.791   4.248  47.953  1.00  0.00     0.009 C 
HETATM   23  C18 UNL     1      22.629   2.781  48.067  1.00  0.00     0.001 C 
HETATM   24  C19 UNL     1      21.569   1.990  48.311  1.00  0.00     0.007 C 
HETATM   25  C20 UNL     1      23.053   6.384  48.930  1.00  0.00     0.169 A 
HETATM   26  H7  UNL     1      22.026   5.731  51.307  1.00  0.00     0.188 HD
ENDROOT
TORSDOF 0
ENDMDL
