MODEL 1
REMARK VINA RESULT:      -7.8      0.000      0.000
REMARK  5 active torsions:
REMARK  status: ('A' for Active; 'I' for Inactive)
REMARK    1  A    between atoms: O1_2  and  C2_3 
REMARK    2  A    between atoms: C12_18  and  O2_19 
REMARK    3  A    between atoms: O2_19  and  C13_20 
REMARK    4  A    between atoms: C13_20  and  C14_21 
REMARK    5  A    between atoms: C18_27  and  O4_28 
ROOT
HETATM    1  C2  UNL     1      21.170   1.129  52.184  1.00  0.00     0.176 C 
HETATM    2  N1  UNL     1      20.527   0.416  51.322  1.00  0.00    -0.262 NA
HETATM    3  C3  UNL     1      21.210   0.389  50.060  1.00  0.00     0.209 C 
HETATM    4  C4  UNL     1      22.089   1.590  50.073  1.00  0.00     0.076 C 
HETATM    5  N2  UNL     1      22.495   2.371  49.251  1.00  0.00    -0.246 NA
HETATM    6  C5  UNL     1      22.432   2.645  47.932  1.00  0.00     0.226 C 
HETATM    7  N3  UNL     1      22.549   3.875  48.102  1.00  0.00    -0.279 NA
HETATM    8  C6  UNL     1      22.609   5.082  47.426  1.00  0.00     0.179 C 
HETATM    9  C7  UNL     1      23.563   6.113  48.035  1.00  0.00     0.018 C 
HETATM   10  C8  UNL     1      23.920   5.451  49.150  1.00  0.00     0.051 A 
HETATM   11 CL1  UNL     1      24.738   5.101  50.690  1.00  0.00    -0.134 Cl
HETATM   12  C9  UNL     1      23.189   4.623  50.107  1.00  0.00     0.210 A 
HETATM   13  F1  UNL     1      21.990   5.275  49.748  1.00  0.00    -0.220 F 
HETATM   14  C10 UNL     1      22.187   3.966  50.764  1.00  0.00     0.059 C 
HETATM   15  C11 UNL     1      22.617   3.155  51.934  1.00  0.00     0.063 C 
HETATM   16  C12 UNL     1      22.384   1.670  51.575  1.00  0.00     0.169 C 
ENDROOT
BRANCH  16  17
HETATM   17  O2  UNL     1      23.541   0.983  51.779  1.00  0.00    -0.364 OA
BRANCH  17  18
HETATM   18  C13 UNL     1      24.227   1.501  52.846  1.00  0.00     0.185 C 
BRANCH  18  19
HETATM   19  C14 UNL     1      25.688   1.017  52.866  1.00  0.00     0.054 C 
HETATM   20  C15 UNL     1      26.180   1.194  51.423  1.00  0.00     0.024 C 
HETATM   21  C16 UNL     1      25.652  -0.444  53.144  1.00  0.00     0.288 C 
HETATM   22  N4  UNL     1      26.718  -0.905  54.014  1.00  0.00     0.107 N 
HETATM   23  C17 UNL     1      26.641  -0.017  55.182  1.00  0.00     0.440 C 
HETATM   24  H20 UNL     1      27.643  -0.765  53.545  1.00  0.00     0.318 HD
HETATM   25  O3  UNL     1      27.072   1.232  54.863  1.00  0.00    -0.331 OA
HETATM   26  C18 UNL     1      26.531   1.842  53.764  1.00  0.00     0.273 C 
BRANCH  26  27
HETATM   27  O4  UNL     1      27.543   2.435  53.051  1.00  0.00    -0.365 OA
HETATM   28  C19 UNL     1      28.768   2.428  53.702  1.00  0.00     0.204 C 
ENDBRANCH  26  27
ENDBRANCH  18  19
ENDBRANCH  17  18
ENDBRANCH  16  17
BRANCH   1  29
HETATM   29  O1  UNL     1      20.613   1.239  53.454  1.00  0.00    -0.340 OA
HETATM   30  C1  UNL     1      20.924   0.301  54.497  1.00  0.00     0.211 C 
ENDBRANCH   1  29
TORSDOF 5
ENDMDL
MODEL 2
REMARK VINA RESULT:      -7.7      2.326      4.266
REMARK  5 active torsions:
REMARK  status: ('A' for Active; 'I' for Inactive)
REMARK    1  A    between atoms: O1_2  and  C2_3 
REMARK    2  A    between atoms: C12_18  and  O2_19 
REMARK    3  A    between atoms: O2_19  and  C13_20 
REMARK    4  A    between atoms: C13_20  and  C14_21 
REMARK    5  A    between atoms: C18_27  and  O4_28 
ROOT
HETATM    1  C2  UNL     1      24.307   4.044  50.227  1.00  0.00     0.176 C 
HETATM    2  N1  UNL     1      23.880   5.240  50.460  1.00  0.00    -0.262 NA
HETATM    3  C3  UNL     1      22.931   5.250  51.537  1.00  0.00     0.209 C 
HETATM    4  C4  UNL     1      22.420   3.854  51.612  1.00  0.00     0.076 C 
HETATM    5  N2  UNL     1      21.372   3.333  51.895  1.00  0.00    -0.246 NA
HETATM    6  C5  UNL     1      20.116   3.630  52.284  1.00  0.00     0.226 C 
HETATM    7  N3  UNL     1      19.618   2.646  51.700  1.00  0.00    -0.279 NA
HETATM    8  C6  UNL     1      18.419   2.002  51.450  1.00  0.00     0.179 C 
HETATM    9  C7  UNL     1      18.507   0.473  51.407  1.00  0.00     0.018 C 
HETATM   10  C8  UNL     1      19.840   0.327  51.519  1.00  0.00     0.051 A 
HETATM   11 CL1  UNL     1      21.422  -0.473  51.645  1.00  0.00    -0.134 Cl
HETATM   12  C9  UNL     1      20.982   1.042  50.954  1.00  0.00     0.210 A 
HETATM   13  F1  UNL     1      20.174   1.476  49.882  1.00  0.00    -0.220 F 
HETATM   14  C10 UNL     1      21.746   1.913  50.230  1.00  0.00     0.059 C 
HETATM   15  C11 UNL     1      23.213   1.804  50.446  1.00  0.00     0.063 C 
HETATM   16  C12 UNL     1      23.673   3.102  51.148  1.00  0.00     0.169 C 
ENDROOT
BRANCH  16  17
HETATM   17  O2  UNL     1      24.365   2.771  52.273  1.00  0.00    -0.364 OA
BRANCH  17  18
HETATM   18  C13 UNL     1      24.429   1.410  52.415  1.00  0.00     0.185 C 
BRANCH  18  19
HETATM   19  C14 UNL     1      25.864   0.943  52.720  1.00  0.00     0.054 C 
HETATM   20  C15 UNL     1      26.595   1.012  51.373  1.00  0.00     0.024 C 
HETATM   21  C16 UNL     1      25.775  -0.492  53.103  1.00  0.00     0.288 C 
HETATM   22  N4  UNL     1      26.677  -0.873  54.175  1.00  0.00     0.107 N 
HETATM   23  C17 UNL     1      26.405   0.103  55.240  1.00  0.00     0.440 C 
HETATM   24  H20 UNL     1      27.668  -0.761  53.860  1.00  0.00     0.318 HD
HETATM   25  O3  UNL     1      26.889   1.327  54.900  1.00  0.00    -0.331 OA
HETATM   26  C18 UNL     1      26.545   1.844  53.682  1.00  0.00     0.273 C 
BRANCH  26  27
HETATM   27  O4  UNL     1      27.666   2.390  53.106  1.00  0.00    -0.365 OA
HETATM   28  C19 UNL     1      28.808   2.276  53.885  1.00  0.00     0.204 C 
ENDBRANCH  26  27
ENDBRANCH  18  19
ENDBRANCH  17  18
ENDBRANCH  16  17
BRANCH   1  29
HETATM   29  O1  UNL     1      25.235   3.893  49.203  1.00  0.00    -0.340 OA
HETATM   30  C1  UNL     1      26.643   4.065  49.429  1.00  0.00     0.211 C 
ENDBRANCH   1  29
TORSDOF 5
ENDMDL
MODEL 3
REMARK VINA RESULT:      -7.7      2.569      4.566
REMARK  5 active torsions:
REMARK  status: ('A' for Active; 'I' for Inactive)
REMARK    1  A    between atoms: O1_2  and  C2_3 
REMARK    2  A    between atoms: C12_18  and  O2_19 
REMARK    3  A    between atoms: O2_19  and  C13_20 
REMARK    4  A    between atoms: C13_20  and  C14_21 
REMARK    5  A    between atoms: C18_27  and  O4_28 
ROOT
HETATM    1  C2  UNL     1      24.772   4.620  50.097  1.00  0.00     0.176 C 
HETATM    2  N1  UNL     1      24.431   5.773  50.567  1.00  0.00    -0.262 NA
HETATM    3  C3  UNL     1      23.570   5.632  51.707  1.00  0.00     0.209 C 
HETATM    4  C4  UNL     1      22.990   4.267  51.585  1.00  0.00     0.076 C 
HETATM    5  N2  UNL     1      21.939   3.747  51.863  1.00  0.00    -0.246 NA
HETATM    6  C5  UNL     1      20.736   4.022  52.403  1.00  0.00     0.226 C 
HETATM    7  N3  UNL     1      20.141   3.178  51.704  1.00  0.00    -0.279 NA
HETATM    8  C6  UNL     1      18.892   2.637  51.449  1.00  0.00     0.179 C 
HETATM    9  C7  UNL     1      18.892   1.138  51.137  1.00  0.00     0.018 C 
HETATM   10  C8  UNL     1      20.219   0.920  51.107  1.00  0.00     0.051 A 
HETATM   11 CL1  UNL     1      21.760   0.046  50.958  1.00  0.00    -0.134 Cl
HETATM   12  C9  UNL     1      21.353   1.676  50.578  1.00  0.00     0.210 A 
HETATM   13  F1  UNL     1      20.489   2.324  49.671  1.00  0.00    -0.220 F 
HETATM   14  C10 UNL     1      22.105   2.628  49.953  1.00  0.00     0.059 C 
HETATM   15  C11 UNL     1      23.576   2.424  50.020  1.00  0.00     0.063 C 
HETATM   16  C12 UNL     1      24.160   3.558  50.893  1.00  0.00     0.169 C 
ENDROOT
BRANCH  16  17
HETATM   17  O2  UNL     1      24.917   3.006  51.880  1.00  0.00    -0.364 OA
BRANCH  17  18
HETATM   18  C13 UNL     1      25.402   1.785  51.491  1.00  0.00     0.185 C 
BRANCH  18  19
HETATM   19  C14 UNL     1      25.786   0.918  52.704  1.00  0.00     0.054 C 
HETATM   20  C15 UNL     1      24.485   0.209  53.107  1.00  0.00     0.024 C 
HETATM   21  C16 UNL     1      26.139   1.854  53.805  1.00  0.00     0.288 C 
HETATM   22  N4  UNL     1      27.257   1.412  54.617  1.00  0.00     0.107 N 
HETATM   23  C17 UNL     1      28.319   1.121  53.644  1.00  0.00     0.440 C 
HETATM   24  H20 UNL     1      27.005   0.527  55.115  1.00  0.00     0.318 HD
HETATM   25  O3  UNL     1      28.029  -0.008  52.944  1.00  0.00    -0.331 OA
HETATM   26  C18 UNL     1      26.800  -0.104  52.352  1.00  0.00     0.273 C 
BRANCH  26  27
HETATM   27  O4  UNL     1      26.302  -1.363  52.580  1.00  0.00    -0.365 OA
HETATM   28  C19 UNL     1      27.272  -2.355  52.601  1.00  0.00     0.204 C 
ENDBRANCH  26  27
ENDBRANCH  18  19
ENDBRANCH  17  18
ENDBRANCH  16  17
BRANCH   1  29
HETATM   29  O1  UNL     1      25.608   4.614  48.986  1.00  0.00    -0.340 OA
HETATM   30  C1  UNL     1      27.031   4.454  49.114  1.00  0.00     0.211 C 
ENDBRANCH   1  29
TORSDOF 5
ENDMDL
MODEL 4
REMARK VINA RESULT:      -7.6      2.545      4.779
REMARK  5 active torsions:
REMARK  status: ('A' for Active; 'I' for Inactive)
REMARK    1  A    between atoms: O1_2  and  C2_3 
REMARK    2  A    between atoms: C12_18  and  O2_19 
REMARK    3  A    between atoms: O2_19  and  C13_20 
REMARK    4  A    between atoms: C13_20  and  C14_21 
REMARK    5  A    between atoms: C18_27  and  O4_28 
ROOT
HETATM    1  C2  UNL     1      26.232   4.986  49.403  1.00  0.00     0.176 C 
HETATM    2  N1  UNL     1      26.044   6.251  49.578  1.00  0.00    -0.262 NA
HETATM    3  C3  UNL     1      24.924   6.493  50.442  1.00  0.00     0.209 C 
HETATM    4  C4  UNL     1      24.110   5.249  50.375  1.00  0.00     0.076 C 
HETATM    5  N2  UNL     1      22.937   4.980  50.426  1.00  0.00    -0.246 NA
HETATM    6  C5  UNL     1      21.727   5.558  50.562  1.00  0.00     0.226 C 
HETATM    7  N3  UNL     1      21.151   4.700  49.864  1.00  0.00    -0.279 NA
HETATM    8  C6  UNL     1      19.915   4.335  49.359  1.00  0.00     0.179 C 
HETATM    9  C7  UNL     1      19.667   2.825  49.294  1.00  0.00     0.018 C 
HETATM   10  C8  UNL     1      20.882   2.387  49.667  1.00  0.00     0.051 A 
HETATM   11 CL1  UNL     1      22.188   1.255  50.087  1.00  0.00    -0.134 Cl
HETATM   12  C9  UNL     1      22.246   2.817  49.364  1.00  0.00     0.210 A 
HETATM   13  F1  UNL     1      21.788   3.401  48.164  1.00  0.00    -0.220 F 
HETATM   14  C10 UNL     1      23.314   3.481  48.833  1.00  0.00     0.059 C 
HETATM   15  C11 UNL     1      24.646   3.052  49.336  1.00  0.00     0.063 C 
HETATM   16  C12 UNL     1      25.231   4.227  50.152  1.00  0.00     0.169 C 
ENDROOT
BRANCH  16  17
HETATM   17  O2  UNL     1      25.590   3.771  51.383  1.00  0.00    -0.364 OA
BRANCH  17  18
HETATM   18  C13 UNL     1      25.568   2.401  51.415  1.00  0.00     0.185 C 
BRANCH  18  19
HETATM   19  C14 UNL     1      25.141   1.876  52.797  1.00  0.00     0.054 C 
HETATM   20  C15 UNL     1      23.987   2.792  53.226  1.00  0.00     0.024 C 
HETATM   21  C16 UNL     1      26.278   2.133  53.723  1.00  0.00     0.288 C 
HETATM   22  N4  UNL     1      26.501   1.074  54.690  1.00  0.00     0.107 N 
HETATM   23  C17 UNL     1      26.587  -0.146  53.876  1.00  0.00     0.440 C 
HETATM   24  H20 UNL     1      25.674   0.997  55.327  1.00  0.00     0.318 HD
HETATM   25  O3  UNL     1      25.364  -0.481  53.386  1.00  0.00    -0.331 OA
HETATM   26  C18 UNL     1      24.646   0.480  52.728  1.00  0.00     0.273 C 
BRANCH  26  27
HETATM   27  O4  UNL     1      23.342   0.419  53.154  1.00  0.00    -0.365 OA
HETATM   28  C19 UNL     1      22.862  -0.873  53.308  1.00  0.00     0.204 C 
ENDBRANCH  26  27
ENDBRANCH  18  19
ENDBRANCH  17  18
ENDBRANCH  16  17
BRANCH   1  29
HETATM   29  O1  UNL     1      27.290   4.612  48.583  1.00  0.00    -0.340 OA
HETATM   30  C1  UNL     1      28.410   5.483  48.353  1.00  0.00     0.211 C 
ENDBRANCH   1  29
TORSDOF 5
ENDMDL
MODEL 5
REMARK VINA RESULT:      -7.6      3.538      5.866
REMARK  5 active torsions:
REMARK  status: ('A' for Active; 'I' for Inactive)
REMARK    1  A    between atoms: O1_2  and  C2_3 
REMARK    2  A    between atoms: C12_18  and  O2_19 
REMARK    3  A    between atoms: O2_19  and  C13_20 
REMARK    4  A    between atoms: C13_20  and  C14_21 
REMARK    5  A    between atoms: C18_27  and  O4_28 
ROOT
HETATM    1  C2  UNL     1      21.021   3.549  47.894  1.00  0.00     0.176 C 
HETATM    2  N1  UNL     1      19.809   3.934  48.118  1.00  0.00    -0.262 NA
HETATM    3  C3  UNL     1      19.607   4.225  49.509  1.00  0.00     0.209 C 
HETATM    4  C4  UNL     1      20.685   3.483  50.218  1.00  0.00     0.076 C 
HETATM    5  N2  UNL     1      20.795   2.927  51.281  1.00  0.00    -0.246 NA
HETATM    6  C5  UNL     1      20.100   2.641  52.399  1.00  0.00     0.226 C 
HETATM    7  N3  UNL     1      20.701   1.566  52.592  1.00  0.00    -0.279 NA
HETATM    8  C6  UNL     1      20.776   0.481  53.450  1.00  0.00     0.179 C 
HETATM    9  C7  UNL     1      22.188  -0.070  53.667  1.00  0.00     0.018 C 
HETATM   10  C8  UNL     1      22.859   0.688  52.781  1.00  0.00     0.051 A 
HETATM   11 CL1  UNL     1      24.222   1.352  51.852  1.00  0.00    -0.134 Cl
HETATM   12  C9  UNL     1      22.564   1.157  51.429  1.00  0.00     0.210 A 
HETATM   13  F1  UNL     1      21.679   0.072  51.252  1.00  0.00    -0.220 F 
HETATM   14  C10 UNL     1      21.954   1.357  50.223  1.00  0.00     0.059 C 
HETATM   15  C11 UNL     1      22.660   2.281  49.298  1.00  0.00     0.063 C 
HETATM   16  C12 UNL     1      21.778   3.542  49.145  1.00  0.00     0.169 C 
ENDROOT
BRANCH  16  17
HETATM   17  O2  UNL     1      22.533   4.641  49.421  1.00  0.00    -0.364 OA
BRANCH  17  18
HETATM   18  C13 UNL     1      23.814   4.472  48.966  1.00  0.00     0.185 C 
BRANCH  18  19
HETATM   19  C14 UNL     1      24.835   5.166  49.886  1.00  0.00     0.054 C 
HETATM   20  C15 UNL     1      25.953   4.133  50.081  1.00  0.00     0.024 C 
HETATM   21  C16 UNL     1      24.168   5.351  51.203  1.00  0.00     0.288 C 
HETATM   22  N4  UNL     1      24.489   6.607  51.854  1.00  0.00     0.107 N 
HETATM   23  C17 UNL     1      24.207   7.626  50.832  1.00  0.00     0.440 C 
HETATM   24  H20 UNL     1      25.508   6.636  52.086  1.00  0.00     0.318 HD
HETATM   25  O3  UNL     1      25.142   7.585  49.847  1.00  0.00    -0.331 OA
HETATM   26  C18 UNL     1      25.408   6.380  49.257  1.00  0.00     0.273 C 
BRANCH  26  27
HETATM   27  O4  UNL     1      26.769   6.249  49.127  1.00  0.00    -0.365 OA
HETATM   28  C19 UNL     1      27.337   7.150  48.240  1.00  0.00     0.204 C 
ENDBRANCH  26  27
ENDBRANCH  18  19
ENDBRANCH  17  18
ENDBRANCH  16  17
BRANCH   1  29
HETATM   29  O1  UNL     1      21.351   3.233  46.581  1.00  0.00    -0.340 OA
HETATM   30  C1  UNL     1      21.918   4.209  45.690  1.00  0.00     0.211 C 
ENDBRANCH   1  29
TORSDOF 5
ENDMDL
MODEL 6
REMARK VINA RESULT:      -7.5      3.112      6.718
REMARK  5 active torsions:
REMARK  status: ('A' for Active; 'I' for Inactive)
REMARK    1  A    between atoms: O1_2  and  C2_3 
REMARK    2  A    between atoms: C12_18  and  O2_19 
REMARK    3  A    between atoms: O2_19  and  C13_20 
REMARK    4  A    between atoms: C13_20  and  C14_21 
REMARK    5  A    between atoms: C18_27  and  O4_28 
ROOT
HETATM    1  C2  UNL     1      24.146   5.799  50.755  1.00  0.00     0.176 C 
HETATM    2  N1  UNL     1      25.275   5.981  50.155  1.00  0.00    -0.262 NA
HETATM    3  C3  UNL     1      25.830   4.734  49.710  1.00  0.00     0.209 C 
HETATM    4  C4  UNL     1      25.176   3.698  50.554  1.00  0.00     0.076 C 
HETATM    5  N2  UNL     1      25.499   2.636  51.023  1.00  0.00    -0.246 NA
HETATM    6  C5  UNL     1      26.540   1.783  51.088  1.00  0.00     0.226 C 
HETATM    7  N3  UNL     1      26.237   1.375  52.226  1.00  0.00    -0.279 NA
HETATM    8  C6  UNL     1      26.629   0.502  53.227  1.00  0.00     0.179 C 
HETATM    9  C7  UNL     1      25.478  -0.166  53.984  1.00  0.00     0.018 C 
HETATM   10  C8  UNL     1      24.441   0.489  53.430  1.00  0.00     0.051 A 
HETATM   11 CL1  UNL     1      22.762   0.964  53.089  1.00  0.00    -0.134 Cl
HETATM   12  C9  UNL     1      24.220   1.880  53.043  1.00  0.00     0.210 A 
HETATM   13  F1  UNL     1      25.196   2.289  53.976  1.00  0.00    -0.220 F 
HETATM   14  C10 UNL     1      24.388   3.222  52.854  1.00  0.00     0.059 C 
HETATM   15  C11 UNL     1      23.275   3.910  52.146  1.00  0.00     0.063 C 
HETATM   16  C12 UNL     1      23.818   4.374  50.776  1.00  0.00     0.169 C 
ENDROOT
BRANCH  16  17
HETATM   17  O2  UNL     1      22.992   3.912  49.797  1.00  0.00    -0.364 OA
BRANCH  17  18
HETATM   18  C13 UNL     1      21.739   3.671  50.299  1.00  0.00     0.185 C 
BRANCH  18  19
HETATM   19  C14 UNL     1      21.058   2.497  49.573  1.00  0.00     0.054 C 
HETATM   20  C15 UNL     1      22.122   1.392  49.530  1.00  0.00     0.024 C 
HETATM   21  C16 UNL     1      20.822   2.938  48.172  1.00  0.00     0.288 C 
HETATM   22  N4  UNL     1      19.562   2.482  47.615  1.00  0.00     0.107 N 
HETATM   23  C17 UNL     1      18.558   2.896  48.606  1.00  0.00     0.440 C 
HETATM   24  H20 UNL     1      19.561   1.438  47.550  1.00  0.00     0.318 HD
HETATM   25  O3  UNL     1      18.651   2.132  49.727  1.00  0.00    -0.331 OA
HETATM   26  C18 UNL     1      19.878   1.998  50.318  1.00  0.00     0.273 C 
BRANCH  26  27
HETATM   27  O4  UNL     1      20.056   0.680  50.660  1.00  0.00    -0.365 OA
HETATM   28  C19 UNL     1      19.221   0.247  51.679  1.00  0.00     0.204 C 
ENDBRANCH  26  27
ENDBRANCH  18  19
ENDBRANCH  17  18
ENDBRANCH  16  17
BRANCH   1  29
HETATM   29  O1  UNL     1      23.498   6.930  51.238  1.00  0.00    -0.340 OA
HETATM   30  C1  UNL     1      22.234   7.360  50.707  1.00  0.00     0.211 C 
ENDBRANCH   1  29
TORSDOF 5
ENDMDL
MODEL 7
REMARK VINA RESULT:      -7.2      3.209      6.691
REMARK  5 active torsions:
REMARK  status: ('A' for Active; 'I' for Inactive)
REMARK    1  A    between atoms: O1_2  and  C2_3 
REMARK    2  A    between atoms: C12_18  and  O2_19 
REMARK    3  A    between atoms: O2_19  and  C13_20 
REMARK    4  A    between atoms: C13_20  and  C14_21 
REMARK    5  A    between atoms: C18_27  and  O4_28 
ROOT
HETATM    1  C2  UNL     1      24.408   6.133  50.606  1.00  0.00     0.176 C 
HETATM    2  N1  UNL     1      25.587   6.203  50.084  1.00  0.00    -0.262 NA
HETATM    3  C3  UNL     1      26.033   4.914  49.638  1.00  0.00     0.209 C 
HETATM    4  C4  UNL     1      25.216   3.937  50.407  1.00  0.00     0.076 C 
HETATM    5  N2  UNL     1      25.390   2.835  50.863  1.00  0.00    -0.246 NA
HETATM    6  C5  UNL     1      26.327   1.872  50.967  1.00  0.00     0.226 C 
HETATM    7  N3  UNL     1      25.907   1.473  52.072  1.00  0.00    -0.279 NA
HETATM    8  C6  UNL     1      26.135   0.539  53.068  1.00  0.00     0.179 C 
HETATM    9  C7  UNL     1      24.871  -0.015  53.731  1.00  0.00     0.018 C 
HETATM   10  C8  UNL     1      23.950   0.762  53.133  1.00  0.00     0.051 A 
HETATM   11 CL1  UNL     1      22.358   1.427  52.701  1.00  0.00    -0.134 Cl
HETATM   12  C9  UNL     1      23.907   2.178  52.775  1.00  0.00     0.210 A 
HETATM   13  F1  UNL     1      24.857   2.456  53.780  1.00  0.00    -0.220 F 
HETATM   14  C10 UNL     1      24.231   3.498  52.637  1.00  0.00     0.059 C 
HETATM   15  C11 UNL     1      23.249   4.320  51.882  1.00  0.00     0.063 C 
HETATM   16  C12 UNL     1      23.928   4.753  50.563  1.00  0.00     0.169 C 
ENDROOT
BRANCH  16  17
HETATM   17  O2  UNL     1      23.122   4.408  49.521  1.00  0.00    -0.364 OA
BRANCH  17  18
HETATM   18  C13 UNL     1      21.804   4.480  49.887  1.00  0.00     0.185 C 
BRANCH  18  19
HETATM   19  C14 UNL     1      20.917   3.613  48.975  1.00  0.00     0.054 C 
HETATM   20  C15 UNL     1      19.793   4.550  48.513  1.00  0.00     0.024 C 
HETATM   21  C16 UNL     1      20.300   2.572  49.840  1.00  0.00     0.288 C 
HETATM   22  N4  UNL     1      20.194   1.269  49.211  1.00  0.00     0.107 N 
HETATM   23  C17 UNL     1      21.553   0.990  48.727  1.00  0.00     0.440 C 
HETATM   24  H20 UNL     1      19.548   1.324  48.390  1.00  0.00     0.318 HD
HETATM   25  O3  UNL     1      21.852   1.781  47.663  1.00  0.00    -0.331 OA
HETATM   26  C18 UNL     1      21.657   3.130  47.784  1.00  0.00     0.273 C 
BRANCH  26  27
HETATM   27  O4  UNL     1      21.060   3.590  46.637  1.00  0.00    -0.365 OA
HETATM   28  C19 UNL     1      21.931   3.725  45.566  1.00  0.00     0.204 C 
ENDBRANCH  26  27
ENDBRANCH  18  19
ENDBRANCH  17  18
ENDBRANCH  16  17
BRANCH   1  29
HETATM   29  O1  UNL     1      23.857   7.318  51.081  1.00  0.00    -0.340 OA
HETATM   30  C1  UNL     1      22.773   7.971  50.401  1.00  0.00     0.211 C 
ENDBRANCH   1  29
TORSDOF 5
ENDMDL
MODEL 8
REMARK VINA RESULT:      -7.2      7.757     10.318
REMARK  5 active torsions:
REMARK  status: ('A' for Active; 'I' for Inactive)
REMARK    1  A    between atoms: O1_2  and  C2_3 
REMARK    2  A    between atoms: C12_18  and  O2_19 
REMARK    3  A    between atoms: O2_19  and  C13_20 
REMARK    4  A    between atoms: C13_20  and  C14_21 
REMARK    5  A    between atoms: C18_27  and  O4_28 
ROOT
HETATM    1  C2  UNL     1      30.882   9.177  46.686  1.00  0.00     0.176 C 
HETATM    2  N1  UNL     1      30.812  10.367  47.182  1.00  0.00    -0.262 NA
HETATM    3  C3  UNL     1      30.302  10.338  48.523  1.00  0.00     0.209 C 
HETATM    4  C4  UNL     1      29.571   9.047  48.630  1.00  0.00     0.076 C 
HETATM    5  N2  UNL     1      28.594   8.653  49.215  1.00  0.00    -0.246 NA
HETATM    6  C5  UNL     1      27.630   9.070  50.060  1.00  0.00     0.226 C 
HETATM    7  N3  UNL     1      26.775   8.290  49.594  1.00  0.00    -0.279 NA
HETATM    8  C6  UNL     1      25.456   7.891  49.726  1.00  0.00     0.179 C 
HETATM    9  C7  UNL     1      25.209   6.398  49.493  1.00  0.00     0.018 C 
HETATM   10  C8  UNL     1      26.442   6.030  49.100  1.00  0.00     0.051 A 
HETATM   11 CL1  UNL     1      27.775   4.985  48.561  1.00  0.00    -0.134 Cl
HETATM   12  C9  UNL     1      27.451   6.646  48.241  1.00  0.00     0.210 A 
HETATM   13  F1  UNL     1      26.438   7.377  47.585  1.00  0.00    -0.220 F 
HETATM   14  C10 UNL     1      28.090   7.499  47.387  1.00  0.00     0.059 C 
HETATM   15  C11 UNL     1      29.489   7.130  47.046  1.00  0.00     0.063 C 
HETATM   16  C12 UNL     1      30.413   8.201  47.668  1.00  0.00     0.169 C 
ENDROOT
BRANCH  16  17
HETATM   17  O2  UNL     1      31.358   7.579  48.426  1.00  0.00    -0.364 OA
BRANCH  17  18
HETATM   18  C13 UNL     1      31.486   6.266  48.054  1.00  0.00     0.185 C 
BRANCH  18  19
HETATM   19  C14 UNL     1      32.881   5.979  47.470  1.00  0.00     0.054 C 
HETATM   20  C15 UNL     1      32.649   5.819  45.961  1.00  0.00     0.024 C 
HETATM   21  C16 UNL     1      33.301   4.652  47.996  1.00  0.00     0.288 C 
HETATM   22  N4  UNL     1      34.711   4.569  48.327  1.00  0.00     0.107 N 
HETATM   23  C17 UNL     1      34.944   5.723  49.208  1.00  0.00     0.440 C 
HETATM   24  H20 UNL     1      35.285   4.686  47.461  1.00  0.00     0.318 HD
HETATM   25  O3  UNL     1      34.899   6.881  48.499  1.00  0.00    -0.331 OA
HETATM   26  C18 UNL     1      33.816   7.107  47.695  1.00  0.00     0.273 C 
BRANCH  26  27
HETATM   27  O4  UNL     1      34.259   7.602  46.493  1.00  0.00    -0.365 OA
HETATM   28  C19 UNL     1      34.761   8.892  46.569  1.00  0.00     0.204 C 
ENDBRANCH  26  27
ENDBRANCH  18  19
ENDBRANCH  17  18
ENDBRANCH  16  17
BRANCH   1  29
HETATM   29  O1  UNL     1      31.361   9.063  45.386  1.00  0.00    -0.340 OA
HETATM   30  C1  UNL     1      30.920   9.943  44.339  1.00  0.00     0.211 C 
ENDBRANCH   1  29
TORSDOF 5
ENDMDL
MODEL 9
REMARK VINA RESULT:      -6.7      3.141      5.490
REMARK  5 active torsions:
REMARK  status: ('A' for Active; 'I' for Inactive)
REMARK    1  A    between atoms: O1_2  and  C2_3 
REMARK    2  A    between atoms: C12_18  and  O2_19 
REMARK    3  A    between atoms: O2_19  and  C13_20 
REMARK    4  A    between atoms: C13_20  and  C14_21 
REMARK    5  A    between atoms: C18_27  and  O4_28 
ROOT
HETATM    1  C2  UNL     1      21.296   3.665  48.459  1.00  0.00     0.176 C 
HETATM    2  N1  UNL     1      20.443   4.613  48.257  1.00  0.00    -0.262 NA
HETATM    3  C3  UNL     1      19.632   4.835  49.420  1.00  0.00     0.209 C 
HETATM    4  C4  UNL     1      19.723   3.571  50.200  1.00  0.00     0.076 C 
HETATM    5  N2  UNL     1      18.986   2.945  50.919  1.00  0.00    -0.246 NA
HETATM    6  C5  UNL     1      17.740   2.969  51.432  1.00  0.00     0.226 C 
HETATM    7  N3  UNL     1      17.642   1.726  51.458  1.00  0.00    -0.279 NA
HETATM    8  C6  UNL     1      16.785   0.693  51.798  1.00  0.00     0.179 C 
HETATM    9  C7  UNL     1      17.470  -0.542  52.389  1.00  0.00     0.018 C 
HETATM   10  C8  UNL     1      18.756  -0.178  52.230  1.00  0.00     0.051 A 
HETATM   11 CL1  UNL     1      20.531  -0.257  52.302  1.00  0.00    -0.134 Cl
HETATM   12  C9  UNL     1      19.486   0.500  51.161  1.00  0.00     0.210 A 
HETATM   13  F1  UNL     1      18.511   0.075  50.234  1.00  0.00    -0.220 F 
HETATM   14  C10 UNL     1      19.798   1.105  49.977  1.00  0.00     0.059 C 
HETATM   15  C11 UNL     1      21.197   1.595  49.861  1.00  0.00     0.063 C 
HETATM   16  C12 UNL     1      21.142   3.139  49.814  1.00  0.00     0.169 C 
ENDROOT
BRANCH  16  17
HETATM   17  O2  UNL     1      21.972   3.637  50.772  1.00  0.00    -0.364 OA
BRANCH  17  18
HETATM   18  C13 UNL     1      22.912   2.705  51.127  1.00  0.00     0.185 C 
BRANCH  18  19
HETATM   19  C14 UNL     1      24.203   3.372  51.637  1.00  0.00     0.054 C 
HETATM   20  C15 UNL     1      23.795   4.067  52.943  1.00  0.00     0.024 C 
HETATM   21  C16 UNL     1      24.550   4.437  50.658  1.00  0.00     0.288 C 
HETATM   22  N4  UNL     1      25.974   4.568  50.410  1.00  0.00     0.107 N 
HETATM   23  C17 UNL     1      26.408   3.205  50.071  1.00  0.00     0.440 C 
HETATM   24  H20 UNL     1      26.459   4.868  51.287  1.00  0.00     0.318 HD
HETATM   25  O3  UNL     1      26.397   2.412  51.175  1.00  0.00    -0.331 OA
HETATM   26  C18 UNL     1      25.259   2.374  51.933  1.00  0.00     0.273 C 
BRANCH  26  27
HETATM   27  O4  UNL     1      25.614   2.441  53.258  1.00  0.00    -0.365 OA
HETATM   28  C19 UNL     1      25.986   1.220  53.801  1.00  0.00     0.204 C 
ENDBRANCH  26  27
ENDBRANCH  18  19
ENDBRANCH  17  18
ENDBRANCH  16  17
BRANCH   1  29
HETATM   29  O1  UNL     1      22.147   3.347  47.407  1.00  0.00    -0.340 OA
HETATM   30  C1  UNL     1      21.820   3.675  46.046  1.00  0.00     0.211 C 
ENDBRANCH   1  29
TORSDOF 5
ENDMDL
