MODEL 1
REMARK VINA RESULT:      -8.4      0.000      0.000
REMARK  5 active torsions:
REMARK  status: ('A' for Active; 'I' for Inactive)
REMARK    1  A    between atoms: N1_2  and  C1_3 
REMARK    2  A    between atoms: N2_6  and  C4_7 
REMARK    3  A    between atoms: C4_7  and  C5_8 
REMARK    4  A    between atoms: C9_15  and  N6_16 
REMARK    5  A    between atoms: N6_16  and  C10_17 
ROOT
HETATM    1  C5  UNL     1      21.716   0.480  52.026  1.00  0.00     0.004 A 
HETATM    2  C6  UNL     1      20.354   0.227  52.218  1.00  0.00     0.030 A 
HETATM    3  C7  UNL     1      20.221  -0.514  53.376  1.00  0.00     0.119 A 
HETATM    4  N3  UNL     1      21.463  -0.690  53.853  1.00  0.00    -0.240 N 
HETATM    5  N4  UNL     1      21.802  -1.360  54.968  1.00  0.00    -0.161 NA
HETATM    6  C8  UNL     1      23.093  -1.459  55.324  1.00  0.00     0.258 A 
HETATM    7  N5  UNL     1      24.012  -0.884  54.553  1.00  0.00    -0.220 NA
HETATM    8  C9  UNL     1      23.702  -0.212  53.441  1.00  0.00     0.159 A 
HETATM    9  C16 UNL     1      22.385  -0.105  53.067  1.00  0.00     0.112 A 
ENDROOT
BRANCH   1  10
HETATM   10  C4  UNL     1      22.254   1.239  50.898  1.00  0.00     0.313 C 
BRANCH  10  11
HETATM   11  N2  UNL     1      22.624   2.608  51.304  1.00  0.00     0.092 N 
HETATM   12  C3  UNL     1      23.767   2.947  50.466  1.00  0.00     0.274 C 
HETATM   13  C2  UNL     1      23.753   4.370  50.019  1.00  0.00     0.051 C 
HETATM   14  C1  UNL     1      23.088   5.343  50.915  1.00  0.00     0.075 C 
HETATM   15  C18 UNL     1      21.832   4.818  51.600  1.00  0.00     0.051 C 
HETATM   16  C17 UNL     1      21.531   3.498  50.926  1.00  0.00     0.274 C 
BRANCH  14  17
HETATM   17  N1  UNL     1      23.949   5.888  51.936  1.00  0.00    -0.233 NA
HETATM   18 CL1  UNL     1      23.795   5.086  53.450  1.00  0.00    -0.024 Cl
HETATM   19  H1  UNL     1      24.947   5.855  51.635  1.00  0.00     0.141 HD
ENDBRANCH  14  17
ENDBRANCH  10  11
ENDBRANCH   1  10
BRANCH   8  20
HETATM   20  N6  UNL     1      24.704   0.395  52.647  1.00  0.00    -0.339 N 
HETATM   21  H12 UNL     1      24.597   0.773  51.692  1.00  0.00     0.167 HD
BRANCH  20  22
HETATM   22  C10 UNL     1      26.055   0.603  53.032  1.00  0.00     0.035 A 
HETATM   23  C11 UNL     1      26.549   1.836  53.409  1.00  0.00     0.029 A 
HETATM   24  C12 UNL     1      27.847   2.055  53.763  1.00  0.00     0.004 A 
HETATM   25  C13 UNL     1      28.768   1.045  53.771  1.00  0.00     0.024 A 
HETATM   26  C14 UNL     1      28.348  -0.205  53.409  1.00  0.00     0.036 A 
HETATM   27 CL2  UNL     1      29.448  -1.583  53.380  1.00  0.00    -0.084 Cl
HETATM   28  C15 UNL     1      27.029  -0.372  53.060  1.00  0.00     0.053 A 
ENDBRANCH  20  22
ENDBRANCH   8  20
TORSDOF 5
ENDMDL
MODEL 2
REMARK VINA RESULT:      -8.3      2.868      5.367
REMARK  5 active torsions:
REMARK  status: ('A' for Active; 'I' for Inactive)
REMARK    1  A    between atoms: N1_2  and  C1_3 
REMARK    2  A    between atoms: N2_6  and  C4_7 
REMARK    3  A    between atoms: C4_7  and  C5_8 
REMARK    4  A    between atoms: C9_15  and  N6_16 
REMARK    5  A    between atoms: N6_16  and  C10_17 
ROOT
HETATM    1  C5  UNL     1      25.360   0.200  53.316  1.00  0.00     0.004 A 
HETATM    2  C6  UNL     1      25.345  -0.421  54.569  1.00  0.00     0.030 A 
HETATM    3  C7  UNL     1      26.470  -0.009  55.258  1.00  0.00     0.119 A 
HETATM    4  N3  UNL     1      27.126   0.829  54.439  1.00  0.00    -0.240 N 
HETATM    5  N4  UNL     1      28.280   1.464  54.704  1.00  0.00    -0.161 NA
HETATM    6  C8  UNL     1      28.826   2.274  53.783  1.00  0.00     0.258 A 
HETATM    7  N5  UNL     1      28.201   2.429  52.619  1.00  0.00    -0.220 NA
HETATM    8  C9  UNL     1      27.053   1.809  52.330  1.00  0.00     0.159 A 
HETATM    9  C16 UNL     1      26.486   0.977  53.265  1.00  0.00     0.112 A 
ENDROOT
BRANCH   1  10
HETATM   10  C4  UNL     1      24.328   0.008  52.299  1.00  0.00     0.313 C 
BRANCH  10  11
HETATM   11  N2  UNL     1      23.113   0.782  52.618  1.00  0.00     0.092 N 
HETATM   12  C3  UNL     1      22.679   1.334  51.341  1.00  0.00     0.274 C 
HETATM   13  C2  UNL     1      21.194   1.343  51.192  1.00  0.00     0.051 C 
HETATM   14  C1  UNL     1      20.401   1.456  52.436  1.00  0.00     0.075 C 
HETATM   15  C18 UNL     1      20.974   0.694  53.625  1.00  0.00     0.051 C 
HETATM   16  C17 UNL     1      22.086  -0.158  53.055  1.00  0.00     0.274 C 
BRANCH  14  17
HETATM   17  N1  UNL     1      20.159   2.813  52.860  1.00  0.00    -0.233 NA
HETATM   18 CL1  UNL     1      19.531   3.812  51.609  1.00  0.00    -0.024 Cl
HETATM   19  H1  UNL     1      19.505   2.836  53.672  1.00  0.00     0.141 HD
ENDBRANCH  14  17
ENDBRANCH  10  11
ENDBRANCH   1  10
BRANCH   8  20
HETATM   20  N6  UNL     1      26.409   2.001  51.085  1.00  0.00    -0.339 N 
HETATM   21  H12 UNL     1      26.081   1.269  50.434  1.00  0.00     0.167 HD
BRANCH  20  22
HETATM   22  C10 UNL     1      26.087   3.255  50.502  1.00  0.00     0.035 A 
HETATM   23  C11 UNL     1      26.824   3.823  49.482  1.00  0.00     0.029 A 
HETATM   24  C12 UNL     1      26.538   5.034  48.924  1.00  0.00     0.004 A 
HETATM   25  C13 UNL     1      25.476   5.784  49.347  1.00  0.00     0.024 A 
HETATM   26  C14 UNL     1      24.700   5.282  50.354  1.00  0.00     0.036 A 
HETATM   27 CL2  UNL     1      23.307   6.162  50.981  1.00  0.00    -0.084 Cl
HETATM   28  C15 UNL     1      25.032   4.057  50.882  1.00  0.00     0.053 A 
ENDBRANCH  20  22
ENDBRANCH   8  20
TORSDOF 5
ENDMDL
MODEL 3
REMARK VINA RESULT:      -8.2      1.596      1.946
REMARK  5 active torsions:
REMARK  status: ('A' for Active; 'I' for Inactive)
REMARK    1  A    between atoms: N1_2  and  C1_3 
REMARK    2  A    between atoms: N2_6  and  C4_7 
REMARK    3  A    between atoms: C4_7  and  C5_8 
REMARK    4  A    between atoms: C9_15  and  N6_16 
REMARK    5  A    between atoms: N6_16  and  C10_17 
ROOT
HETATM    1  C5  UNL     1      22.559   0.622  52.629  1.00  0.00     0.004 A 
HETATM    2  C6  UNL     1      21.194   0.602  52.932  1.00  0.00     0.030 A 
HETATM    3  C7  UNL     1      21.030  -0.120  54.099  1.00  0.00     0.119 A 
HETATM    4  N3  UNL     1      22.259  -0.512  54.472  1.00  0.00    -0.240 N 
HETATM    5  N4  UNL     1      22.568  -1.244  55.556  1.00  0.00    -0.161 NA
HETATM    6  C8  UNL     1      23.847  -1.566  55.805  1.00  0.00     0.258 A 
HETATM    7  N5  UNL     1      24.786  -1.145  54.961  1.00  0.00    -0.220 NA
HETATM    8  C9  UNL     1      24.506  -0.416  53.877  1.00  0.00     0.159 A 
HETATM    9  C16 UNL     1      23.200  -0.082  53.612  1.00  0.00     0.112 A 
ENDROOT
BRANCH   1  10
HETATM   10  C4  UNL     1      23.125   1.293  51.460  1.00  0.00     0.313 C 
BRANCH  10  11
HETATM   11  N2  UNL     1      22.630   2.678  51.348  1.00  0.00     0.092 N 
HETATM   12  C3  UNL     1      23.442   3.438  52.290  1.00  0.00     0.274 C 
HETATM   13  C2  UNL     1      23.797   4.796  51.782  1.00  0.00     0.051 C 
HETATM   14  C1  UNL     1      22.841   5.425  50.844  1.00  0.00     0.075 C 
HETATM   15  C18 UNL     1      22.194   4.461  49.856  1.00  0.00     0.051 C 
HETATM   16  C17 UNL     1      22.953   3.162  50.010  1.00  0.00     0.274 C 
BRANCH  14  17
HETATM   17  N1  UNL     1      21.785   6.168  51.487  1.00  0.00    -0.233 NA
HETATM   18 CL1  UNL     1      21.439   7.663  50.711  1.00  0.00    -0.024 Cl
HETATM   19  H1  UNL     1      20.911   5.602  51.535  1.00  0.00     0.141 HD
ENDBRANCH  14  17
ENDBRANCH  10  11
ENDBRANCH   1  10
BRANCH   8  20
HETATM   20  N6  UNL     1      25.528   0.021  53.003  1.00  0.00    -0.339 N 
HETATM   21  H12 UNL     1      25.410   0.479  52.085  1.00  0.00     0.167 HD
BRANCH  20  22
HETATM   22  C10 UNL     1      26.925  -0.085  53.241  1.00  0.00     0.035 A 
HETATM   23  C11 UNL     1      27.648  -1.233  52.982  1.00  0.00     0.029 A 
HETATM   24  C12 UNL     1      28.984  -1.355  53.221  1.00  0.00     0.004 A 
HETATM   25  C13 UNL     1      29.716  -0.326  53.745  1.00  0.00     0.024 A 
HETATM   26  C14 UNL     1      29.064   0.842  54.025  1.00  0.00     0.036 A 
HETATM   27 CL2  UNL     1      29.905   2.235  54.704  1.00  0.00    -0.084 Cl
HETATM   28  C15 UNL     1      27.717   0.914  53.765  1.00  0.00     0.053 A 
ENDBRANCH  20  22
ENDBRANCH   8  20
TORSDOF 5
ENDMDL
MODEL 4
REMARK VINA RESULT:      -8.0      2.547      6.291
REMARK  5 active torsions:
REMARK  status: ('A' for Active; 'I' for Inactive)
REMARK    1  A    between atoms: N1_2  and  C1_3 
REMARK    2  A    between atoms: N2_6  and  C4_7 
REMARK    3  A    between atoms: C4_7  and  C5_8 
REMARK    4  A    between atoms: C9_15  and  N6_16 
REMARK    5  A    between atoms: N6_16  and  C10_17 
ROOT
HETATM    1  C5  UNL     1      24.007   2.063  52.393  1.00  0.00     0.004 A 
HETATM    2  C6  UNL     1      23.385   0.834  52.640  1.00  0.00     0.030 A 
HETATM    3  C7  UNL     1      22.182   0.826  51.961  1.00  0.00     0.119 A 
HETATM    4  N3  UNL     1      22.098   2.009  51.332  1.00  0.00    -0.240 N 
HETATM    5  N4  UNL     1      21.086   2.430  50.555  1.00  0.00    -0.161 NA
HETATM    6  C8  UNL     1      21.136   3.646  49.989  1.00  0.00     0.258 A 
HETATM    7  N5  UNL     1      22.200   4.412  50.217  1.00  0.00    -0.220 NA
HETATM    8  C9  UNL     1      23.220   4.018  50.986  1.00  0.00     0.159 A 
HETATM    9  C16 UNL     1      23.178   2.775  51.570  1.00  0.00     0.112 A 
ENDROOT
BRANCH   1  10
HETATM   10  C4  UNL     1      25.306   2.444  52.946  1.00  0.00     0.313 C 
BRANCH  10  11
HETATM   11  N2  UNL     1      26.158   1.261  53.171  1.00  0.00     0.092 N 
HETATM   12  C3  UNL     1      27.438   1.606  52.565  1.00  0.00     0.274 C 
HETATM   13  C2  UNL     1      28.603   1.105  53.351  1.00  0.00     0.051 C 
HETATM   14  C1  UNL     1      28.388  -0.122  54.150  1.00  0.00     0.075 C 
HETATM   15  C18 UNL     1      27.015  -0.221  54.803  1.00  0.00     0.051 C 
HETATM   16  C17 UNL     1      26.380   1.137  54.608  1.00  0.00     0.274 C 
BRANCH  14  17
HETATM   17  N1  UNL     1      28.617  -1.346  53.422  1.00  0.00    -0.233 NA
HETATM   18 CL1  UNL     1      27.185  -2.001  52.730  1.00  0.00    -0.024 Cl
HETATM   19  H1  UNL     1      29.322  -1.202  52.668  1.00  0.00     0.141 HD
ENDBRANCH  14  17
ENDBRANCH  10  11
ENDBRANCH   1  10
BRANCH   8  20
HETATM   20  N6  UNL     1      24.340   4.853  51.202  1.00  0.00    -0.339 N 
HETATM   21  H12 UNL     1      24.554   5.401  52.051  1.00  0.00     0.167 HD
BRANCH  20  22
HETATM   22  C10 UNL     1      25.394   5.085  50.277  1.00  0.00     0.035 A 
HETATM   23  C11 UNL     1      26.235   4.085  49.829  1.00  0.00     0.029 A 
HETATM   24  C12 UNL     1      27.261   4.295  48.956  1.00  0.00     0.004 A 
HETATM   25  C13 UNL     1      27.532   5.537  48.455  1.00  0.00     0.024 A 
HETATM   26  C14 UNL     1      26.738   6.575  48.856  1.00  0.00     0.036 A 
HETATM   27 CL2  UNL     1      26.996   8.220  48.275  1.00  0.00    -0.084 Cl
HETATM   28  C15 UNL     1      25.718   6.310  49.737  1.00  0.00     0.053 A 
ENDBRANCH  20  22
ENDBRANCH   8  20
TORSDOF 5
ENDMDL
MODEL 5
REMARK VINA RESULT:      -7.9      2.587      6.819
REMARK  5 active torsions:
REMARK  status: ('A' for Active; 'I' for Inactive)
REMARK    1  A    between atoms: N1_2  and  C1_3 
REMARK    2  A    between atoms: N2_6  and  C4_7 
REMARK    3  A    between atoms: C4_7  and  C5_8 
REMARK    4  A    between atoms: C9_15  and  N6_16 
REMARK    5  A    between atoms: N6_16  and  C10_17 
ROOT
HETATM    1  C5  UNL     1      25.516   2.824  50.787  1.00  0.00     0.004 A 
HETATM    2  C6  UNL     1      26.511   3.105  49.845  1.00  0.00     0.030 A 
HETATM    3  C7  UNL     1      26.308   4.394  49.390  1.00  0.00     0.119 A 
HETATM    4  N3  UNL     1      25.231   4.858  50.043  1.00  0.00    -0.240 N 
HETATM    5  N4  UNL     1      24.676   6.074  49.905  1.00  0.00    -0.161 NA
HETATM    6  C8  UNL     1      23.592   6.402  50.625  1.00  0.00     0.258 A 
HETATM    7  N5  UNL     1      23.090   5.502  51.467  1.00  0.00    -0.220 NA
HETATM    8  C9  UNL     1      23.622   4.286  51.623  1.00  0.00     0.159 A 
HETATM    9  C16 UNL     1      24.731   3.940  50.890  1.00  0.00     0.112 A 
ENDROOT
BRANCH   1  10
HETATM   10  C4  UNL     1      25.399   1.548  51.492  1.00  0.00     0.313 C 
BRANCH  10  11
HETATM   11  N2  UNL     1      26.502   1.368  52.455  1.00  0.00     0.092 N 
HETATM   12  C3  UNL     1      25.869   1.460  53.765  1.00  0.00     0.274 C 
HETATM   13  C2  UNL     1      26.447   0.504  54.754  1.00  0.00     0.051 C 
HETATM   14  C1  UNL     1      27.865   0.127  54.563  1.00  0.00     0.075 C 
HETATM   15  C18 UNL     1      28.287  -0.040  53.108  1.00  0.00     0.051 C 
HETATM   16  C17 UNL     1      27.003   0.005  52.312  1.00  0.00     0.274 C 
BRANCH  14  17
HETATM   17  N1  UNL     1      28.804   1.023  55.192  1.00  0.00    -0.233 NA
HETATM   18 CL1  UNL     1      29.327   2.292  54.156  1.00  0.00    -0.024 Cl
HETATM   19  H1  UNL     1      28.396   1.440  56.057  1.00  0.00     0.141 HD
ENDBRANCH  14  17
ENDBRANCH  10  11
ENDBRANCH   1  10
BRANCH   8  20
HETATM   20  N6  UNL     1      23.068   3.355  52.532  1.00  0.00    -0.339 N 
HETATM   21  H12 UNL     1      23.242   3.298  53.549  1.00  0.00     0.167 HD
BRANCH  20  22
HETATM   22  C10 UNL     1      22.151   2.320  52.205  1.00  0.00     0.035 A 
HETATM   23  C11 UNL     1      21.394   2.322  51.051  1.00  0.00     0.029 A 
HETATM   24  C12 UNL     1      20.497   1.346  50.732  1.00  0.00     0.004 A 
HETATM   25  C13 UNL     1      20.283   0.274  51.554  1.00  0.00     0.024 A 
HETATM   26  C14 UNL     1      21.000   0.207  52.715  1.00  0.00     0.036 A 
HETATM   27 CL2  UNL     1      20.805  -1.128  53.851  1.00  0.00    -0.084 Cl
HETATM   28  C15 UNL     1      21.891   1.217  52.989  1.00  0.00     0.053 A 
ENDBRANCH  20  22
ENDBRANCH   8  20
TORSDOF 5
ENDMDL
MODEL 6
REMARK VINA RESULT:      -7.8      2.135      6.036
REMARK  5 active torsions:
REMARK  status: ('A' for Active; 'I' for Inactive)
REMARK    1  A    between atoms: N1_2  and  C1_3 
REMARK    2  A    between atoms: N2_6  and  C4_7 
REMARK    3  A    between atoms: C4_7  and  C5_8 
REMARK    4  A    between atoms: C9_15  and  N6_16 
REMARK    5  A    between atoms: N6_16  and  C10_17 
ROOT
HETATM    1  C5  UNL     1      22.607   0.172  53.375  1.00  0.00     0.004 A 
HETATM    2  C6  UNL     1      22.707  -0.983  54.159  1.00  0.00     0.030 A 
HETATM    3  C7  UNL     1      21.447  -1.544  54.247  1.00  0.00     0.119 A 
HETATM    4  N3  UNL     1      20.632  -0.748  53.537  1.00  0.00    -0.240 N 
HETATM    5  N4  UNL     1      19.311  -0.917  53.354  1.00  0.00    -0.161 NA
HETATM    6  C8  UNL     1      18.618  -0.034  52.617  1.00  0.00     0.258 A 
HETATM    7  N5  UNL     1      19.266   0.996  52.081  1.00  0.00    -0.220 NA
HETATM    8  C9  UNL     1      20.578   1.188  52.246  1.00  0.00     0.159 A 
HETATM    9  C16 UNL     1      21.297   0.291  52.999  1.00  0.00     0.112 A 
ENDROOT
BRANCH   1  10
HETATM   10  C4  UNL     1      23.739   1.041  53.058  1.00  0.00     0.313 C 
BRANCH  10  11
HETATM   11  N2  UNL     1      25.021   0.396  53.403  1.00  0.00     0.092 N 
HETATM   12  C3  UNL     1      25.735   0.292  52.137  1.00  0.00     0.274 C 
HETATM   13  C2  UNL     1      27.199   0.544  52.279  1.00  0.00     0.051 C 
HETATM   14  C1  UNL     1      27.809   0.206  53.585  1.00  0.00     0.075 C 
HETATM   15  C18 UNL     1      26.931   0.514  54.792  1.00  0.00     0.051 C 
HETATM   16  C17 UNL     1      25.771   1.317  54.250  1.00  0.00     0.274 C 
BRANCH  14  17
HETATM   17  N1  UNL     1      28.244  -1.164  53.697  1.00  0.00    -0.233 NA
HETATM   18 CL1  UNL     1      29.940  -1.356  53.488  1.00  0.00    -0.024 Cl
HETATM   19  H1  UNL     1      27.969  -1.566  54.619  1.00  0.00     0.141 HD
ENDBRANCH  14  17
ENDBRANCH  10  11
ENDBRANCH   1  10
BRANCH   8  20
HETATM   20  N6  UNL     1      21.239   2.290  51.656  1.00  0.00    -0.339 N 
HETATM   21  H12 UNL     1      21.542   3.159  52.125  1.00  0.00     0.167 HD
BRANCH  20  22
HETATM   22  C10 UNL     1      21.618   2.397  50.291  1.00  0.00     0.035 A 
HETATM   23  C11 UNL     1      21.599   1.327  49.418  1.00  0.00     0.029 A 
HETATM   24  C12 UNL     1      21.977   1.410  48.111  1.00  0.00     0.004 A 
HETATM   25  C13 UNL     1      22.410   2.585  47.564  1.00  0.00     0.024 A 
HETATM   26  C14 UNL     1      22.454   3.687  48.371  1.00  0.00     0.036 A 
HETATM   27 CL2  UNL     1      22.997   5.255  47.774  1.00  0.00    -0.084 Cl
HETATM   28  C15 UNL     1      22.062   3.550  49.681  1.00  0.00     0.053 A 
ENDBRANCH  20  22
ENDBRANCH   8  20
TORSDOF 5
ENDMDL
MODEL 7
REMARK VINA RESULT:      -7.7      2.683      5.283
REMARK  5 active torsions:
REMARK  status: ('A' for Active; 'I' for Inactive)
REMARK    1  A    between atoms: N1_2  and  C1_3 
REMARK    2  A    between atoms: N2_6  and  C4_7 
REMARK    3  A    between atoms: C4_7  and  C5_8 
REMARK    4  A    between atoms: C9_15  and  N6_16 
REMARK    5  A    between atoms: N6_16  and  C10_17 
ROOT
HETATM    1  C5  UNL     1      24.005   4.629  51.546  1.00  0.00     0.004 A 
HETATM    2  C6  UNL     1      23.636   5.955  51.298  1.00  0.00     0.030 A 
HETATM    3  C7  UNL     1      24.496   6.461  50.342  1.00  0.00     0.119 A 
HETATM    4  N3  UNL     1      25.343   5.465  50.035  1.00  0.00    -0.240 N 
HETATM    5  N4  UNL     1      26.351   5.520  49.148  1.00  0.00    -0.161 NA
HETATM    6  C8  UNL     1      27.124   4.441  48.944  1.00  0.00     0.258 A 
HETATM    7  N5  UNL     1      26.867   3.333  49.635  1.00  0.00    -0.220 NA
HETATM    8  C9  UNL     1      25.872   3.253  50.523  1.00  0.00     0.159 A 
HETATM    9  C16 UNL     1      25.075   4.351  50.740  1.00  0.00     0.112 A 
ENDROOT
BRANCH   1  10
HETATM   10  C4  UNL     1      23.325   3.759  52.505  1.00  0.00     0.313 C 
BRANCH  10  11
HETATM   11  N2  UNL     1      22.258   2.976  51.852  1.00  0.00     0.092 N 
HETATM   12  C3  UNL     1      22.240   1.707  52.567  1.00  0.00     0.274 C 
HETATM   13  C2  UNL     1      20.860   1.174  52.761  1.00  0.00     0.051 C 
HETATM   14  C1  UNL     1      19.854   1.544  51.741  1.00  0.00     0.075 C 
HETATM   15  C18 UNL     1      19.981   2.968  51.214  1.00  0.00     0.051 C 
HETATM   16  C17 UNL     1      20.988   3.642  52.119  1.00  0.00     0.274 C 
BRANCH  14  17
HETATM   17  N1  UNL     1      19.814   0.658  50.604  1.00  0.00    -0.233 NA
HETATM   18 CL1  UNL     1      20.785   1.196  49.291  1.00  0.00    -0.024 Cl
HETATM   19  H1  UNL     1      20.113  -0.304  50.873  1.00  0.00     0.141 HD
ENDBRANCH  14  17
ENDBRANCH  10  11
ENDBRANCH   1  10
BRANCH   8  20
HETATM   20  N6  UNL     1      25.621   2.057  51.236  1.00  0.00    -0.339 N 
HETATM   21  H12 UNL     1      24.728   1.540  51.290  1.00  0.00     0.167 HD
BRANCH  20  22
HETATM   22  C10 UNL     1      26.569   1.338  52.012  1.00  0.00     0.035 A 
HETATM   23  C11 UNL     1      26.613  -0.041  52.059  1.00  0.00     0.029 A 
HETATM   24  C12 UNL     1      27.505  -0.745  52.813  1.00  0.00     0.004 A 
HETATM   25  C13 UNL     1      28.438  -0.117  53.589  1.00  0.00     0.024 A 
HETATM   26  C14 UNL     1      28.454   1.250  53.590  1.00  0.00     0.036 A 
HETATM   27 CL2  UNL     1      29.612   2.165  54.554  1.00  0.00    -0.084 Cl
HETATM   28  C15 UNL     1      27.533   1.911  52.814  1.00  0.00     0.053 A 
ENDBRANCH  20  22
ENDBRANCH   8  20
TORSDOF 5
ENDMDL
MODEL 8
REMARK VINA RESULT:      -7.7      2.901      5.512
REMARK  5 active torsions:
REMARK  status: ('A' for Active; 'I' for Inactive)
REMARK    1  A    between atoms: N1_2  and  C1_3 
REMARK    2  A    between atoms: N2_6  and  C4_7 
REMARK    3  A    between atoms: C4_7  and  C5_8 
REMARK    4  A    between atoms: C9_15  and  N6_16 
REMARK    5  A    between atoms: N6_16  and  C10_17 
ROOT
HETATM    1  C5  UNL     1      27.311   1.474  53.480  1.00  0.00     0.004 A 
HETATM    2  C6  UNL     1      28.594   1.851  53.890  1.00  0.00     0.030 A 
HETATM    3  C7  UNL     1      29.388   0.720  53.888  1.00  0.00     0.119 A 
HETATM    4  N3  UNL     1      28.600  -0.291  53.488  1.00  0.00    -0.240 N 
HETATM    5  N4  UNL     1      28.962  -1.577  53.344  1.00  0.00    -0.161 NA
HETATM    6  C8  UNL     1      28.061  -2.485  52.937  1.00  0.00     0.258 A 
HETATM    7  N5  UNL     1      26.820  -2.082  52.682  1.00  0.00    -0.220 NA
HETATM    8  C9  UNL     1      26.433  -0.810  52.816  1.00  0.00     0.159 A 
HETATM    9  C16 UNL     1      27.347   0.128  53.233  1.00  0.00     0.112 A 
ENDROOT
BRANCH   1  10
HETATM   10  C4  UNL     1      26.188   2.402  53.359  1.00  0.00     0.313 C 
BRANCH  10  11
HETATM   11  N2  UNL     1      25.675   2.441  51.976  1.00  0.00     0.092 N 
HETATM   12  C3  UNL     1      24.501   3.302  52.042  1.00  0.00     0.274 C 
HETATM   13  C2  UNL     1      24.361   4.179  50.843  1.00  0.00     0.051 C 
HETATM   14  C1  UNL     1      24.920   3.665  49.573  1.00  0.00     0.075 C 
HETATM   15  C18 UNL     1      26.226   2.894  49.721  1.00  0.00     0.051 C 
HETATM   16  C17 UNL     1      26.666   3.122  51.150  1.00  0.00     0.274 C 
BRANCH  14  17
HETATM   17  N1  UNL     1      24.008   2.841  48.818  1.00  0.00    -0.233 NA
HETATM   18 CL1  UNL     1      22.362   3.077  49.255  1.00  0.00    -0.024 Cl
HETATM   19  H1  UNL     1      24.114   3.011  47.795  1.00  0.00     0.141 HD
ENDBRANCH  14  17
ENDBRANCH  10  11
ENDBRANCH   1  10
BRANCH   8  20
HETATM   20  N6  UNL     1      25.107  -0.412  52.530  1.00  0.00    -0.339 N 
HETATM   21  H12 UNL     1      24.771   0.073  51.682  1.00  0.00     0.167 HD
BRANCH  20  22
HETATM   22  C10 UNL     1      23.978  -0.619  53.368  1.00  0.00     0.035 A 
HETATM   23  C11 UNL     1      24.081  -1.059  54.673  1.00  0.00     0.029 A 
HETATM   24  C12 UNL     1      23.007  -1.280  55.484  1.00  0.00     0.004 A 
HETATM   25  C13 UNL     1      21.728  -1.075  55.049  1.00  0.00     0.024 A 
HETATM   26  C14 UNL     1      21.551  -0.638  53.766  1.00  0.00     0.036 A 
HETATM   27 CL2  UNL     1      19.947  -0.342  53.097  1.00  0.00    -0.084 Cl
HETATM   28  C15 UNL     1      22.667  -0.431  52.990  1.00  0.00     0.053 A 
ENDBRANCH  20  22
ENDBRANCH   8  20
TORSDOF 5
ENDMDL
MODEL 9
REMARK VINA RESULT:      -7.5      3.229      5.040
REMARK  5 active torsions:
REMARK  status: ('A' for Active; 'I' for Inactive)
REMARK    1  A    between atoms: N1_2  and  C1_3 
REMARK    2  A    between atoms: N2_6  and  C4_7 
REMARK    3  A    between atoms: C4_7  and  C5_8 
REMARK    4  A    between atoms: C9_15  and  N6_16 
REMARK    5  A    between atoms: N6_16  and  C10_17 
ROOT
HETATM    1  C5  UNL     1      24.247   1.000  52.174  1.00  0.00     0.004 A 
HETATM    2  C6  UNL     1      24.013   0.186  53.287  1.00  0.00     0.030 A 
HETATM    3  C7  UNL     1      25.166   0.168  54.048  1.00  0.00     0.119 A 
HETATM    4  N3  UNL     1      26.051   0.947  53.406  1.00  0.00    -0.240 N 
HETATM    5  N4  UNL     1      27.310   1.212  53.794  1.00  0.00    -0.161 NA
HETATM    6  C8  UNL     1      28.088   2.011  53.046  1.00  0.00     0.258 A 
HETATM    7  N5  UNL     1      27.583   2.528  51.929  1.00  0.00    -0.220 NA
HETATM    8  C9  UNL     1      26.335   2.281  51.521  1.00  0.00     0.159 A 
HETATM    9  C16 UNL     1      25.531   1.464  52.278  1.00  0.00     0.112 A 
ENDROOT
BRANCH   1  10
HETATM   10  C4  UNL     1      23.255   1.263  51.133  1.00  0.00     0.313 C 
BRANCH  10  11
HETATM   11  N2  UNL     1      22.717   2.632  51.242  1.00  0.00     0.092 N 
HETATM   12  C3  UNL     1      22.317   2.982  49.885  1.00  0.00     0.274 C 
HETATM   13  C2  UNL     1      21.055   3.776  49.842  1.00  0.00     0.051 C 
HETATM   14  C1  UNL     1      20.763   4.626  51.018  1.00  0.00     0.075 C 
HETATM   15  C18 UNL     1      21.151   4.010  52.357  1.00  0.00     0.051 C 
HETATM   16  C17 UNL     1      21.503   2.572  52.049  1.00  0.00     0.274 C 
BRANCH  14  17
HETATM   17  N1  UNL     1      21.349   5.942  50.955  1.00  0.00    -0.233 NA
HETATM   18 CL1  UNL     1      21.555   6.515  49.347  1.00  0.00    -0.024 Cl
HETATM   19  H1  UNL     1      20.775   6.630  51.488  1.00  0.00     0.141 HD
ENDBRANCH  14  17
ENDBRANCH  10  11
ENDBRANCH   1  10
BRANCH   8  20
HETATM   20  N6  UNL     1      25.826   2.852  50.331  1.00  0.00    -0.339 N 
HETATM   21  H12 UNL     1      25.198   2.403  49.644  1.00  0.00     0.167 HD
BRANCH  20  22
HETATM   22  C10 UNL     1      26.084   4.169  49.865  1.00  0.00     0.035 A 
HETATM   23  C11 UNL     1      27.114   4.472  48.997  1.00  0.00     0.029 A 
HETATM   24  C12 UNL     1      27.385   5.733  48.556  1.00  0.00     0.004 A 
HETATM   25  C13 UNL     1      26.638   6.807  48.952  1.00  0.00     0.024 A 
HETATM   26  C14 UNL     1      25.600   6.580  49.812  1.00  0.00     0.036 A 
HETATM   27 CL2  UNL     1      24.570   7.889  50.391  1.00  0.00    -0.084 Cl
HETATM   28  C15 UNL     1      25.369   5.291  50.227  1.00  0.00     0.053 A 
ENDBRANCH  20  22
ENDBRANCH   8  20
TORSDOF 5
ENDMDL
