MODEL 1
REMARK VINA RESULT:      -8.1      0.000      0.000
REMARK  0 active torsions:
REMARK  status: ('A' for Active; 'I' for Inactive)
ROOT
HETATM    1  F1  UNL     1      27.070   7.645  48.280  1.00  0.00    -0.211 F 
HETATM    2  C1  UNL     1      26.220   6.899  48.980  1.00  0.00     0.098 C 
HETATM    3  C2  UNL     1      25.129   7.430  49.537  1.00  0.00     0.017 C 
HETATM    4  C3  UNL     1      23.940   7.189  50.333  1.00  0.00     0.026 C 
HETATM    5  C4  UNL     1      23.201   6.326  50.995  1.00  0.00     0.031 C 
HETATM    6  C5  UNL     1      22.430   5.309  51.713  1.00  0.00     0.158 C 
HETATM    7  C6  UNL     1      21.062   5.191  51.112  1.00  0.00     0.111 C 
HETATM    8  N1  UNL     1      21.240   4.505  50.047  1.00  0.00    -0.300 NA
HETATM    9  C7  UNL     1      20.185   4.138  49.138  1.00  0.00     0.175 C 
HETATM   10  C8  UNL     1      19.691   2.818  49.638  1.00  0.00    -0.008 C 
HETATM   11  C9  UNL     1      19.349   1.556  49.784  1.00  0.00    -0.006 C 
HETATM   12  C10 UNL     1      18.787   0.519  50.621  1.00  0.00     0.079 A 
HETATM   13  C11 UNL     1      18.904  -0.168  51.819  1.00  0.00     0.004 A 
HETATM   14  C12 UNL     1      19.764   0.804  51.460  1.00  0.00     0.082 A 
HETATM   15  O1  UNL     1      20.803   1.095  52.370  1.00  0.00    -0.304 OA
HETATM   16  C13 UNL     1      21.738   2.044  51.897  1.00  0.00     0.280 C 
HETATM   17  N2  UNL     1      22.127   3.165  52.430  1.00  0.00    -0.158 NA
HETATM   18  N3  UNL     1      23.071   4.017  51.844  1.00  0.00    -0.234 N 
HETATM   19  C14 UNL     1      24.304   3.462  51.565  1.00  0.00     0.192 A 
HETATM   20  N4  UNL     1      25.115   3.519  50.443  1.00  0.00    -0.198 NA
HETATM   21  C15 UNL     1      26.231   2.851  50.620  1.00  0.00     0.174 A 
HETATM   22  C16 UNL     1      26.699   2.117  51.734  1.00  0.00     0.111 A 
HETATM   23  S1  UNL     1      25.201   2.416  52.874  1.00  0.00    -0.058 SA
HETATM   24  O2  UNL     1      26.899   3.034  49.397  1.00  0.00    -0.325 OA
HETATM   25  C17 UNL     1      27.166   4.346  48.949  1.00  0.00     0.172 C 
HETATM   26  C18 UNL     1      27.007   5.661  48.763  1.00  0.00     0.093 C 
ENDROOT
TORSDOF 0
ENDMDL
MODEL 2
REMARK VINA RESULT:      -8.0      6.708      9.703
REMARK  0 active torsions:
REMARK  status: ('A' for Active; 'I' for Inactive)
ROOT
HETATM    1  F1  UNL     1      35.792   9.923  44.386  1.00  0.00    -0.211 F 
HETATM    2  C1  UNL     1      34.930   9.236  45.129  1.00  0.00     0.098 C 
HETATM    3  C2  UNL     1      34.650   9.602  46.382  1.00  0.00     0.017 C 
HETATM    4  C3  UNL     1      33.890   9.313  47.583  1.00  0.00     0.026 C 
HETATM    5  C4  UNL     1      33.022   8.533  48.191  1.00  0.00     0.031 C 
HETATM    6  C5  UNL     1      32.053   7.620  48.801  1.00  0.00     0.158 C 
HETATM    7  C6  UNL     1      30.814   8.375  49.177  1.00  0.00     0.111 C 
HETATM    8  N1  UNL     1      30.186   8.526  48.072  1.00  0.00    -0.300 NA
HETATM    9  C7  UNL     1      28.921   9.202  47.950  1.00  0.00     0.175 C 
HETATM   10  C8  UNL     1      27.895   8.130  48.127  1.00  0.00    -0.008 C 
HETATM   11  C9  UNL     1      26.904   7.275  47.985  1.00  0.00    -0.006 C 
HETATM   12  C10 UNL     1      26.109   6.203  48.542  1.00  0.00     0.079 A 
HETATM   13  C11 UNL     1      26.131   4.919  49.063  1.00  0.00     0.004 A 
HETATM   14  C12 UNL     1      27.246   5.541  48.634  1.00  0.00     0.082 A 
HETATM   15  O1  UNL     1      28.453   4.816  48.740  1.00  0.00    -0.304 OA
HETATM   16  C13 UNL     1      29.572   5.470  48.176  1.00  0.00     0.280 C 
HETATM   17  N2  UNL     1      30.716   5.776  48.717  1.00  0.00    -0.158 NA
HETATM   18  N3  UNL     1      31.746   6.432  48.033  1.00  0.00    -0.234 N 
HETATM   19  C14 UNL     1      32.198   5.823  46.880  1.00  0.00     0.192 A 
HETATM   20  N4  UNL     1      32.472   6.318  45.614  1.00  0.00    -0.198 NA
HETATM   21  C15 UNL     1      32.910   5.376  44.812  1.00  0.00     0.174 A 
HETATM   22  C16 UNL     1      33.129   3.998  45.041  1.00  0.00     0.111 A 
HETATM   23  S1  UNL     1      32.590   3.963  46.869  1.00  0.00    -0.058 SA
HETATM   24  O2  UNL     1      33.129   6.070  43.609  1.00  0.00    -0.325 OA
HETATM   25  C17 UNL     1      34.004   7.178  43.605  1.00  0.00     0.172 C 
HETATM   26  C18 UNL     1      34.654   8.260  44.046  1.00  0.00     0.093 C 
ENDROOT
TORSDOF 0
ENDMDL
MODEL 3
REMARK VINA RESULT:      -8.0      3.719      6.822
REMARK  0 active torsions:
REMARK  status: ('A' for Active; 'I' for Inactive)
ROOT
HETATM    1  F1  UNL     1      21.563  -2.241  55.345  1.00  0.00    -0.211 F 
HETATM    2  C1  UNL     1      22.082  -1.385  54.471  1.00  0.00     0.098 C 
HETATM    3  C2  UNL     1      21.388  -0.974  53.407  1.00  0.00     0.017 C 
HETATM    4  C3  UNL     1      21.380  -0.147  52.215  1.00  0.00     0.026 C 
HETATM    5  C4  UNL     1      22.028   0.696  51.441  1.00  0.00     0.031 C 
HETATM    6  C5  UNL     1      22.812   1.630  50.630  1.00  0.00     0.158 C 
HETATM    7  C6  UNL     1      22.116   2.955  50.567  1.00  0.00     0.111 C 
HETATM    8  N1  UNL     1      22.371   3.503  51.695  1.00  0.00    -0.300 NA
HETATM    9  C7  UNL     1      21.900   4.807  52.083  1.00  0.00     0.175 C 
HETATM   10  C8  UNL     1      22.972   5.749  51.636  1.00  0.00    -0.008 C 
HETATM   11  C9  UNL     1      23.930   6.648  51.559  1.00  0.00    -0.006 C 
HETATM   12  C10 UNL     1      24.862   7.391  50.740  1.00  0.00     0.079 A 
HETATM   13  C11 UNL     1      25.920   7.302  49.849  1.00  0.00     0.004 A 
HETATM   14  C12 UNL     1      25.342   6.214  50.392  1.00  0.00     0.082 A 
HETATM   15  O1  UNL     1      25.869   4.961  50.008  1.00  0.00    -0.304 OA
HETATM   16  C13 UNL     1      25.301   3.861  50.688  1.00  0.00     0.280 C 
HETATM   17  N2  UNL     1      24.728   2.794  50.210  1.00  0.00    -0.158 NA
HETATM   18  N3  UNL     1      24.202   1.772  51.010  1.00  0.00    -0.234 N 
HETATM   19  C14 UNL     1      25.079   1.178  51.896  1.00  0.00     0.192 A 
HETATM   20  N4  UNL     1      24.962   0.847  53.236  1.00  0.00    -0.198 NA
HETATM   21  C15 UNL     1      26.050   0.267  53.688  1.00  0.00     0.174 A 
HETATM   22  C16 UNL     1      27.263  -0.049  53.035  1.00  0.00     0.111 A 
HETATM   23  S1  UNL     1      26.803   0.630  51.315  1.00  0.00    -0.058 SA
HETATM   24  O2  UNL     1      25.731   0.012  55.033  1.00  0.00    -0.325 OA
HETATM   25  C17 UNL     1      24.589  -0.762  55.333  1.00  0.00     0.172 C 
HETATM   26  C18 UNL     1      23.362  -1.281  55.213  1.00  0.00     0.093 C 
ENDROOT
TORSDOF 0
ENDMDL
MODEL 4
REMARK VINA RESULT:      -7.9      3.099      7.276
REMARK  0 active torsions:
REMARK  status: ('A' for Active; 'I' for Inactive)
ROOT
HETATM    1  F1  UNL     1      18.920  -0.514  51.562  1.00  0.00    -0.211 F 
HETATM    2  C1  UNL     1      19.763   0.512  51.490  1.00  0.00     0.098 C 
HETATM    3  C2  UNL     1      20.692   0.710  52.428  1.00  0.00     0.017 C 
HETATM    4  C3  UNL     1      21.789   1.543  52.884  1.00  0.00     0.026 C 
HETATM    5  C4  UNL     1      22.546   2.600  52.677  1.00  0.00     0.031 C 
HETATM    6  C5  UNL     1      23.345   3.790  52.380  1.00  0.00     0.158 C 
HETATM    7  C6  UNL     1      24.782   3.404  52.204  1.00  0.00     0.111 C 
HETATM    8  N1  UNL     1      24.837   2.903  51.028  1.00  0.00    -0.300 NA
HETATM    9  C7  UNL     1      26.039   2.393  50.423  1.00  0.00     0.175 C 
HETATM   10  C8  UNL     1      26.635   3.563  49.709  1.00  0.00    -0.008 C 
HETATM   11  C9  UNL     1      27.121   4.404  48.821  1.00  0.00    -0.006 C 
HETATM   12  C10 UNL     1      27.702   5.697  48.535  1.00  0.00     0.079 A 
HETATM   13  C11 UNL     1      27.523   7.069  48.608  1.00  0.00     0.004 A 
HETATM   14  C12 UNL     1      26.596   6.198  49.048  1.00  0.00     0.082 A 
HETATM   15  O1  UNL     1      25.418   6.753  49.595  1.00  0.00    -0.304 OA
HETATM   16  C13 UNL     1      24.435   5.798  49.940  1.00  0.00     0.280 C 
HETATM   17  N2  UNL     1      23.835   5.596  51.077  1.00  0.00    -0.158 NA
HETATM   18  N3  UNL     1      22.869   4.602  51.280  1.00  0.00    -0.234 N 
HETATM   19  C14 UNL     1      21.768   4.643  50.449  1.00  0.00     0.192 A 
HETATM   20  N4  UNL     1      21.109   3.657  49.733  1.00  0.00    -0.198 NA
HETATM   21  C15 UNL     1      20.078   4.141  49.080  1.00  0.00     0.174 A 
HETATM   22  C16 UNL     1      19.571   5.459  49.006  1.00  0.00     0.111 A 
HETATM   23  S1  UNL     1      20.856   6.283  50.147  1.00  0.00    -0.058 SA
HETATM   24  O2  UNL     1      19.555   3.005  48.438  1.00  0.00    -0.325 OA
HETATM   25  C17 UNL     1      19.176   1.890  49.216  1.00  0.00     0.172 C 
HETATM   26  C18 UNL     1      19.182   1.002  50.217  1.00  0.00     0.093 C 
ENDROOT
TORSDOF 0
ENDMDL
MODEL 5
REMARK VINA RESULT:      -7.7      3.300      6.162
REMARK  0 active torsions:
REMARK  status: ('A' for Active; 'I' for Inactive)
ROOT
HETATM    1  F1  UNL     1      22.023  -1.448  53.498  1.00  0.00    -0.211 F 
HETATM    2  C1  UNL     1      22.287  -0.438  52.675  1.00  0.00     0.098 C 
HETATM    3  C2  UNL     1      21.544  -0.216  51.589  1.00  0.00     0.017 C 
HETATM    4  C3  UNL     1      21.330   0.617  50.420  1.00  0.00     0.026 C 
HETATM    5  C4  UNL     1      21.717   1.651  49.705  1.00  0.00     0.031 C 
HETATM    6  C5  UNL     1      22.207   2.813  48.961  1.00  0.00     0.158 C 
HETATM    7  C6  UNL     1      21.139   3.861  48.898  1.00  0.00     0.111 C 
HETATM    8  N1  UNL     1      21.166   4.414  50.052  1.00  0.00    -0.300 NA
HETATM    9  C7  UNL     1      20.300   5.493  50.450  1.00  0.00     0.175 C 
HETATM   10  C8  UNL     1      21.046   6.736  50.085  1.00  0.00    -0.008 C 
HETATM   11  C9  UNL     1      21.682   7.889  50.082  1.00  0.00    -0.006 C 
HETATM   12  C10 UNL     1      22.372   8.915  49.332  1.00  0.00     0.079 A 
HETATM   13  C11 UNL     1      23.441   9.192  48.496  1.00  0.00     0.004 A 
HETATM   14  C12 UNL     1      23.206   7.958  48.978  1.00  0.00     0.082 A 
HETATM   15  O1  UNL     1      24.109   6.945  48.588  1.00  0.00    -0.304 OA
HETATM   16  C13 UNL     1      23.881   5.695  49.207  1.00  0.00     0.280 C 
HETATM   17  N2  UNL     1      23.685   4.525  48.673  1.00  0.00    -0.158 NA
HETATM   18  N3  UNL     1      23.469   3.358  49.416  1.00  0.00    -0.234 N 
HETATM   19  C14 UNL     1      24.449   3.027  50.329  1.00  0.00     0.192 A 
HETATM   20  N4  UNL     1      24.385   2.620  51.653  1.00  0.00    -0.198 NA
HETATM   21  C15 UNL     1      25.580   2.384  52.144  1.00  0.00     0.174 A 
HETATM   22  C16 UNL     1      26.857   2.482  51.546  1.00  0.00     0.111 A 
HETATM   23  S1  UNL     1      26.281   3.059  49.823  1.00  0.00    -0.058 SA
HETATM   24  O2  UNL     1      25.300   1.987  53.463  1.00  0.00    -0.325 OA
HETATM   25  C17 UNL     1      24.442   0.888  53.683  1.00  0.00     0.172 C 
HETATM   26  C18 UNL     1      23.441   0.023  53.486  1.00  0.00     0.093 C 
ENDROOT
TORSDOF 0
ENDMDL
MODEL 6
REMARK VINA RESULT:      -7.6      2.633      4.594
REMARK  0 active torsions:
REMARK  status: ('A' for Active; 'I' for Inactive)
ROOT
HETATM    1  F1  UNL     1      25.791   9.249  49.554  1.00  0.00    -0.211 F 
HETATM    2  C1  UNL     1      25.358   7.995  49.646  1.00  0.00     0.098 C 
HETATM    3  C2  UNL     1      26.143   6.966  49.321  1.00  0.00     0.017 C 
HETATM    4  C3  UNL     1      26.260   5.524  49.210  1.00  0.00     0.026 C 
HETATM    5  C4  UNL     1      25.690   4.347  49.351  1.00  0.00     0.031 C 
HETATM    6  C5  UNL     1      24.990   3.074  49.533  1.00  0.00     0.158 C 
HETATM    7  C6  UNL     1      25.710   2.239  50.548  1.00  0.00     0.111 C 
HETATM    8  N1  UNL     1      25.373   2.745  51.674  1.00  0.00    -0.300 NA
HETATM    9  C7  UNL     1      25.832   2.255  52.948  1.00  0.00     0.175 C 
HETATM   10  C8  UNL     1      24.815   1.238  53.355  1.00  0.00    -0.008 C 
HETATM   11  C9  UNL     1      23.881   0.540  53.966  1.00  0.00    -0.006 C 
HETATM   12  C10 UNL     1      23.031  -0.629  53.989  1.00  0.00     0.079 A 
HETATM   13  C11 UNL     1      22.047  -1.337  53.318  1.00  0.00     0.004 A 
HETATM   14  C12 UNL     1      22.561  -0.189  52.839  1.00  0.00     0.082 A 
HETATM   15  O1  UNL     1      22.047   0.267  51.605  1.00  0.00    -0.304 OA
HETATM   16  C13 UNL     1      22.541   1.528  51.203  1.00  0.00     0.280 C 
HETATM   17  N2  UNL     1      23.133   1.875  50.097  1.00  0.00    -0.158 NA
HETATM   18  N3  UNL     1      23.576   3.177  49.829  1.00  0.00    -0.234 N 
HETATM   19  C14 UNL     1      22.621   4.171  49.894  1.00  0.00     0.192 A 
HETATM   20  N4  UNL     1      22.624   5.424  50.487  1.00  0.00    -0.198 NA
HETATM   21  C15 UNL     1      21.494   6.059  50.280  1.00  0.00     0.174 A 
HETATM   22  C16 UNL     1      20.333   5.667  49.576  1.00  0.00     0.111 A 
HETATM   23  S1  UNL     1      20.941   3.943  49.035  1.00  0.00    -0.058 SA
HETATM   24  O2  UNL     1      21.699   7.281  50.942  1.00  0.00    -0.325 OA
HETATM   25  C17 UNL     1      22.800   8.086  50.576  1.00  0.00     0.172 C 
HETATM   26  C18 UNL     1      24.024   8.410  50.146  1.00  0.00     0.093 C 
ENDROOT
TORSDOF 0
ENDMDL
MODEL 7
REMARK VINA RESULT:      -7.5      2.678      4.332
REMARK  0 active torsions:
REMARK  status: ('A' for Active; 'I' for Inactive)
ROOT
HETATM    1  F1  UNL     1      25.945   8.334  50.133  1.00  0.00    -0.211 F 
HETATM    2  C1  UNL     1      25.157   7.265  50.078  1.00  0.00     0.098 C 
HETATM    3  C2  UNL     1      25.654   6.050  49.836  1.00  0.00     0.017 C 
HETATM    4  C3  UNL     1      25.364   4.638  49.666  1.00  0.00     0.026 C 
HETATM    5  C4  UNL     1      24.460   3.683  49.640  1.00  0.00     0.031 C 
HETATM    6  C5  UNL     1      23.399   2.674  49.625  1.00  0.00     0.158 C 
HETATM    7  C6  UNL     1      23.648   1.661  50.701  1.00  0.00     0.111 C 
HETATM    8  N1  UNL     1      23.273   2.241  51.778  1.00  0.00    -0.300 NA
HETATM    9  C7  UNL     1      23.329   1.634  53.083  1.00  0.00     0.175 C 
HETATM   10  C8  UNL     1      22.004   0.963  53.249  1.00  0.00    -0.008 C 
HETATM   11  C9  UNL     1      20.812   0.572  53.649  1.00  0.00    -0.006 C 
HETATM   12  C10 UNL     1      19.668  -0.292  53.458  1.00  0.00     0.079 A 
HETATM   13  C11 UNL     1      18.661  -0.675  52.587  1.00  0.00     0.004 A 
HETATM   14  C12 UNL     1      19.566   0.270  52.270  1.00  0.00     0.082 A 
HETATM   15  O1  UNL     1      19.440   0.861  50.993  1.00  0.00    -0.304 OA
HETATM   16  C13 UNL     1      20.345   1.920  50.755  1.00  0.00     0.280 C 
HETATM   17  N2  UNL     1      21.204   2.079  49.790  1.00  0.00    -0.158 NA
HETATM   18  N3  UNL     1      22.047   3.191  49.677  1.00  0.00    -0.234 N 
HETATM   19  C14 UNL     1      21.428   4.424  49.631  1.00  0.00     0.192 A 
HETATM   20  N4  UNL     1      21.687   5.617  50.285  1.00  0.00    -0.198 NA
HETATM   21  C15 UNL     1      20.848   6.560  49.921  1.00  0.00     0.174 A 
HETATM   22  C16 UNL     1      19.772   6.531  49.005  1.00  0.00     0.111 A 
HETATM   23  S1  UNL     1      19.940   4.706  48.482  1.00  0.00    -0.058 SA
HETATM   24  O2  UNL     1      21.276   7.665  50.677  1.00  0.00    -0.325 OA
HETATM   25  C17 UNL     1      22.611   8.107  50.553  1.00  0.00     0.172 C 
HETATM   26  C18 UNL     1      23.933   8.055  50.361  1.00  0.00     0.093 C 
ENDROOT
TORSDOF 0
ENDMDL
MODEL 8
REMARK VINA RESULT:      -7.4      3.396      5.825
REMARK  0 active torsions:
REMARK  status: ('A' for Active; 'I' for Inactive)
ROOT
HETATM    1  F1  UNL     1      17.562   3.210  47.027  1.00  0.00    -0.211 F 
HETATM    2  C1  UNL     1      18.475   3.237  47.992  1.00  0.00     0.098 C 
HETATM    3  C2  UNL     1      18.130   3.115  49.276  1.00  0.00     0.017 C 
HETATM    4  C3  UNL     1      18.591   3.069  50.651  1.00  0.00     0.026 C 
HETATM    5  C4  UNL     1      19.605   3.118  51.488  1.00  0.00     0.031 C 
HETATM    6  C5  UNL     1      20.782   3.182  52.356  1.00  0.00     0.158 C 
HETATM    7  C6  UNL     1      20.916   1.902  53.123  1.00  0.00     0.111 C 
HETATM    8  N1  UNL     1      21.411   1.076  52.280  1.00  0.00    -0.300 NA
HETATM    9  C7  UNL     1      21.718  -0.298  52.582  1.00  0.00     0.175 C 
HETATM   10  C8  UNL     1      23.135  -0.279  53.055  1.00  0.00    -0.008 C 
HETATM   11  C9  UNL     1      24.429  -0.458  53.219  1.00  0.00    -0.006 C 
HETATM   12  C10 UNL     1      25.627  -0.178  53.979  1.00  0.00     0.079 A 
HETATM   13  C11 UNL     1      26.481   0.811  54.439  1.00  0.00     0.004 A 
HETATM   14  C12 UNL     1      25.397   1.087  53.689  1.00  0.00     0.082 A 
HETATM   15  O1  UNL     1      25.166   2.448  53.390  1.00  0.00    -0.304 OA
HETATM   16  C13 UNL     1      24.081   2.671  52.513  1.00  0.00     0.280 C 
HETATM   17  N2  UNL     1      23.028   3.421  52.666  1.00  0.00    -0.158 NA
HETATM   18  N3  UNL     1      22.020   3.549  51.702  1.00  0.00    -0.234 N 
HETATM   19  C14 UNL     1      22.422   3.978  50.453  1.00  0.00     0.192 A 
HETATM   20  N4  UNL     1      22.123   3.527  49.177  1.00  0.00    -0.198 NA
HETATM   21  C15 UNL     1      22.716   4.253  48.258  1.00  0.00     0.174 A 
HETATM   22  C16 UNL     1      23.573   5.371  48.377  1.00  0.00     0.111 A 
HETATM   23  S1  UNL     1      23.581   5.474  50.280  1.00  0.00    -0.058 SA
HETATM   24  O2  UNL     1      22.289   3.649  47.062  1.00  0.00    -0.325 OA
HETATM   25  C17 UNL     1      20.905   3.542  46.802  1.00  0.00     0.172 C 
HETATM   26  C18 UNL     1      19.596   3.407  47.035  1.00  0.00     0.093 C 
ENDROOT
TORSDOF 0
ENDMDL
MODEL 9
REMARK VINA RESULT:      -7.2      6.051      9.078
REMARK  0 active torsions:
REMARK  status: ('A' for Active; 'I' for Inactive)
ROOT
HETATM    1  F1  UNL     1      13.196   5.505  49.642  1.00  0.00    -0.211 F 
HETATM    2  C1  UNL     1      13.987   4.485  49.960  1.00  0.00     0.098 C 
HETATM    3  C2  UNL     1      14.960   4.081  49.140  1.00  0.00     0.017 C 
HETATM    4  C3  UNL     1      16.044   3.141  48.922  1.00  0.00     0.026 C 
HETATM    5  C4  UNL     1      16.739   2.120  49.374  1.00  0.00     0.031 C 
HETATM    6  C5  UNL     1      17.466   0.983  49.942  1.00  0.00     0.158 C 
HETATM    7  C6  UNL     1      18.907   1.348  50.135  1.00  0.00     0.111 C 
HETATM    8  N1  UNL     1      18.914   2.062  51.198  1.00  0.00    -0.300 NA
HETATM    9  C7  UNL     1      20.101   2.639  51.773  1.00  0.00     0.175 C 
HETATM   10  C8  UNL     1      20.602   1.608  52.732  1.00  0.00    -0.008 C 
HETATM   11  C9  UNL     1      20.997   0.936  53.793  1.00  0.00    -0.006 C 
HETATM   12  C10 UNL     1      21.502  -0.297  54.355  1.00  0.00     0.079 A 
HETATM   13  C11 UNL     1      21.267  -1.651  54.530  1.00  0.00     0.004 A 
HETATM   14  C12 UNL     1      20.407  -0.850  53.874  1.00  0.00     0.082 A 
HETATM   15  O1  UNL     1      19.239  -1.460  53.365  1.00  0.00    -0.304 OA
HETATM   16  C13 UNL     1      18.322  -0.558  52.782  1.00  0.00     0.280 C 
HETATM   17  N2  UNL     1      17.798  -0.557  51.591  1.00  0.00    -0.158 NA
HETATM   18  N3  UNL     1      16.892   0.411  51.141  1.00  0.00    -0.234 N 
HETATM   19  C14 UNL     1      15.743   0.565  51.891  1.00  0.00     0.192 A 
HETATM   20  N4  UNL     1      15.087   1.691  52.364  1.00  0.00    -0.198 NA
HETATM   21  C15 UNL     1      13.999   1.374  53.027  1.00  0.00     0.174 A 
HETATM   22  C16 UNL     1      13.431   0.112  53.314  1.00  0.00     0.111 A 
HETATM   23  S1  UNL     1      14.742  -0.956  52.436  1.00  0.00    -0.058 SA
HETATM   24  O2  UNL     1      13.491   2.628  53.407  1.00  0.00    -0.325 OA
HETATM   25  C17 UNL     1      13.208   3.587  52.410  1.00  0.00     0.172 C 
HETATM   26  C18 UNL     1      13.312   4.266  51.263  1.00  0.00     0.093 C 
ENDROOT
TORSDOF 0
ENDMDL
