MODEL 1
REMARK VINA RESULT:      -7.9      0.000      0.000
REMARK  6 active torsions:
REMARK  status: ('A' for Active; 'I' for Inactive)
REMARK    1  A    between atoms: N1_1  and  C1_2 
REMARK    2  A    between atoms: C9_11  and  N3_12 
REMARK    3  A    between atoms: N3_12  and  C10_13 
REMARK    4  A    between atoms: C14_17  and  C15_18 
REMARK    5  A    between atoms: C15_18  and  C16_19 
REMARK    6  A    between atoms: C16_19  and  N4_20 
ROOT
HETATM    1  N3  UNL     1      25.665  -0.371  52.582  1.00  0.00    -0.343 N 
HETATM    2  H8  UNL     1      25.703  -0.872  51.669  1.00  0.00     0.167 HD
ENDROOT
BRANCH   1   3
HETATM    3  C9  UNL     1      26.714   0.532  52.900  1.00  0.00     0.126 A 
HETATM    4  C6  UNL     1      26.652   2.003  52.905  1.00  0.00     0.100 A 
HETATM    5  C1  UNL     1      26.289   2.596  51.591  1.00  0.00     0.038 C 
HETATM    6  C5  UNL     1      25.674   2.538  53.915  1.00  0.00     0.001 C 
HETATM    7  C7  UNL     1      28.037   2.376  53.311  1.00  0.00     0.020 A 
HETATM    8  C2  UNL     1      25.017   2.343  51.331  1.00  0.00    -0.000 C 
HETATM    9  C3  UNL     1      24.178   3.037  52.084  1.00  0.00     0.014 C 
HETATM   10  C4  UNL     1      24.488   3.035  53.528  1.00  0.00    -0.001 C 
HETATM   11  C8  UNL     1      28.733   1.265  53.494  1.00  0.00     0.116 A 
HETATM   12  N2  UNL     1      27.915   0.132  53.240  1.00  0.00    -0.246 NA
BRANCH   5  13
HETATM   13  N1  UNL     1      26.998   3.347  50.601  1.00  0.00    -0.400 N 
HETATM   14  H1  UNL     1      26.635   4.124  49.998  1.00  0.00     0.156 HD
HETATM   15  H2  UNL     1      27.988   2.969  50.581  1.00  0.00     0.156 HD
ENDBRANCH   5  13
ENDBRANCH   1   3
BRANCH   1  16
HETATM   16  C10 UNL     1      24.570  -0.618  53.449  1.00  0.00     0.034 A 
HETATM   17  C11 UNL     1      24.648  -1.028  54.759  1.00  0.00     0.029 A 
HETATM   18  C12 UNL     1      23.596  -1.265  55.583  1.00  0.00     0.003 A 
HETATM   19  C13 UNL     1      22.317  -1.088  55.100  1.00  0.00     0.007 A 
HETATM   20  C14 UNL     1      22.169  -0.677  53.792  1.00  0.00    -0.054 A 
HETATM   21  C20 UNL     1      23.275  -0.452  53.000  1.00  0.00     0.036 A 
BRANCH  20  22
HETATM   22  C15 UNL     1      20.778  -0.496  53.302  1.00  0.00     0.058 C 
BRANCH  22  23
HETATM   23  C16 UNL     1      20.881   0.209  51.949  1.00  0.00     0.134 C 
BRANCH  23  24
HETATM   24  N4  UNL     1      20.059   1.392  51.908  1.00  0.00    -0.350 N 
HETATM   25  C17 UNL     1      18.798   1.579  51.449  1.00  0.00     0.111 A 
HETATM   26  C18 UNL     1      18.412   2.903  51.616  1.00  0.00     0.135 A 
HETATM   27  N5  UNL     1      19.475   3.518  52.189  1.00  0.00    -0.255 NA
HETATM   28  C19 UNL     1      20.438   2.618  52.356  1.00  0.00     0.209 A 
ENDBRANCH  23  24
ENDBRANCH  22  23
ENDBRANCH  20  22
ENDBRANCH   1  16
TORSDOF 6
ENDMDL
MODEL 2
REMARK VINA RESULT:      -7.8      1.800      5.880
REMARK  6 active torsions:
REMARK  status: ('A' for Active; 'I' for Inactive)
REMARK    1  A    between atoms: N1_1  and  C1_2 
REMARK    2  A    between atoms: C9_11  and  N3_12 
REMARK    3  A    between atoms: N3_12  and  C10_13 
REMARK    4  A    between atoms: C14_17  and  C15_18 
REMARK    5  A    between atoms: C15_18  and  C16_19 
REMARK    6  A    between atoms: C16_19  and  N4_20 
ROOT
HETATM    1  N3  UNL     1      22.339   1.217  51.279  1.00  0.00    -0.343 N 
HETATM    2  H8  UNL     1      22.670   0.837  50.367  1.00  0.00     0.167 HD
ENDROOT
BRANCH   1   3
HETATM    3  C9  UNL     1      21.726   2.497  51.295  1.00  0.00     0.126 A 
HETATM    4  C6  UNL     1      22.360   3.792  50.995  1.00  0.00     0.100 A 
HETATM    5  C1  UNL     1      23.505   4.124  51.883  1.00  0.00     0.038 C 
HETATM    6  C5  UNL     1      22.862   3.877  49.579  1.00  0.00     0.001 C 
HETATM    7  C7  UNL     1      21.229   4.747  51.178  1.00  0.00     0.020 A 
HETATM    8  C2  UNL     1      24.525   3.331  51.600  1.00  0.00    -0.000 C 
HETATM    9  C3  UNL     1      25.103   3.611  50.443  1.00  0.00     0.014 C 
HETATM   10  C4  UNL     1      24.174   3.792  49.308  1.00  0.00    -0.001 C 
HETATM   11  C8  UNL     1      20.154   4.060  51.526  1.00  0.00     0.116 A 
HETATM   12  N2  UNL     1      20.463   2.675  51.596  1.00  0.00    -0.246 NA
BRANCH   5  13
HETATM   13  N1  UNL     1      23.719   5.077  52.929  1.00  0.00    -0.400 N 
HETATM   14  H1  UNL     1      23.084   5.853  53.235  1.00  0.00     0.156 HD
HETATM   15  H2  UNL     1      24.663   4.854  53.356  1.00  0.00     0.156 HD
ENDBRANCH   5  13
ENDBRANCH   1   3
BRANCH   1  16
HETATM   16  C10 UNL     1      22.519   0.433  52.448  1.00  0.00     0.034 A 
HETATM   17  C11 UNL     1      21.528  -0.189  53.168  1.00  0.00     0.029 A 
HETATM   18  C12 UNL     1      21.706  -0.937  54.287  1.00  0.00     0.003 A 
HETATM   19  C13 UNL     1      22.983  -1.112  54.776  1.00  0.00     0.007 A 
HETATM   20  C14 UNL     1      24.024  -0.513  54.098  1.00  0.00    -0.054 A 
HETATM   21  C20 UNL     1      23.783   0.236  52.966  1.00  0.00     0.036 A 
BRANCH  20  22
HETATM   22  C15 UNL     1      25.388  -0.721  54.651  1.00  0.00     0.058 C 
BRANCH  22  23
HETATM   23  C16 UNL     1      26.359  -0.587  53.477  1.00  0.00     0.134 C 
BRANCH  23  24
HETATM   24  N4  UNL     1      27.337   0.444  53.718  1.00  0.00    -0.350 N 
HETATM   25  C17 UNL     1      27.574   1.610  53.070  1.00  0.00     0.111 A 
HETATM   26  C18 UNL     1      28.630   2.290  53.664  1.00  0.00     0.135 A 
HETATM   27  N5  UNL     1      29.030   1.504  54.693  1.00  0.00    -0.255 NA
HETATM   28  C19 UNL     1      28.261   0.420  54.715  1.00  0.00     0.209 A 
ENDBRANCH  23  24
ENDBRANCH  22  23
ENDBRANCH  20  22
ENDBRANCH   1  16
TORSDOF 6
ENDMDL
MODEL 3
REMARK VINA RESULT:      -7.7      1.991      5.766
REMARK  6 active torsions:
REMARK  status: ('A' for Active; 'I' for Inactive)
REMARK    1  A    between atoms: N1_1  and  C1_2 
REMARK    2  A    between atoms: C9_11  and  N3_12 
REMARK    3  A    between atoms: N3_12  and  C10_13 
REMARK    4  A    between atoms: C14_17  and  C15_18 
REMARK    5  A    between atoms: C15_18  and  C16_19 
REMARK    6  A    between atoms: C16_19  and  N4_20 
ROOT
HETATM    1  N3  UNL     1      21.298   1.740  52.149  1.00  0.00    -0.343 N 
HETATM    2  H8  UNL     1      20.644   2.461  52.521  1.00  0.00     0.167 HD
ENDROOT
BRANCH   1   3
HETATM    3  C9  UNL     1      21.610   1.762  50.764  1.00  0.00     0.126 A 
HETATM    4  C6  UNL     1      22.485   2.717  50.063  1.00  0.00     0.100 A 
HETATM    5  C1  UNL     1      22.047   4.133  50.177  1.00  0.00     0.038 C 
HETATM    6  C5  UNL     1      23.910   2.657  50.545  1.00  0.00     0.001 C 
HETATM    7  C7  UNL     1      22.417   2.233  48.655  1.00  0.00     0.020 A 
HETATM    8  C2  UNL     1      22.241   4.555  51.417  1.00  0.00    -0.000 C 
HETATM    9  C3  UNL     1      23.517   4.733  51.717  1.00  0.00     0.014 C 
HETATM   10  C4  UNL     1      24.410   3.620  51.335  1.00  0.00    -0.001 C 
HETATM   11  C8  UNL     1      21.621   1.177  48.614  1.00  0.00     0.116 A 
HETATM   12  N2  UNL     1      21.127   0.890  49.914  1.00  0.00    -0.246 NA
BRANCH   5  13
HETATM   13  N1  UNL     1      21.487   5.084  49.268  1.00  0.00    -0.400 N 
HETATM   14  H1  UNL     1      21.124   4.915  48.299  1.00  0.00     0.156 HD
HETATM   15  H2  UNL     1      21.502   6.023  49.760  1.00  0.00     0.156 HD
ENDBRANCH   5  13
ENDBRANCH   1   3
BRANCH   1  16
HETATM   16  C10 UNL     1      21.837   0.783  53.047  1.00  0.00     0.034 A 
HETATM   17  C11 UNL     1      21.136   0.070  53.990  1.00  0.00     0.029 A 
HETATM   18  C12 UNL     1      21.658  -0.844  54.848  1.00  0.00     0.003 A 
HETATM   19  C13 UNL     1      23.011  -1.109  54.798  1.00  0.00     0.007 A 
HETATM   20  C14 UNL     1      23.771  -0.426  53.872  1.00  0.00    -0.054 A 
HETATM   21  C20 UNL     1      23.186   0.491  53.026  1.00  0.00     0.036 A 
BRANCH  20  22
HETATM   22  C15 UNL     1      25.225  -0.735  53.844  1.00  0.00     0.058 C 
BRANCH  22  23
HETATM   23  C16 UNL     1      25.839   0.157  52.765  1.00  0.00     0.134 C 
BRANCH  23  24
HETATM   24  N4  UNL     1      26.967   0.896  53.273  1.00  0.00    -0.350 N 
HETATM   25  C17 UNL     1      27.564   2.025  52.818  1.00  0.00     0.111 A 
HETATM   26  C18 UNL     1      28.630   2.374  53.639  1.00  0.00     0.135 A 
HETATM   27  N5  UNL     1      28.665   1.425  54.606  1.00  0.00    -0.255 NA
HETATM   28  C19 UNL     1      27.682   0.561  54.380  1.00  0.00     0.209 A 
ENDBRANCH  23  24
ENDBRANCH  22  23
ENDBRANCH  20  22
ENDBRANCH   1  16
TORSDOF 6
ENDMDL
MODEL 4
REMARK VINA RESULT:      -7.5      2.873      6.123
REMARK  6 active torsions:
REMARK  status: ('A' for Active; 'I' for Inactive)
REMARK    1  A    between atoms: N1_1  and  C1_2 
REMARK    2  A    between atoms: C9_11  and  N3_12 
REMARK    3  A    between atoms: N3_12  and  C10_13 
REMARK    4  A    between atoms: C14_17  and  C15_18 
REMARK    5  A    between atoms: C15_18  and  C16_19 
REMARK    6  A    between atoms: C16_19  and  N4_20 
ROOT
HETATM    1  N3  UNL     1      24.145   5.428  52.185  1.00  0.00    -0.343 N 
HETATM    2  H8  UNL     1      24.786   5.666  52.971  1.00  0.00     0.167 HD
ENDROOT
BRANCH   1   3
HETATM    3  C9  UNL     1      24.153   6.258  51.032  1.00  0.00     0.126 A 
HETATM    4  C6  UNL     1      24.597   5.894  49.676  1.00  0.00     0.100 A 
HETATM    5  C1  UNL     1      26.017   5.458  49.602  1.00  0.00     0.038 C 
HETATM    6  C5  UNL     1      23.767   4.794  49.071  1.00  0.00     0.001 C 
HETATM    7  C7  UNL     1      24.371   7.159  48.920  1.00  0.00     0.020 A 
HETATM    8  C2  UNL     1      26.144   4.274  50.179  1.00  0.00    -0.000 C 
HETATM    9  C3  UNL     1      25.612   3.287  49.476  1.00  0.00     0.014 C 
HETATM   10  C4  UNL     1      24.248   3.545  48.971  1.00  0.00    -0.001 C 
HETATM   11  C8  UNL     1      23.882   8.062  49.753  1.00  0.00     0.116 A 
HETATM   12  N2  UNL     1      23.748   7.504  51.053  1.00  0.00    -0.246 NA
BRANCH   5  13
HETATM   13  N1  UNL     1      27.213   6.028  49.062  1.00  0.00    -0.400 N 
HETATM   14  H1  UNL     1      27.528   6.039  48.063  1.00  0.00     0.156 HD
HETATM   15  H2  UNL     1      27.743   6.452  49.876  1.00  0.00     0.156 HD
ENDBRANCH   5  13
ENDBRANCH   1   3
BRANCH   1  16
HETATM   16  C10 UNL     1      23.305   4.291  52.311  1.00  0.00     0.034 A 
HETATM   17  C11 UNL     1      21.940   4.270  52.155  1.00  0.00     0.029 A 
HETATM   18  C12 UNL     1      21.141   3.179  52.279  1.00  0.00     0.003 A 
HETATM   19  C13 UNL     1      21.715   1.963  52.587  1.00  0.00     0.007 A 
HETATM   20  C14 UNL     1      23.083   1.917  52.756  1.00  0.00    -0.054 A 
HETATM   21  C20 UNL     1      23.844   3.058  52.618  1.00  0.00     0.036 A 
BRANCH  20  22
HETATM   22  C15 UNL     1      23.670   0.592  53.087  1.00  0.00     0.058 C 
BRANCH  22  23
HETATM   23  C16 UNL     1      25.008   0.513  52.351  1.00  0.00     0.134 C 
BRANCH  23  24
HETATM   24  N4  UNL     1      26.097   0.275  53.264  1.00  0.00    -0.350 N 
HETATM   25  C17 UNL     1      27.437   0.396  53.096  1.00  0.00     0.111 A 
HETATM   26  C18 UNL     1      28.106   0.055  54.265  1.00  0.00     0.135 A 
HETATM   27  N5  UNL     1      27.135  -0.277  55.151  1.00  0.00    -0.255 NA
HETATM   28  C19 UNL     1      25.957  -0.143  54.550  1.00  0.00     0.209 A 
ENDBRANCH  23  24
ENDBRANCH  22  23
ENDBRANCH  20  22
ENDBRANCH   1  16
TORSDOF 6
ENDMDL
MODEL 5
REMARK VINA RESULT:      -7.4      2.585      6.159
REMARK  6 active torsions:
REMARK  status: ('A' for Active; 'I' for Inactive)
REMARK    1  A    between atoms: N1_1  and  C1_2 
REMARK    2  A    between atoms: C9_11  and  N3_12 
REMARK    3  A    between atoms: N3_12  and  C10_13 
REMARK    4  A    between atoms: C14_17  and  C15_18 
REMARK    5  A    between atoms: C15_18  and  C16_19 
REMARK    6  A    between atoms: C16_19  and  N4_20 
ROOT
HETATM    1  N3  UNL     1      23.539   0.549  52.036  1.00  0.00    -0.343 N 
HETATM    2  H8  UNL     1      23.237  -0.081  51.262  1.00  0.00     0.167 HD
ENDROOT
BRANCH   1   3
HETATM    3  C9  UNL     1      23.950  -0.039  53.262  1.00  0.00     0.126 A 
HETATM    4  C6  UNL     1      25.312  -0.071  53.822  1.00  0.00     0.100 A 
HETATM    5  C1  UNL     1      26.307  -0.747  52.949  1.00  0.00     0.038 C 
HETATM    6  C5  UNL     1      25.848   1.303  54.119  1.00  0.00     0.001 C 
HETATM    7  C7  UNL     1      25.110  -0.811  55.100  1.00  0.00     0.020 A 
HETATM    8  C2  UNL     1      26.544   0.006  51.887  1.00  0.00    -0.000 C 
HETATM    9  C3  UNL     1      27.249   1.093  52.161  1.00  0.00     0.014 C 
HETATM   10  C4  UNL     1      26.776   1.865  53.328  1.00  0.00    -0.001 C 
HETATM   11  C8  UNL     1      23.829  -1.127  55.203  1.00  0.00     0.116 A 
HETATM   12  N2  UNL     1      23.118  -0.649  54.069  1.00  0.00    -0.246 NA
BRANCH   5  13
HETATM   13  N1  UNL     1      27.025  -1.983  53.018  1.00  0.00    -0.400 N 
HETATM   14  H1  UNL     1      26.655  -2.953  52.871  1.00  0.00     0.156 HD
HETATM   15  H2  UNL     1      28.030  -1.740  53.252  1.00  0.00     0.156 HD
ENDBRANCH   5  13
ENDBRANCH   1   3
BRANCH   1  16
HETATM   16  C10 UNL     1      23.523   1.951  51.819  1.00  0.00     0.034 A 
HETATM   17  C11 UNL     1      22.936   2.891  52.631  1.00  0.00     0.029 A 
HETATM   18  C12 UNL     1      22.923   4.232  52.417  1.00  0.00     0.003 A 
HETATM   19  C13 UNL     1      23.545   4.734  51.294  1.00  0.00     0.007 A 
HETATM   20  C14 UNL     1      24.154   3.841  50.436  1.00  0.00    -0.054 A 
HETATM   21  C20 UNL     1      24.135   2.490  50.705  1.00  0.00     0.036 A 
BRANCH  20  22
HETATM   22  C15 UNL     1      24.816   4.415  49.235  1.00  0.00     0.058 C 
BRANCH  22  23
HETATM   23  C16 UNL     1      26.316   4.177  49.409  1.00  0.00     0.134 C 
BRANCH  23  24
HETATM   24  N4  UNL     1      27.090   5.235  48.812  1.00  0.00    -0.350 N 
HETATM   25  C17 UNL     1      26.747   6.503  48.476  1.00  0.00     0.111 A 
HETATM   26  C18 UNL     1      27.833   7.169  47.921  1.00  0.00     0.135 A 
HETATM   27  N5  UNL     1      28.847   6.271  47.929  1.00  0.00    -0.255 NA
HETATM   28  C19 UNL     1      28.398   5.137  48.456  1.00  0.00     0.209 A 
ENDBRANCH  23  24
ENDBRANCH  22  23
ENDBRANCH  20  22
ENDBRANCH   1  16
TORSDOF 6
ENDMDL
MODEL 6
REMARK VINA RESULT:      -7.3      2.802      6.071
REMARK  6 active torsions:
REMARK  status: ('A' for Active; 'I' for Inactive)
REMARK    1  A    between atoms: N1_1  and  C1_2 
REMARK    2  A    between atoms: C9_11  and  N3_12 
REMARK    3  A    between atoms: N3_12  and  C10_13 
REMARK    4  A    between atoms: C14_17  and  C15_18 
REMARK    5  A    between atoms: C15_18  and  C16_19 
REMARK    6  A    between atoms: C16_19  and  N4_20 
ROOT
HETATM    1  N3  UNL     1      24.368   4.081  52.021  1.00  0.00    -0.343 N 
HETATM    2  H8  UNL     1      24.215   4.831  52.728  1.00  0.00     0.167 HD
ENDROOT
BRANCH   1   3
HETATM    3  C9  UNL     1      25.100   4.399  50.846  1.00  0.00     0.126 A 
HETATM    4  C6  UNL     1      24.859   5.521  49.924  1.00  0.00     0.100 A 
HETATM    5  C1  UNL     1      23.507   5.514  49.305  1.00  0.00     0.038 C 
HETATM    6  C5  UNL     1      25.033   6.862  50.585  1.00  0.00     0.001 C 
HETATM    7  C7  UNL     1      25.930   5.328  48.905  1.00  0.00     0.020 A 
HETATM    8  C2  UNL     1      22.602   5.811  50.223  1.00  0.00    -0.000 C 
HETATM    9  C3  UNL     1      22.626   7.081  50.594  1.00  0.00     0.014 C 
HETATM   10  C4  UNL     1      23.968   7.613  50.907  1.00  0.00    -0.001 C 
HETATM   11  C8  UNL     1      26.635   4.259  49.237  1.00  0.00     0.116 A 
HETATM   12  N2  UNL     1      26.121   3.690  50.433  1.00  0.00    -0.246 NA
BRANCH   5  13
HETATM   13  N1  UNL     1      23.010   5.264  47.987  1.00  0.00    -0.400 N 
HETATM   14  H1  UNL     1      22.096   4.830  47.713  1.00  0.00     0.156 HD
HETATM   15  H2  UNL     1      23.751   5.607  47.311  1.00  0.00     0.156 HD
ENDBRANCH   5  13
ENDBRANCH   1   3
BRANCH   1  16
HETATM   16  C10 UNL     1      23.840   2.789  52.275  1.00  0.00     0.034 A 
HETATM   17  C11 UNL     1      22.562   2.366  52.000  1.00  0.00     0.029 A 
HETATM   18  C12 UNL     1      22.061   1.128  52.247  1.00  0.00     0.003 A 
HETATM   19  C13 UNL     1      22.880   0.181  52.826  1.00  0.00     0.007 A 
HETATM   20  C14 UNL     1      24.176   0.542  53.127  1.00  0.00    -0.054 A 
HETATM   21  C20 UNL     1      24.629   1.815  52.853  1.00  0.00     0.036 A 
BRANCH  20  22
HETATM   22  C15 UNL     1      25.033  -0.501  53.749  1.00  0.00     0.058 C 
BRANCH  22  23
HETATM   23  C16 UNL     1      26.092   0.236  54.569  1.00  0.00     0.134 C 
BRANCH  23  24
HETATM   24  N4  UNL     1      27.422  -0.186  54.210  1.00  0.00    -0.350 N 
HETATM   25  C17 UNL     1      27.855  -1.012  53.227  1.00  0.00     0.111 A 
HETATM   26  C18 UNL     1      29.240  -1.125  53.263  1.00  0.00     0.135 A 
HETATM   27  N5  UNL     1      29.638  -0.344  54.297  1.00  0.00    -0.255 NA
HETATM   28  C19 UNL     1      28.559   0.204  54.846  1.00  0.00     0.209 A 
ENDBRANCH  23  24
ENDBRANCH  22  23
ENDBRANCH  20  22
ENDBRANCH   1  16
TORSDOF 6
ENDMDL
MODEL 7
REMARK VINA RESULT:      -7.1      2.044      3.287
REMARK  6 active torsions:
REMARK  status: ('A' for Active; 'I' for Inactive)
REMARK    1  A    between atoms: N1_1  and  C1_2 
REMARK    2  A    between atoms: C9_11  and  N3_12 
REMARK    3  A    between atoms: N3_12  and  C10_13 
REMARK    4  A    between atoms: C14_17  and  C15_18 
REMARK    5  A    between atoms: C15_18  and  C16_19 
REMARK    6  A    between atoms: C16_19  and  N4_20 
ROOT
HETATM    1  N3  UNL     1      24.099   2.160  53.292  1.00  0.00    -0.343 N 
HETATM    2  H8  UNL     1      24.236   2.638  54.208  1.00  0.00     0.167 HD
ENDROOT
BRANCH   1   3
HETATM    3  C9  UNL     1      24.999   2.456  52.235  1.00  0.00     0.126 A 
HETATM    4  C6  UNL     1      26.324   1.855  51.999  1.00  0.00     0.100 A 
HETATM    5  C1  UNL     1      27.282   2.049  53.119  1.00  0.00     0.038 C 
HETATM    6  C5  UNL     1      26.250   0.376  51.734  1.00  0.00     0.001 C 
HETATM    7  C7  UNL     1      26.774   2.559  50.764  1.00  0.00     0.020 A 
HETATM    8  C2  UNL     1      26.907   1.310  54.151  1.00  0.00    -0.000 C 
HETATM    9  C3  UNL     1      27.101   0.014  53.966  1.00  0.00     0.014 C 
HETATM   10  C4  UNL     1      26.621  -0.511  52.671  1.00  0.00    -0.001 C 
HETATM   11  C8  UNL     1      25.828   3.409  50.399  1.00  0.00     0.116 A 
HETATM   12  N2  UNL     1      24.737   3.342  51.307  1.00  0.00    -0.246 NA
BRANCH   5  13
HETATM   13  N1  UNL     1      28.466   2.831  53.301  1.00  0.00    -0.400 N 
HETATM   14  H1  UNL     1      29.437   2.618  52.970  1.00  0.00     0.156 HD
HETATM   15  H2  UNL     1      28.182   3.694  53.846  1.00  0.00     0.156 HD
ENDBRANCH   5  13
ENDBRANCH   1   3
BRANCH   1  16
HETATM   16  C10 UNL     1      23.024   1.244  53.158  1.00  0.00     0.034 A 
HETATM   17  C11 UNL     1      23.036  -0.080  53.525  1.00  0.00     0.029 A 
HETATM   18  C12 UNL     1      22.005  -0.953  53.392  1.00  0.00     0.003 A 
HETATM   19  C13 UNL     1      20.821  -0.509  52.842  1.00  0.00     0.007 A 
HETATM   20  C14 UNL     1      20.744   0.812  52.452  1.00  0.00    -0.054 A 
HETATM   21  C20 UNL     1      21.824   1.653  52.612  1.00  0.00     0.036 A 
BRANCH  20  22
HETATM   22  C15 UNL     1      19.454   1.260  51.864  1.00  0.00     0.058 C 
BRANCH  22  23
HETATM   23  C16 UNL     1      19.376   0.645  50.467  1.00  0.00     0.134 C 
BRANCH  23  24
HETATM   24  N4  UNL     1      20.201   1.364  49.529  1.00  0.00    -0.350 N 
HETATM   25  C17 UNL     1      21.352   1.009  48.907  1.00  0.00     0.111 A 
HETATM   26  C18 UNL     1      21.794   2.034  48.080  1.00  0.00     0.135 A 
HETATM   27  N5  UNL     1      20.878   3.024  48.215  1.00  0.00    -0.255 NA
HETATM   28  C19 UNL     1      19.945   2.618  49.070  1.00  0.00     0.209 A 
ENDBRANCH  23  24
ENDBRANCH  22  23
ENDBRANCH  20  22
ENDBRANCH   1  16
TORSDOF 6
ENDMDL
MODEL 8
REMARK VINA RESULT:      -7.1      2.762      6.530
REMARK  6 active torsions:
REMARK  status: ('A' for Active; 'I' for Inactive)
REMARK    1  A    between atoms: N1_1  and  C1_2 
REMARK    2  A    between atoms: C9_11  and  N3_12 
REMARK    3  A    between atoms: N3_12  and  C10_13 
REMARK    4  A    between atoms: C14_17  and  C15_18 
REMARK    5  A    between atoms: C15_18  and  C16_19 
REMARK    6  A    between atoms: C16_19  and  N4_20 
ROOT
HETATM    1  N3  UNL     1      23.623   2.614  51.156  1.00  0.00    -0.343 N 
HETATM    2  H8  UNL     1      24.518   2.653  50.623  1.00  0.00     0.167 HD
ENDROOT
BRANCH   1   3
HETATM    3  C9  UNL     1      22.657   3.629  50.927  1.00  0.00     0.126 A 
HETATM    4  C6  UNL     1      21.725   3.732  49.792  1.00  0.00     0.100 A 
HETATM    5  C1  UNL     1      22.394   3.811  48.466  1.00  0.00     0.038 C 
HETATM    6  C5  UNL     1      20.759   2.580  49.729  1.00  0.00     0.001 C 
HETATM    7  C7  UNL     1      20.981   4.985  50.106  1.00  0.00     0.020 A 
HETATM    8  C2  UNL     1      22.935   2.639  48.177  1.00  0.00    -0.000 C 
HETATM    9  C3  UNL     1      22.043   1.709  47.876  1.00  0.00     0.014 C 
HETATM   10  C4  UNL     1      20.906   1.609  48.813  1.00  0.00    -0.001 C 
HETATM   11  C8  UNL     1      21.451   5.477  51.241  1.00  0.00     0.116 A 
HETATM   12  N2  UNL     1      22.482   4.638  51.744  1.00  0.00    -0.246 NA
BRANCH   5  13
HETATM   13  N1  UNL     1      22.565   4.843  47.490  1.00  0.00    -0.400 N 
HETATM   14  H1  UNL     1      22.732   4.737  46.461  1.00  0.00     0.156 HD
HETATM   15  H2  UNL     1      22.490   5.766  48.005  1.00  0.00     0.156 HD
ENDBRANCH   5  13
ENDBRANCH   1   3
BRANCH   1  16
HETATM   16  C10 UNL     1      23.423   1.550  52.073  1.00  0.00     0.034 A 
HETATM   17  C11 UNL     1      22.211   1.044  52.476  1.00  0.00     0.029 A 
HETATM   18  C12 UNL     1      22.025   0.027  53.356  1.00  0.00     0.003 A 
HETATM   19  C13 UNL     1      23.129  -0.579  53.918  1.00  0.00     0.007 A 
HETATM   20  C14 UNL     1      24.377  -0.117  53.555  1.00  0.00    -0.054 A 
HETATM   21  C20 UNL     1      24.504   0.921  52.656  1.00  0.00     0.036 A 
BRANCH  20  22
HETATM   22  C15 UNL     1      25.546  -0.791  54.178  1.00  0.00     0.058 C 
BRANCH  22  23
HETATM   23  C16 UNL     1      26.488  -1.173  53.036  1.00  0.00     0.134 C 
BRANCH  23  24
HETATM   24  N4  UNL     1      27.835  -0.733  53.295  1.00  0.00    -0.350 N 
HETATM   25  C17 UNL     1      29.006  -1.416  53.294  1.00  0.00     0.111 A 
HETATM   26  C18 UNL     1      30.063  -0.569  53.604  1.00  0.00     0.135 A 
HETATM   27  N5  UNL     1      29.502   0.651  53.793  1.00  0.00    -0.255 NA
HETATM   28  C19 UNL     1      28.191   0.541  53.608  1.00  0.00     0.209 A 
ENDBRANCH  23  24
ENDBRANCH  22  23
ENDBRANCH  20  22
ENDBRANCH   1  16
TORSDOF 6
ENDMDL
MODEL 9
REMARK VINA RESULT:      -7.1      3.138      6.725
REMARK  6 active torsions:
REMARK  status: ('A' for Active; 'I' for Inactive)
REMARK    1  A    between atoms: N1_1  and  C1_2 
REMARK    2  A    between atoms: C9_11  and  N3_12 
REMARK    3  A    between atoms: N3_12  and  C10_13 
REMARK    4  A    between atoms: C14_17  and  C15_18 
REMARK    5  A    between atoms: C15_18  and  C16_19 
REMARK    6  A    between atoms: C16_19  and  N4_20 
ROOT
HETATM    1  N3  UNL     1      25.618   2.626  53.409  1.00  0.00    -0.343 N 
HETATM    2  H8  UNL     1      25.051   3.100  54.143  1.00  0.00     0.167 HD
ENDROOT
BRANCH   1   3
HETATM    3  C9  UNL     1      26.689   1.789  53.819  1.00  0.00     0.126 A 
HETATM    4  C6  UNL     1      26.696   0.317  53.878  1.00  0.00     0.100 A 
HETATM    5  C1  UNL     1      25.658  -0.256  54.774  1.00  0.00     0.038 C 
HETATM    6  C5  UNL     1      26.511  -0.318  52.527  1.00  0.00     0.001 C 
HETATM    7  C7  UNL     1      28.071   0.029  54.377  1.00  0.00     0.020 A 
HETATM    8  C2  UNL     1      24.464  -0.083  54.231  1.00  0.00    -0.000 C 
HETATM    9  C3  UNL     1      24.248  -0.859  53.180  1.00  0.00     0.014 C 
HETATM   10  C4  UNL     1      25.341  -0.883  52.187  1.00  0.00    -0.001 C 
HETATM   11  C8  UNL     1      28.701   1.178  54.557  1.00  0.00     0.116 A 
HETATM   12  N2  UNL     1      27.847   2.259  54.212  1.00  0.00    -0.246 NA
BRANCH   5  13
HETATM   13  N1  UNL     1      25.684  -0.923  56.040  1.00  0.00    -0.400 N 
HETATM   14  H1  UNL     1      25.967  -0.531  56.970  1.00  0.00     0.156 HD
HETATM   15  H2  UNL     1      25.355  -1.916  55.869  1.00  0.00     0.156 HD
ENDBRANCH   5  13
ENDBRANCH   1   3
BRANCH   1  16
HETATM   16  C10 UNL     1      25.287   2.843  52.046  1.00  0.00     0.034 A 
HETATM   17  C11 UNL     1      24.090   2.539  51.444  1.00  0.00     0.029 A 
HETATM   18  C12 UNL     1      23.779   2.748  50.139  1.00  0.00     0.003 A 
HETATM   19  C13 UNL     1      24.724   3.315  49.310  1.00  0.00     0.007 A 
HETATM   20  C14 UNL     1      25.949   3.644  49.854  1.00  0.00    -0.054 A 
HETATM   21  C20 UNL     1      26.208   3.408  51.187  1.00  0.00     0.036 A 
BRANCH  20  22
HETATM   22  C15 UNL     1      26.945   4.253  48.935  1.00  0.00     0.058 C 
BRANCH  22  23
HETATM   23  C16 UNL     1      26.498   5.696  48.702  1.00  0.00     0.134 C 
BRANCH  23  24
HETATM   24  N4  UNL     1      27.626   6.588  48.606  1.00  0.00    -0.350 N 
HETATM   25  C17 UNL     1      28.894   6.370  48.182  1.00  0.00     0.111 A 
HETATM   26  C18 UNL     1      29.643   7.537  48.267  1.00  0.00     0.135 A 
HETATM   27  N5  UNL     1      28.793   8.474  48.755  1.00  0.00    -0.255 NA
HETATM   28  C19 UNL     1      27.609   7.903  48.951  1.00  0.00     0.209 A 
ENDBRANCH  23  24
ENDBRANCH  22  23
ENDBRANCH  20  22
ENDBRANCH   1  16
TORSDOF 6
ENDMDL
