MODEL 1
REMARK VINA RESULT:      -7.3      0.000      0.000
REMARK  6 active torsions:
REMARK  status: ('A' for Active; 'I' for Inactive)
REMARK    1  A    between atoms: C3_3  and  C5_5 
REMARK       I    between atoms: C5_5  and  N1_7 
REMARK    2  A    between atoms: N1_7  and  C6_8 
REMARK    3  A    between atoms: C6_8  and  C7_9 
REMARK    4  A    between atoms: C7_9  and  N2_10 
REMARK    5  A    between atoms: N2_10  and  C8_11 
REMARK    6  A    between atoms: C9_13  and  C10_14 
ROOT
HETATM    1  N2  UNL     1      24.396   3.665  52.918  1.00  0.00    -0.367 N 
HETATM    2  H13 UNL     1      24.556   4.126  53.840  1.00  0.00     0.161 HD
ENDROOT
BRANCH   1   3
HETATM    3  C7  UNL     1      23.867   4.334  51.753  1.00  0.00     0.141 C 
BRANCH   3   4
HETATM    4  C6  UNL     1      24.383   3.814  50.450  1.00  0.00     0.142 C 
BRANCH   4   5
HETATM    5  N1  UNL     1      25.246   4.794  49.776  1.00  0.00    -0.356 N 
HETATM    6  C5  UNL     1      26.543   4.506  49.268  1.00  0.00     0.246 C 
HETATM    7  O1  UNL     1      26.966   3.310  49.419  1.00  0.00    -0.268 OA
HETATM    8  H8  UNL     1      24.942   5.793  49.628  1.00  0.00     0.162 HD
BRANCH   6   9
HETATM    9  C3  UNL     1      27.357   5.515  48.608  1.00  0.00     0.002 C 
HETATM   10  C2  UNL     1      28.632   5.412  48.339  1.00  0.00    -0.019 C 
HETATM   11  C1  UNL     1      29.331   6.510  47.668  1.00  0.00     0.036 C 
HETATM   12  C4  UNL     1      26.714   6.787  48.189  1.00  0.00     0.054 C 
ENDBRANCH   6   9
ENDBRANCH   4   5
ENDBRANCH   3   4
ENDBRANCH   1   3
BRANCH   1  13
HETATM   13  C8  UNL     1      24.780   2.293  52.999  1.00  0.00     0.167 A 
HETATM   14  N3  UNL     1      25.852   1.607  53.050  1.00  0.00    -0.224 NA
HETATM   15  C9  UNL     1      25.775   0.300  53.115  1.00  0.00     0.078 A 
HETATM   16  C15 UNL     1      24.454  -0.406  53.133  1.00  0.00     0.085 A 
HETATM   17  S1  UNL     1      23.372   1.025  53.043  1.00  0.00    -0.062 SA
BRANCH  15  18
HETATM   18  C10 UNL     1      26.979  -0.518  53.174  1.00  0.00     0.011 A 
HETATM   19  C11 UNL     1      28.208  -0.016  53.546  1.00  0.00     0.017 A 
HETATM   20  C12 UNL     1      29.337  -0.815  53.595  1.00  0.00     0.020 A 
HETATM   21  C13 UNL     1      29.291  -2.155  53.274  1.00  0.00     0.116 A 
HETATM   22  N4  UNL     1      28.093  -2.648  52.912  1.00  0.00    -0.272 NA
HETATM   23  C14 UNL     1      27.002  -1.861  52.868  1.00  0.00     0.130 A 
ENDBRANCH  15  18
ENDBRANCH   1  13
TORSDOF 6
ENDMDL
MODEL 2
REMARK VINA RESULT:      -7.2      2.512      3.476
REMARK  6 active torsions:
REMARK  status: ('A' for Active; 'I' for Inactive)
REMARK    1  A    between atoms: C3_3  and  C5_5 
REMARK       I    between atoms: C5_5  and  N1_7 
REMARK    2  A    between atoms: N1_7  and  C6_8 
REMARK    3  A    between atoms: C6_8  and  C7_9 
REMARK    4  A    between atoms: C7_9  and  N2_10 
REMARK    5  A    between atoms: N2_10  and  C8_11 
REMARK    6  A    between atoms: C9_13  and  C10_14 
ROOT
HETATM    1  N2  UNL     1      20.952   0.259  52.190  1.00  0.00    -0.367 N 
HETATM    2  H13 UNL     1      20.225  -0.487  52.243  1.00  0.00     0.161 HD
ENDROOT
BRANCH   1   3
HETATM    3  C7  UNL     1      20.821   1.471  51.415  1.00  0.00     0.141 C 
BRANCH   3   4
HETATM    4  C6  UNL     1      21.640   2.618  51.913  1.00  0.00     0.142 C 
BRANCH   4   5
HETATM    5  N1  UNL     1      22.907   2.742  51.179  1.00  0.00    -0.356 N 
HETATM    6  C5  UNL     1      24.154   3.066  51.780  1.00  0.00     0.246 C 
HETATM    7  O1  UNL     1      24.150   3.259  53.043  1.00  0.00    -0.268 OA
HETATM    8  H8  UNL     1      22.962   2.595  50.136  1.00  0.00     0.162 HD
BRANCH   6   9
HETATM    9  C3  UNL     1      25.381   3.178  51.006  1.00  0.00     0.002 C 
HETATM   10  C2  UNL     1      25.571   3.971  49.985  1.00  0.00    -0.019 C 
HETATM   11  C1  UNL     1      26.862   3.980  49.294  1.00  0.00     0.036 C 
HETATM   12  C4  UNL     1      26.540   2.328  51.383  1.00  0.00     0.054 C 
ENDBRANCH   6   9
ENDBRANCH   4   5
ENDBRANCH   3   4
ENDBRANCH   1   3
BRANCH   1  13
HETATM   13  C8  UNL     1      22.072  -0.109  52.993  1.00  0.00     0.167 A 
HETATM   14  N3  UNL     1      23.342  -0.023  52.950  1.00  0.00    -0.224 NA
HETATM   15  C9  UNL     1      24.052  -0.516  53.936  1.00  0.00     0.078 A 
HETATM   16  C15 UNL     1      23.404  -1.177  55.113  1.00  0.00     0.085 A 
HETATM   17  S1  UNL     1      21.686  -1.000  54.621  1.00  0.00    -0.062 SA
BRANCH  15  18
HETATM   18  C10 UNL     1      25.507  -0.437  53.922  1.00  0.00     0.011 A 
HETATM   19  C11 UNL     1      26.282  -1.071  52.974  1.00  0.00     0.017 A 
HETATM   20  C12 UNL     1      27.663  -0.980  52.981  1.00  0.00     0.020 A 
HETATM   21  C13 UNL     1      28.335  -0.249  53.938  1.00  0.00     0.116 A 
HETATM   22  N4  UNL     1      27.582   0.371  54.863  1.00  0.00    -0.272 NA
HETATM   23  C14 UNL     1      26.240   0.275  54.845  1.00  0.00     0.130 A 
ENDBRANCH  15  18
ENDBRANCH   1  13
TORSDOF 6
ENDMDL
MODEL 3
REMARK VINA RESULT:      -7.1      1.884      2.513
REMARK  6 active torsions:
REMARK  status: ('A' for Active; 'I' for Inactive)
REMARK    1  A    between atoms: C3_3  and  C5_5 
REMARK       I    between atoms: C5_5  and  N1_7 
REMARK    2  A    between atoms: N1_7  and  C6_8 
REMARK    3  A    between atoms: C6_8  and  C7_9 
REMARK    4  A    between atoms: C7_9  and  N2_10 
REMARK    5  A    between atoms: N2_10  and  C8_11 
REMARK    6  A    between atoms: C9_13  and  C10_14 
ROOT
HETATM    1  N2  UNL     1      21.688   2.604  51.700  1.00  0.00    -0.367 N 
HETATM    2  H13 UNL     1      21.079   2.154  50.984  1.00  0.00     0.161 HD
ENDROOT
BRANCH   1   3
HETATM    3  C7  UNL     1      21.666   4.012  52.020  1.00  0.00     0.141 C 
BRANCH   3   4
HETATM    4  C6  UNL     1      22.024   4.914  50.882  1.00  0.00     0.142 C 
BRANCH   4   5
HETATM    5  N1  UNL     1      23.474   4.940  50.642  1.00  0.00    -0.356 N 
HETATM    6  C5  UNL     1      24.156   4.068  49.750  1.00  0.00     0.246 C 
HETATM    7  O1  UNL     1      23.441   3.212  49.126  1.00  0.00    -0.268 OA
HETATM    8  H8  UNL     1      24.106   5.627  51.134  1.00  0.00     0.162 HD
BRANCH   6   9
HETATM    9  C3  UNL     1      25.595   4.136  49.549  1.00  0.00     0.002 C 
HETATM   10  C2  UNL     1      26.229   5.050  48.863  1.00  0.00    -0.019 C 
HETATM   11  C1  UNL     1      27.687   4.997  48.742  1.00  0.00     0.036 C 
HETATM   12  C4  UNL     1      26.450   3.089  50.166  1.00  0.00     0.054 C 
ENDBRANCH   6   9
ENDBRANCH   4   5
ENDBRANCH   3   4
ENDBRANCH   1   3
BRANCH   1  13
HETATM   13  C8  UNL     1      22.529   1.619  52.298  1.00  0.00     0.167 A 
HETATM   14  N3  UNL     1      23.767   1.449  52.547  1.00  0.00    -0.224 NA
HETATM   15  C9  UNL     1      24.156   0.344  53.136  1.00  0.00     0.078 A 
HETATM   16  C15 UNL     1      23.180  -0.722  53.523  1.00  0.00     0.085 A 
HETATM   17  S1  UNL     1      21.670   0.056  52.941  1.00  0.00    -0.062 SA
BRANCH  15  18
HETATM   18  C10 UNL     1      25.564   0.114  53.437  1.00  0.00     0.011 A 
HETATM   19  C11 UNL     1      26.530   0.005  52.459  1.00  0.00     0.017 A 
HETATM   20  C12 UNL     1      27.861  -0.213  52.771  1.00  0.00     0.020 A 
HETATM   21  C13 UNL     1      28.288  -0.331  54.077  1.00  0.00     0.116 A 
HETATM   22  N4  UNL     1      27.348  -0.224  55.032  1.00  0.00    -0.272 NA
HETATM   23  C14 UNL     1      26.058  -0.013  54.716  1.00  0.00     0.130 A 
ENDBRANCH  15  18
ENDBRANCH   1  13
TORSDOF 6
ENDMDL
MODEL 4
REMARK VINA RESULT:      -6.9      3.295      6.104
REMARK  6 active torsions:
REMARK  status: ('A' for Active; 'I' for Inactive)
REMARK    1  A    between atoms: C3_3  and  C5_5 
REMARK       I    between atoms: C5_5  and  N1_7 
REMARK    2  A    between atoms: N1_7  and  C6_8 
REMARK    3  A    between atoms: C6_8  and  C7_9 
REMARK    4  A    between atoms: C7_9  and  N2_10 
REMARK    5  A    between atoms: N2_10  and  C8_11 
REMARK    6  A    between atoms: C9_13  and  C10_14 
ROOT
HETATM    1  N2  UNL     1      22.355   3.104  49.829  1.00  0.00    -0.367 N 
HETATM    2  H13 UNL     1      22.403   3.654  48.945  1.00  0.00     0.161 HD
ENDROOT
BRANCH   1   3
HETATM    3  C7  UNL     1      21.130   2.638  50.434  1.00  0.00     0.141 C 
BRANCH   3   4
HETATM    4  C6  UNL     1      20.910   1.162  50.336  1.00  0.00     0.142 C 
BRANCH   4   5
HETATM    5  N1  UNL     1      21.714   0.424  51.320  1.00  0.00    -0.356 N 
HETATM    6  C5  UNL     1      21.308   0.167  52.658  1.00  0.00     0.246 C 
HETATM    7  O1  UNL     1      20.165   0.619  53.007  1.00  0.00    -0.268 OA
HETATM    8  H8  UNL     1      22.664   0.033  51.080  1.00  0.00     0.162 HD
BRANCH   6   9
HETATM    9  C3  UNL     1      22.144  -0.569  53.593  1.00  0.00     0.002 C 
HETATM   10  C2  UNL     1      23.374  -0.269  53.920  1.00  0.00    -0.019 C 
HETATM   11  C1  UNL     1      24.102  -1.103  54.878  1.00  0.00     0.036 C 
HETATM   12  C4  UNL     1      21.581  -1.776  54.254  1.00  0.00     0.054 C 
ENDBRANCH   6   9
ENDBRANCH   4   5
ENDBRANCH   3   4
ENDBRANCH   1   3
BRANCH   1  13
HETATM   13  C8  UNL     1      23.674   2.892  50.330  1.00  0.00     0.167 A 
HETATM   14  N3  UNL     1      24.255   2.177  51.210  1.00  0.00    -0.224 NA
HETATM   15  C9  UNL     1      25.551   2.288  51.374  1.00  0.00     0.078 A 
HETATM   16  C15 UNL     1      26.366   3.236  50.550  1.00  0.00     0.085 A 
HETATM   17  S1  UNL     1      25.052   3.926  49.538  1.00  0.00    -0.062 SA
BRANCH  15  18
HETATM   18  C10 UNL     1      26.249   1.487  52.372  1.00  0.00     0.011 A 
HETATM   19  C11 UNL     1      26.696   0.207  52.125  1.00  0.00     0.017 A 
HETATM   20  C12 UNL     1      27.358  -0.533  53.089  1.00  0.00     0.020 A 
HETATM   21  C13 UNL     1      27.604  -0.026  54.348  1.00  0.00     0.116 A 
HETATM   22  N4  UNL     1      27.170   1.223  54.591  1.00  0.00    -0.272 NA
HETATM   23  C14 UNL     1      26.528   1.932  53.645  1.00  0.00     0.130 A 
ENDBRANCH  15  18
ENDBRANCH   1  13
TORSDOF 6
ENDMDL
MODEL 5
REMARK VINA RESULT:      -6.8      2.801      5.493
REMARK  6 active torsions:
REMARK  status: ('A' for Active; 'I' for Inactive)
REMARK    1  A    between atoms: C3_3  and  C5_5 
REMARK       I    between atoms: C5_5  and  N1_7 
REMARK    2  A    between atoms: N1_7  and  C6_8 
REMARK    3  A    between atoms: C6_8  and  C7_9 
REMARK    4  A    between atoms: C7_9  and  N2_10 
REMARK    5  A    between atoms: N2_10  and  C8_11 
REMARK    6  A    between atoms: C9_13  and  C10_14 
ROOT
HETATM    1  N2  UNL     1      24.654   4.724  51.435  1.00  0.00    -0.367 N 
HETATM    2  H13 UNL     1      24.828   5.398  52.211  1.00  0.00     0.161 HD
ENDROOT
BRANCH   1   3
HETATM    3  C7  UNL     1      25.419   4.675  50.211  1.00  0.00     0.141 C 
BRANCH   3   4
HETATM    4  C6  UNL     1      26.195   3.413  50.013  1.00  0.00     0.142 C 
BRANCH   4   5
HETATM    5  N1  UNL     1      26.972   3.057  51.208  1.00  0.00    -0.356 N 
HETATM    6  C5  UNL     1      26.884   1.807  51.880  1.00  0.00     0.246 C 
HETATM    7  O1  UNL     1      26.069   0.951  51.395  1.00  0.00    -0.268 OA
HETATM    8  H8  UNL     1      27.656   3.730  51.647  1.00  0.00     0.162 HD
BRANCH   6   9
HETATM    9  C3  UNL     1      27.677   1.506  53.062  1.00  0.00     0.002 C 
HETATM   10  C2  UNL     1      27.620   0.402  53.760  1.00  0.00    -0.019 C 
HETATM   11  C1  UNL     1      28.479   0.232  54.933  1.00  0.00     0.036 C 
HETATM   12  C4  UNL     1      28.648   2.521  53.545  1.00  0.00     0.054 C 
ENDBRANCH   6   9
ENDBRANCH   4   5
ENDBRANCH   3   4
ENDBRANCH   1   3
BRANCH   1  13
HETATM   13  C8  UNL     1      23.558   3.876  51.777  1.00  0.00     0.167 A 
HETATM   14  N3  UNL     1      23.369   2.729  52.296  1.00  0.00    -0.224 NA
HETATM   15  C9  UNL     1      22.145   2.283  52.440  1.00  0.00     0.078 A 
HETATM   16  C15 UNL     1      20.962   3.093  52.009  1.00  0.00     0.085 A 
HETATM   17  S1  UNL     1      21.826   4.539  51.385  1.00  0.00    -0.062 SA
BRANCH  15  18
HETATM   18  C10 UNL     1      21.890   0.975  53.030  1.00  0.00     0.011 A 
HETATM   19  C11 UNL     1      20.707   0.657  53.663  1.00  0.00     0.017 A 
HETATM   20  C12 UNL     1      20.488  -0.593  54.214  1.00  0.00     0.020 A 
HETATM   21  C13 UNL     1      21.444  -1.586  54.157  1.00  0.00     0.116 A 
HETATM   22  N4  UNL     1      22.598  -1.279  53.539  1.00  0.00    -0.272 NA
HETATM   23  C14 UNL     1      22.798  -0.060  53.007  1.00  0.00     0.130 A 
ENDBRANCH  15  18
ENDBRANCH   1  13
TORSDOF 6
ENDMDL
MODEL 6
REMARK VINA RESULT:      -6.7      2.307      7.126
REMARK  6 active torsions:
REMARK  status: ('A' for Active; 'I' for Inactive)
REMARK    1  A    between atoms: C3_3  and  C5_5 
REMARK       I    between atoms: C5_5  and  N1_7 
REMARK    2  A    between atoms: N1_7  and  C6_8 
REMARK    3  A    between atoms: C6_8  and  C7_9 
REMARK    4  A    between atoms: C7_9  and  N2_10 
REMARK    5  A    between atoms: N2_10  and  C8_11 
REMARK    6  A    between atoms: C9_13  and  C10_14 
ROOT
HETATM    1  N2  UNL     1      23.577   2.901  52.103  1.00  0.00    -0.367 N 
HETATM    2  H13 UNL     1      23.518   3.482  52.966  1.00  0.00     0.161 HD
ENDROOT
BRANCH   1   3
HETATM    3  C7  UNL     1      23.228   1.502  52.037  1.00  0.00     0.141 C 
BRANCH   3   4
HETATM    4  C6  UNL     1      23.778   0.670  53.151  1.00  0.00     0.142 C 
BRANCH   4   5
HETATM    5  N1  UNL     1      25.151   0.226  52.874  1.00  0.00    -0.356 N 
HETATM    6  C5  UNL     1      25.883  -0.678  53.691  1.00  0.00     0.246 C 
HETATM    7  O1  UNL     1      25.288  -1.120  54.732  1.00  0.00    -0.268 OA
HETATM    8  H8  UNL     1      25.684   0.564  52.028  1.00  0.00     0.162 HD
BRANCH   6   9
HETATM    9  C3  UNL     1      27.242  -1.085  53.370  1.00  0.00     0.002 C 
HETATM   10  C2  UNL     1      28.328  -0.416  53.654  1.00  0.00    -0.019 C 
HETATM   11  C1  UNL     1      29.638  -0.945  53.270  1.00  0.00     0.036 C 
HETATM   12  C4  UNL     1      27.450  -2.372  52.656  1.00  0.00     0.054 C 
ENDBRANCH   6   9
ENDBRANCH   4   5
ENDBRANCH   3   4
ENDBRANCH   1   3
BRANCH   1  13
HETATM   13  C8  UNL     1      24.051   3.702  51.021  1.00  0.00     0.167 A 
HETATM   14  N3  UNL     1      25.163   4.127  50.568  1.00  0.00    -0.224 NA
HETATM   15  C9  UNL     1      25.172   4.883  49.497  1.00  0.00     0.078 A 
HETATM   16  C15 UNL     1      23.905   5.258  48.793  1.00  0.00     0.085 A 
HETATM   17  S1  UNL     1      22.733   4.402  49.851  1.00  0.00    -0.062 SA
BRANCH  15  18
HETATM   18  C10 UNL     1      26.425   5.388  48.950  1.00  0.00     0.011 A 
HETATM   19  C11 UNL     1      26.582   6.687  48.515  1.00  0.00     0.017 A 
HETATM   20  C12 UNL     1      27.783   7.143  48.000  1.00  0.00     0.020 A 
HETATM   21  C13 UNL     1      28.885   6.320  47.896  1.00  0.00     0.116 A 
HETATM   22  N4  UNL     1      28.735   5.053  48.320  1.00  0.00    -0.272 NA
HETATM   23  C14 UNL     1      27.562   4.622  48.818  1.00  0.00     0.130 A 
ENDBRANCH  15  18
ENDBRANCH   1  13
TORSDOF 6
ENDMDL
MODEL 7
REMARK VINA RESULT:      -6.7      2.479      3.896
REMARK  6 active torsions:
REMARK  status: ('A' for Active; 'I' for Inactive)
REMARK    1  A    between atoms: C3_3  and  C5_5 
REMARK       I    between atoms: C5_5  and  N1_7 
REMARK    2  A    between atoms: N1_7  and  C6_8 
REMARK    3  A    between atoms: C6_8  and  C7_9 
REMARK    4  A    between atoms: C7_9  and  N2_10 
REMARK    5  A    between atoms: N2_10  and  C8_11 
REMARK    6  A    between atoms: C9_13  and  C10_14 
ROOT
HETATM    1  N2  UNL     1      26.792   2.534  51.283  1.00  0.00    -0.367 N 
HETATM    2  H13 UNL     1      27.688   2.923  51.647  1.00  0.00     0.161 HD
ENDROOT
BRANCH   1   3
HETATM    3  C7  UNL     1      26.218   2.873  50.002  1.00  0.00     0.141 C 
BRANCH   3   4
HETATM    4  C6  UNL     1      26.207   4.336  49.693  1.00  0.00     0.142 C 
BRANCH   4   5
HETATM    5  N1  UNL     1      27.488   4.783  49.127  1.00  0.00    -0.356 N 
HETATM    6  C5  UNL     1      27.656   5.968  48.359  1.00  0.00     0.246 C 
HETATM    7  O1  UNL     1      26.611   6.676  48.160  1.00  0.00    -0.268 OA
HETATM    8  H8  UNL     1      28.378   4.233  49.262  1.00  0.00     0.162 HD
BRANCH   6   9
HETATM    9  C3  UNL     1      28.948   6.365  47.821  1.00  0.00     0.002 C 
HETATM   10  C2  UNL     1      30.076   5.725  47.990  1.00  0.00    -0.019 C 
HETATM   11  C1  UNL     1      31.307   6.240  47.389  1.00  0.00     0.036 C 
HETATM   12  C4  UNL     1      29.029   7.602  47.001  1.00  0.00     0.054 C 
ENDBRANCH   6   9
ENDBRANCH   4   5
ENDBRANCH   3   4
ENDBRANCH   1   3
BRANCH   1  13
HETATM   13  C8  UNL     1      26.239   1.633  52.240  1.00  0.00     0.167 A 
HETATM   14  N3  UNL     1      25.113   1.099  52.505  1.00  0.00    -0.224 NA
HETATM   15  C9  UNL     1      25.013   0.286  53.528  1.00  0.00     0.078 A 
HETATM   16  C15 UNL     1      26.193  -0.030  54.394  1.00  0.00     0.085 A 
HETATM   17  S1  UNL     1      27.428   0.972  53.560  1.00  0.00    -0.062 SA
BRANCH  15  18
HETATM   18  C10 UNL     1      23.741  -0.343  53.862  1.00  0.00     0.011 A 
HETATM   19  C11 UNL     1      22.612  -0.210  53.081  1.00  0.00     0.017 A 
HETATM   20  C12 UNL     1      21.416  -0.818  53.420  1.00  0.00     0.020 A 
HETATM   21  C13 UNL     1      21.293  -1.589  54.557  1.00  0.00     0.116 A 
HETATM   22  N4  UNL     1      22.392  -1.721  55.319  1.00  0.00    -0.272 NA
HETATM   23  C14 UNL     1      23.549  -1.125  54.980  1.00  0.00     0.130 A 
ENDBRANCH  15  18
ENDBRANCH   1  13
TORSDOF 6
ENDMDL
MODEL 8
REMARK VINA RESULT:      -6.6      2.130      3.087
REMARK  6 active torsions:
REMARK  status: ('A' for Active; 'I' for Inactive)
REMARK    1  A    between atoms: C3_3  and  C5_5 
REMARK       I    between atoms: C5_5  and  N1_7 
REMARK    2  A    between atoms: N1_7  and  C6_8 
REMARK    3  A    between atoms: C6_8  and  C7_9 
REMARK    4  A    between atoms: C7_9  and  N2_10 
REMARK    5  A    between atoms: N2_10  and  C8_11 
REMARK    6  A    between atoms: C9_13  and  C10_14 
ROOT
HETATM    1  N2  UNL     1      25.473   4.141  49.419  1.00  0.00    -0.367 N 
HETATM    2  H13 UNL     1      24.621   3.965  48.844  1.00  0.00     0.161 HD
ENDROOT
BRANCH   1   3
HETATM    3  C7  UNL     1      26.365   5.260  49.231  1.00  0.00     0.141 C 
BRANCH   3   4
HETATM    4  C6  UNL     1      27.689   4.906  48.633  1.00  0.00     0.142 C 
BRANCH   4   5
HETATM    5  N1  UNL     1      28.648   6.015  48.735  1.00  0.00    -0.356 N 
HETATM    6  C5  UNL     1      30.004   5.946  48.312  1.00  0.00     0.246 C 
HETATM    7  O1  UNL     1      30.393   4.836  47.813  1.00  0.00    -0.268 OA
HETATM    8  H8  UNL     1      28.375   6.950  49.141  1.00  0.00     0.162 HD
BRANCH   6   9
HETATM    9  C3  UNL     1      30.912   7.075  48.437  1.00  0.00     0.002 C 
HETATM   10  C2  UNL     1      31.082   8.021  47.551  1.00  0.00    -0.019 C 
HETATM   11  C1  UNL     1      32.035   9.103  47.808  1.00  0.00     0.036 C 
HETATM   12  C4  UNL     1      31.735   7.194  49.669  1.00  0.00     0.054 C 
ENDBRANCH   6   9
ENDBRANCH   4   5
ENDBRANCH   3   4
ENDBRANCH   1   3
BRANCH   1  13
HETATM   13  C8  UNL     1      25.605   3.115  50.401  1.00  0.00     0.167 A 
HETATM   14  N3  UNL     1      26.536   2.515  51.031  1.00  0.00    -0.224 NA
HETATM   15  C9  UNL     1      26.226   1.576  51.892  1.00  0.00     0.078 A 
HETATM   16  C15 UNL     1      24.803   1.193  52.154  1.00  0.00     0.085 A 
HETATM   17  S1  UNL     1      23.995   2.332  51.025  1.00  0.00    -0.062 SA
BRANCH  15  18
HETATM   18  C10 UNL     1      27.264   0.868  52.630  1.00  0.00     0.011 A 
HETATM   19  C11 UNL     1      28.345   1.506  53.201  1.00  0.00     0.017 A 
HETATM   20  C12 UNL     1      29.317   0.810  53.899  1.00  0.00     0.020 A 
HETATM   21  C13 UNL     1      29.253  -0.559  54.059  1.00  0.00     0.116 A 
HETATM   22  N4  UNL     1      28.199  -1.183  53.504  1.00  0.00    -0.272 NA
HETATM   23  C14 UNL     1      27.261  -0.495  52.828  1.00  0.00     0.130 A 
ENDBRANCH  15  18
ENDBRANCH   1  13
TORSDOF 6
ENDMDL
MODEL 9
REMARK VINA RESULT:      -6.6      2.085      2.887
REMARK  6 active torsions:
REMARK  status: ('A' for Active; 'I' for Inactive)
REMARK    1  A    between atoms: C3_3  and  C5_5 
REMARK       I    between atoms: C5_5  and  N1_7 
REMARK    2  A    between atoms: N1_7  and  C6_8 
REMARK    3  A    between atoms: C6_8  and  C7_9 
REMARK    4  A    between atoms: C7_9  and  N2_10 
REMARK    5  A    between atoms: N2_10  and  C8_11 
REMARK    6  A    between atoms: C9_13  and  C10_14 
ROOT
HETATM    1  N2  UNL     1      22.785   5.877  52.100  1.00  0.00    -0.367 N 
HETATM    2  H13 UNL     1      22.776   6.304  53.052  1.00  0.00     0.161 HD
ENDROOT
BRANCH   1   3
HETATM    3  C7  UNL     1      22.711   6.628  50.870  1.00  0.00     0.141 C 
BRANCH   3   4
HETATM    4  C6  UNL     1      22.976   5.828  49.636  1.00  0.00     0.142 C 
BRANCH   4   5
HETATM    5  N1  UNL     1      24.375   5.382  49.565  1.00  0.00    -0.356 N 
HETATM    6  C5  UNL     1      25.365   5.972  48.732  1.00  0.00     0.246 C 
HETATM    7  O1  UNL     1      24.991   6.954  48.005  1.00  0.00    -0.268 OA
HETATM    8  H8  UNL     1      24.731   4.575  50.144  1.00  0.00     0.162 HD
BRANCH   6   9
HETATM    9  C3  UNL     1      26.737   5.490  48.700  1.00  0.00     0.002 C 
HETATM   10  C2  UNL     1      27.774   6.163  48.273  1.00  0.00    -0.019 C 
HETATM   11  C1  UNL     1      29.104   5.552  48.298  1.00  0.00     0.036 C 
HETATM   12  C4  UNL     1      27.021   4.116  49.189  1.00  0.00     0.054 C 
ENDBRANCH   6   9
ENDBRANCH   4   5
ENDBRANCH   3   4
ENDBRANCH   1   3
BRANCH   1  13
HETATM   13  C8  UNL     1      22.880   4.458  52.216  1.00  0.00     0.167 A 
HETATM   14  N3  UNL     1      23.787   3.573  52.348  1.00  0.00    -0.224 NA
HETATM   15  C9  UNL     1      23.446   2.310  52.414  1.00  0.00     0.078 A 
HETATM   16  C15 UNL     1      22.013   1.881  52.338  1.00  0.00     0.085 A 
HETATM   17  S1  UNL     1      21.247   3.497  52.163  1.00  0.00    -0.062 SA
BRANCH  15  18
HETATM   18  C10 UNL     1      24.455   1.269  52.564  1.00  0.00     0.011 A 
HETATM   19  C11 UNL     1      25.640   1.268  51.859  1.00  0.00     0.017 A 
HETATM   20  C12 UNL     1      26.583   0.269  52.021  1.00  0.00     0.020 A 
HETATM   21  C13 UNL     1      26.386  -0.778  52.897  1.00  0.00     0.116 A 
HETATM   22  N4  UNL     1      25.232  -0.779  53.587  1.00  0.00    -0.272 NA
HETATM   23  C14 UNL     1      24.323   0.199  53.421  1.00  0.00     0.130 A 
ENDBRANCH  15  18
ENDBRANCH   1  13
TORSDOF 6
ENDMDL
