MODEL 1
REMARK VINA RESULT:      -7.6      0.000      0.000
REMARK  1 active torsions:
REMARK  status: ('A' for Active; 'I' for Inactive)
REMARK    1  A    between atoms: O1_2  and  C2_3 
ROOT
HETATM    1  C2  UNL     1      27.439   4.848  48.719  1.00  0.00     0.067 A 
HETATM    2  C3  UNL     1      27.019   6.121  48.627  1.00  0.00     0.046 A 
HETATM    3  C4  UNL     1      25.571   6.246  49.073  1.00  0.00     0.183 A 
HETATM    4  O2  UNL     1      25.526   7.077  50.148  1.00  0.00    -0.355 OA
HETATM    5  C5  UNL     1      24.631   6.714  51.119  1.00  0.00     0.342 C 
HETATM    6  N1  UNL     1      23.259   6.649  50.733  1.00  0.00    -0.166 NA
HETATM    7  N2  UNL     1      22.404   5.868  51.248  1.00  0.00    -0.147 NA
HETATM    8  C6  UNL     1      22.708   4.936  52.300  1.00  0.00     0.251 C 
HETATM    9  N3  UNL     1      23.310   3.841  52.707  1.00  0.00    -0.270 NA
HETATM   10  C7  UNL     1      24.083   3.127  51.681  1.00  0.00     0.149 C 
HETATM   11  C8  UNL     1      23.788   1.675  51.803  1.00  0.00     0.060 C 
HETATM   12  C9  UNL     1      22.448   1.251  51.398  1.00  0.00    -0.018 C 
HETATM   13  C10 UNL     1      21.738   1.271  50.259  1.00  0.00    -0.066 C 
HETATM   14  C11 UNL     1      20.332   0.735  50.175  1.00  0.00     0.048 C 
HETATM   15  C12 UNL     1      22.263   1.814  48.993  1.00  0.00     0.008 C 
HETATM   16  C13 UNL     1      23.091   2.808  48.798  1.00  0.00     0.014 C 
HETATM   17  P1  UNL     1      23.882   3.862  50.030  1.00  0.00    -0.035 P 
HETATM   18  C14 UNL     1      25.263   4.845  49.419  1.00  0.00    -0.012 A 
HETATM   19  C15 UNL     1      26.316   4.028  49.225  1.00  0.00     0.047 A 
ENDROOT
BRANCH   1  20
HETATM   20  O1  UNL     1      28.773   4.770  48.303  1.00  0.00    -0.356 OA
HETATM   21  C1  UNL     1      29.467   6.020  48.227  1.00  0.00     0.210 C 
ENDBRANCH   1  20
TORSDOF 1
ENDMDL
MODEL 2
REMARK VINA RESULT:      -7.1      4.051      5.933
REMARK  1 active torsions:
REMARK  status: ('A' for Active; 'I' for Inactive)
REMARK    1  A    between atoms: O1_2  and  C2_3 
ROOT
HETATM    1  C2  UNL     1      26.382  -0.265  52.850  1.00  0.00     0.067 A 
HETATM    2  C3  UNL     1      25.646  -0.827  53.824  1.00  0.00     0.046 A 
HETATM    3  C4  UNL     1      24.282  -0.162  53.923  1.00  0.00     0.183 A 
HETATM    4  O2  UNL     1      23.331  -1.100  53.668  1.00  0.00    -0.355 OA
HETATM    5  C5  UNL     1      22.262  -0.652  52.939  1.00  0.00     0.342 C 
HETATM    6  N1  UNL     1      21.494   0.405  53.512  1.00  0.00    -0.166 NA
HETATM    7  N2  UNL     1      20.868   1.281  52.844  1.00  0.00    -0.147 NA
HETATM    8  C6  UNL     1      20.850   1.325  51.406  1.00  0.00     0.251 C 
HETATM    9  N3  UNL     1      21.475   1.533  50.269  1.00  0.00    -0.270 NA
HETATM   10  C7  UNL     1      22.890   1.913  50.387  1.00  0.00     0.149 C 
HETATM   11  C8  UNL     1      23.149   3.037  49.450  1.00  0.00     0.060 C 
HETATM   12  C9  UNL     1      22.551   4.324  49.802  1.00  0.00    -0.018 C 
HETATM   13  C10 UNL     1      22.662   5.187  50.824  1.00  0.00    -0.066 C 
HETATM   14  C11 UNL     1      21.876   6.472  50.885  1.00  0.00     0.048 C 
HETATM   15  C12 UNL     1      23.557   4.962  51.974  1.00  0.00     0.008 C 
HETATM   16  C13 UNL     1      23.903   3.838  52.546  1.00  0.00     0.014 C 
HETATM   17  P1  UNL     1      23.395   2.162  52.116  1.00  0.00    -0.035 P 
HETATM   18  C14 UNL     1      24.386   0.852  52.856  1.00  0.00    -0.012 A 
HETATM   19  C15 UNL     1      25.578   0.811  52.229  1.00  0.00     0.047 A 
ENDROOT
BRANCH   1  20
HETATM   20  O1  UNL     1      27.626  -0.900  52.787  1.00  0.00    -0.356 OA
HETATM   21  C1  UNL     1      28.575  -0.497  53.780  1.00  0.00     0.210 C 
ENDBRANCH   1  20
TORSDOF 1
ENDMDL
MODEL 3
REMARK VINA RESULT:      -6.9      3.434      5.396
REMARK  1 active torsions:
REMARK  status: ('A' for Active; 'I' for Inactive)
REMARK    1  A    between atoms: O1_2  and  C2_3 
ROOT
HETATM    1  C2  UNL     1      25.147  -0.296  53.905  1.00  0.00     0.067 A 
HETATM    2  C3  UNL     1      26.278  -0.371  53.182  1.00  0.00     0.046 A 
HETATM    3  C4  UNL     1      26.182   0.495  51.937  1.00  0.00     0.183 A 
HETATM    4  O2  UNL     1      27.153   1.446  52.003  1.00  0.00    -0.355 OA
HETATM    5  C5  UNL     1      26.783   2.679  51.538  1.00  0.00     0.342 C 
HETATM    6  N1  UNL     1      26.382   2.755  50.171  1.00  0.00    -0.166 NA
HETATM    7  N2  UNL     1      25.542   3.586  49.714  1.00  0.00    -0.147 NA
HETATM    8  C6  UNL     1      24.876   4.572  50.522  1.00  0.00     0.251 C 
HETATM    9  N3  UNL     1      24.005   4.870  51.460  1.00  0.00    -0.270 NA
HETATM   10  C7  UNL     1      23.301   3.726  52.055  1.00  0.00     0.149 C 
HETATM   11  C8  UNL     1      21.860   4.073  52.165  1.00  0.00     0.060 C 
HETATM   12  C9  UNL     1      21.116   4.154  50.909  1.00  0.00    -0.018 C 
HETATM   13  C10 UNL     1      20.806   3.302  49.921  1.00  0.00    -0.066 C 
HETATM   14  C11 UNL     1      19.993   3.718  48.721  1.00  0.00     0.048 C 
HETATM   15  C12 UNL     1      21.227   1.889  49.914  1.00  0.00     0.008 C 
HETATM   16  C13 UNL     1      22.320   1.348  50.387  1.00  0.00     0.014 C 
HETATM   17  P1  UNL     1      23.699   2.161  51.219  1.00  0.00    -0.035 P 
HETATM   18  C14 UNL     1      24.824   1.054  52.088  1.00  0.00    -0.012 A 
HETATM   19  C15 UNL     1      24.214   0.616  53.205  1.00  0.00     0.047 A 
ENDROOT
BRANCH   1  20
HETATM   20  O1  UNL     1      25.270  -1.102  55.042  1.00  0.00    -0.356 OA
HETATM   21  C1  UNL     1      24.051  -1.373  55.740  1.00  0.00     0.210 C 
ENDBRANCH   1  20
TORSDOF 1
ENDMDL
MODEL 4
REMARK VINA RESULT:      -6.7      2.886      4.253
REMARK  1 active torsions:
REMARK  status: ('A' for Active; 'I' for Inactive)
REMARK    1  A    between atoms: O1_2  and  C2_3 
ROOT
HETATM    1  C2  UNL     1      24.287   5.575  50.733  1.00  0.00     0.067 A 
HETATM    2  C3  UNL     1      24.523   5.252  49.450  1.00  0.00     0.046 A 
HETATM    3  C4  UNL     1      23.983   3.866  49.133  1.00  0.00     0.183 A 
HETATM    4  O2  UNL     1      23.036   3.989  48.165  1.00  0.00    -0.355 OA
HETATM    5  C5  UNL     1      21.954   3.162  48.311  1.00  0.00     0.342 C 
HETATM    6  N1  UNL     1      22.214   1.759  48.300  1.00  0.00    -0.166 NA
HETATM    7  N2  UNL     1      21.525   0.897  48.923  1.00  0.00    -0.147 NA
HETATM    8  C6  UNL     1      20.380   1.222  49.729  1.00  0.00     0.251 C 
HETATM    9  N3  UNL     1      19.873   1.770  50.812  1.00  0.00    -0.270 NA
HETATM   10  C7  UNL     1      20.847   2.383  51.725  1.00  0.00     0.149 C 
HETATM   11  C8  UNL     1      20.497   1.985  53.113  1.00  0.00     0.060 C 
HETATM   12  C9  UNL     1      20.728   0.584  53.462  1.00  0.00    -0.018 C 
HETATM   13  C10 UNL     1      21.796  -0.225  53.530  1.00  0.00    -0.066 C 
HETATM   14  C11 UNL     1      21.689  -1.671  53.940  1.00  0.00     0.048 C 
HETATM   15  C12 UNL     1      23.165   0.221  53.211  1.00  0.00     0.008 C 
HETATM   16  C13 UNL     1      23.566   1.104  52.334  1.00  0.00     0.014 C 
HETATM   17  P1  UNL     1      22.563   2.089  51.201  1.00  0.00    -0.035 P 
HETATM   18  C14 UNL     1      23.418   3.480  50.441  1.00  0.00    -0.012 A 
HETATM   19  C15 UNL     1      23.580   4.442  51.370  1.00  0.00     0.047 A 
ENDROOT
BRANCH   1  20
HETATM   20  O1  UNL     1      24.794   6.853  50.988  1.00  0.00    -0.356 OA
HETATM   21  C1  UNL     1      23.952   7.941  50.592  1.00  0.00     0.210 C 
ENDBRANCH   1  20
TORSDOF 1
ENDMDL
MODEL 5
REMARK VINA RESULT:      -6.6      2.498      3.651
REMARK  1 active torsions:
REMARK  status: ('A' for Active; 'I' for Inactive)
REMARK    1  A    between atoms: O1_2  and  C2_3 
ROOT
HETATM    1  C2  UNL     1      25.025   7.469  49.779  1.00  0.00     0.067 A 
HETATM    2  C3  UNL     1      24.460   7.272  48.575  1.00  0.00     0.046 A 
HETATM    3  C4  UNL     1      24.111   5.806  48.374  1.00  0.00     0.183 A 
HETATM    4  O2  UNL     1      22.765   5.707  48.209  1.00  0.00    -0.355 OA
HETATM    5  C5  UNL     1      22.191   4.615  48.802  1.00  0.00     0.342 C 
HETATM    6  N1  UNL     1      22.642   3.335  48.360  1.00  0.00    -0.166 NA
HETATM    7  N2  UNL     1      22.671   2.295  49.083  1.00  0.00    -0.147 NA
HETATM    8  C6  UNL     1      22.250   2.267  50.458  1.00  0.00     0.251 C 
HETATM    9  N3  UNL     1      22.442   2.614  51.711  1.00  0.00    -0.270 NA
HETATM   10  C7  UNL     1      23.638   3.431  51.963  1.00  0.00     0.149 C 
HETATM   11  C8  UNL     1      24.318   2.898  53.173  1.00  0.00     0.060 C 
HETATM   12  C9  UNL     1      24.971   1.598  53.028  1.00  0.00    -0.018 C 
HETATM   13  C10 UNL     1      25.972   1.105  52.283  1.00  0.00    -0.066 C 
HETATM   14  C11 UNL     1      26.418  -0.332  52.378  1.00  0.00     0.048 C 
HETATM   15  C12 UNL     1      26.726   1.916  51.309  1.00  0.00     0.008 C 
HETATM   16  C13 UNL     1      26.314   2.908  50.563  1.00  0.00     0.014 C 
HETATM   17  P1  UNL     1      24.663   3.631  50.475  1.00  0.00    -0.035 P 
HETATM   18  C14 UNL     1      24.574   5.230  49.652  1.00  0.00    -0.012 A 
HETATM   19  C15 UNL     1      25.100   6.162  50.469  1.00  0.00     0.047 A 
ENDROOT
BRANCH   1  20
HETATM   20  O1  UNL     1      25.332   8.825  49.929  1.00  0.00    -0.356 OA
HETATM   21  C1  UNL     1      26.718   9.126  50.121  1.00  0.00     0.210 C 
ENDBRANCH   1  20
TORSDOF 1
ENDMDL
MODEL 6
REMARK VINA RESULT:      -6.5      3.285      4.135
REMARK  1 active torsions:
REMARK  status: ('A' for Active; 'I' for Inactive)
REMARK    1  A    between atoms: O1_2  and  C2_3 
ROOT
HETATM    1  C2  UNL     1      22.082   3.364  46.866  1.00  0.00     0.067 A 
HETATM    2  C3  UNL     1      21.358   4.464  47.136  1.00  0.00     0.046 A 
HETATM    3  C4  UNL     1      21.150   4.620  48.634  1.00  0.00     0.183 A 
HETATM    4  O2  UNL     1      21.722   5.791  49.024  1.00  0.00    -0.355 OA
HETATM    5  C5  UNL     1      22.350   5.747  50.240  1.00  0.00     0.342 C 
HETATM    6  N1  UNL     1      21.541   5.418  51.368  1.00  0.00    -0.166 NA
HETATM    7  N2  UNL     1      21.960   4.819  52.403  1.00  0.00    -0.147 NA
HETATM    8  C6  UNL     1      23.321   4.389  52.579  1.00  0.00     0.251 C 
HETATM    9  N3  UNL     1      24.310   3.589  52.247  1.00  0.00    -0.270 NA
HETATM   10  C7  UNL     1      24.004   2.610  51.195  1.00  0.00     0.149 C 
HETATM   11  C8  UNL     1      24.556   1.294  51.610  1.00  0.00     0.060 C 
HETATM   12  C9  UNL     1      23.880   0.630  52.724  1.00  0.00    -0.018 C 
HETATM   13  C10 UNL     1      22.647   0.153  52.951  1.00  0.00    -0.066 C 
HETATM   14  C11 UNL     1      22.261  -0.498  54.255  1.00  0.00     0.048 C 
HETATM   15  C12 UNL     1      21.562   0.217  51.955  1.00  0.00     0.008 C 
HETATM   16  C13 UNL     1      21.322   1.131  51.050  1.00  0.00     0.014 C 
HETATM   17  P1  UNL     1      22.251   2.641  50.712  1.00  0.00    -0.035 P 
HETATM   18  C14 UNL     1      21.868   3.435  49.142  1.00  0.00    -0.012 A 
HETATM   19  C15 UNL     1      22.409   2.703  48.149  1.00  0.00     0.047 A 
ENDROOT
BRANCH   1  20
HETATM   20  O1  UNL     1      22.255   3.253  45.482  1.00  0.00    -0.356 OA
HETATM   21  C1  UNL     1      21.331   4.001  44.684  1.00  0.00     0.210 C 
ENDBRANCH   1  20
TORSDOF 1
ENDMDL
MODEL 7
REMARK VINA RESULT:      -6.4      3.317      5.958
REMARK  1 active torsions:
REMARK  status: ('A' for Active; 'I' for Inactive)
REMARK    1  A    between atoms: O1_2  and  C2_3 
ROOT
HETATM    1  C2  UNL     1      22.186   0.408  53.465  1.00  0.00     0.067 A 
HETATM    2  C3  UNL     1      23.454  -0.034  53.526  1.00  0.00     0.046 A 
HETATM    3  C4  UNL     1      24.293   0.573  52.412  1.00  0.00     0.183 A 
HETATM    4  O2  UNL     1      25.291   1.302  52.979  1.00  0.00    -0.355 OA
HETATM    5  C5  UNL     1      25.591   2.469  52.328  1.00  0.00     0.342 C 
HETATM    6  N1  UNL     1      26.033   2.354  50.977  1.00  0.00    -0.166 NA
HETATM    7  N2  UNL     1      25.844   3.231  50.082  1.00  0.00    -0.147 NA
HETATM    8  C6  UNL     1      25.151   4.470  50.314  1.00  0.00     0.251 C 
HETATM    9  N3  UNL     1      24.034   5.115  50.567  1.00  0.00    -0.270 NA
HETATM   10  C7  UNL     1      22.836   4.275  50.703  1.00  0.00     0.149 C 
HETATM   11  C8  UNL     1      21.729   4.919  49.950  1.00  0.00     0.060 C 
HETATM   12  C9  UNL     1      21.841   4.900  48.492  1.00  0.00    -0.018 C 
HETATM   13  C10 UNL     1      21.893   3.951  47.546  1.00  0.00    -0.066 C 
HETATM   14  C11 UNL     1      22.012   4.278  46.080  1.00  0.00     0.048 C 
HETATM   15  C12 UNL     1      21.840   2.509  47.849  1.00  0.00     0.008 C 
HETATM   16  C13 UNL     1      22.302   1.863  48.888  1.00  0.00     0.014 C 
HETATM   17  P1  UNL     1      23.172   2.529  50.322  1.00  0.00    -0.035 P 
HETATM   18  C14 UNL     1      23.288   1.411  51.730  1.00  0.00    -0.012 A 
HETATM   19  C15 UNL     1      22.077   1.333  52.314  1.00  0.00     0.047 A 
ENDROOT
BRANCH   1  20
HETATM   20  O1  UNL     1      21.446  -0.168  54.503  1.00  0.00    -0.356 OA
HETATM   21  C1  UNL     1      21.460  -1.598  54.549  1.00  0.00     0.210 C 
ENDBRANCH   1  20
TORSDOF 1
ENDMDL
MODEL 8
REMARK VINA RESULT:      -6.3      3.450      6.853
REMARK  1 active torsions:
REMARK  status: ('A' for Active; 'I' for Inactive)
REMARK    1  A    between atoms: O1_2  and  C2_3 
ROOT
HETATM    1  C2  UNL     1      19.019   1.582  51.439  1.00  0.00     0.067 A 
HETATM    2  C3  UNL     1      19.412   0.336  51.753  1.00  0.00     0.046 A 
HETATM    3  C4  UNL     1      20.929   0.235  51.773  1.00  0.00     0.183 A 
HETATM    4  O2  UNL     1      21.316  -0.110  53.030  1.00  0.00    -0.355 OA
HETATM    5  C5  UNL     1      22.461   0.501  53.468  1.00  0.00     0.342 C 
HETATM    6  N1  UNL     1      23.646   0.259  52.711  1.00  0.00    -0.166 NA
HETATM    7  N2  UNL     1      24.605   1.079  52.596  1.00  0.00    -0.147 NA
HETATM    8  C6  UNL     1      24.624   2.375  53.220  1.00  0.00     0.251 C 
HETATM    9  N3  UNL     1      24.159   3.602  53.303  1.00  0.00    -0.270 NA
HETATM   10  C7  UNL     1      23.096   3.940  52.346  1.00  0.00     0.149 C 
HETATM   11  C8  UNL     1      23.390   5.282  51.779  1.00  0.00     0.060 C 
HETATM   12  C9  UNL     1      24.533   5.364  50.870  1.00  0.00    -0.018 C 
HETATM   13  C10 UNL     1      24.857   4.823  49.685  1.00  0.00    -0.066 C 
HETATM   14  C11 UNL     1      26.160   5.125  48.990  1.00  0.00     0.048 C 
HETATM   15  C12 UNL     1      23.977   3.891  48.958  1.00  0.00     0.008 C 
HETATM   16  C13 UNL     1      23.146   2.998  49.429  1.00  0.00     0.014 C 
HETATM   17  P1  UNL     1      22.791   2.602  51.153  1.00  0.00    -0.035 P 
HETATM   18  C14 UNL     1      21.305   1.617  51.418  1.00  0.00    -0.012 A 
HETATM   19  C15 UNL     1      20.230   2.404  51.223  1.00  0.00     0.047 A 
ENDROOT
BRANCH   1  20
HETATM   20  O1  UNL     1      17.621   1.638  51.431  1.00  0.00    -0.356 OA
HETATM   21  C1  UNL     1      17.057   2.948  51.555  1.00  0.00     0.210 C 
ENDBRANCH   1  20
TORSDOF 1
ENDMDL
MODEL 9
REMARK VINA RESULT:      -6.2      3.725      5.522
REMARK  1 active torsions:
REMARK  status: ('A' for Active; 'I' for Inactive)
REMARK    1  A    between atoms: O1_2  and  C2_3 
ROOT
HETATM    1  C2  UNL     1      24.844   1.118  52.007  1.00  0.00     0.067 A 
HETATM    2  C3  UNL     1      24.060   0.766  53.040  1.00  0.00     0.046 A 
HETATM    3  C4  UNL     1      22.841   1.671  53.127  1.00  0.00     0.183 A 
HETATM    4  O2  UNL     1      21.729   0.903  52.969  1.00  0.00    -0.355 OA
HETATM    5  C5  UNL     1      20.727   1.485  52.238  1.00  0.00     0.342 C 
HETATM    6  N1  UNL     1      20.183   2.700  52.750  1.00  0.00    -0.166 NA
HETATM    7  N2  UNL     1      19.696   3.626  52.035  1.00  0.00    -0.147 NA
HETATM    8  C6  UNL     1      19.627   3.573  50.600  1.00  0.00     0.251 C 
HETATM    9  N3  UNL     1      20.233   3.586  49.434  1.00  0.00    -0.270 NA
HETATM   10  C7  UNL     1      21.697   3.713  49.484  1.00  0.00     0.149 C 
HETATM   11  C8  UNL     1      22.113   4.704  48.458  1.00  0.00     0.060 C 
HETATM   12  C9  UNL     1      21.767   6.099  48.729  1.00  0.00    -0.018 C 
HETATM   13  C10 UNL     1      22.071   6.997  49.679  1.00  0.00    -0.066 C 
HETATM   14  C11 UNL     1      21.528   8.403  49.665  1.00  0.00     0.048 C 
HETATM   15  C12 UNL     1      22.957   6.695  50.817  1.00  0.00     0.008 C 
HETATM   16  C13 UNL     1      23.122   5.569  51.463  1.00  0.00     0.014 C 
HETATM   17  P1  UNL     1      22.307   3.985  51.175  1.00  0.00    -0.035 P 
HETATM   18  C14 UNL     1      23.080   2.573  51.983  1.00  0.00    -0.012 A 
HETATM   19  C15 UNL     1      24.218   2.276  51.329  1.00  0.00     0.047 A 
ENDROOT
BRANCH   1  20
HETATM   20  O1  UNL     1      25.952   0.267  51.957  1.00  0.00    -0.356 OA
HETATM   21  C1  UNL     1      27.153   0.784  52.539  1.00  0.00     0.210 C 
ENDBRANCH   1  20
TORSDOF 1
ENDMDL
