MODEL 1
REMARK VINA RESULT:      -9.3      0.000      0.000
REMARK  6 active torsions:
REMARK  status: ('A' for Active; 'I' for Inactive)
REMARK    1  A    between atoms: C5_7  and  C6_8 
REMARK    2  A    between atoms: C6_8  and  C7_9 
REMARK    3  A    between atoms: C7_9  and  O2_10 
REMARK    4  A    between atoms: O2_10  and  C8_11 
REMARK    5  A    between atoms: C11_14  and  N2_15 
REMARK    6  A    between atoms: N2_15  and  C12_16 
ROOT
HETATM    1  C8  UNL     1      26.688   2.498  51.601  1.00  0.00     0.051 C 
HETATM    2  C9  UNL     1      25.695   2.562  52.535  1.00  0.00     0.036 C 
HETATM    3  C10 UNL     1      24.218   2.690  52.540  1.00  0.00     0.053 C 
HETATM    4  C11 UNL     1      23.190   2.816  51.714  1.00  0.00     0.127 C 
HETATM    5  N3  UNL     1      22.412   2.966  50.493  1.00  0.00    -0.246 NA
HETATM    6  C18 UNL     1      23.017   3.560  49.447  1.00  0.00     0.113 C 
HETATM    7  C19 UNL     1      24.357   3.880  49.901  1.00  0.00     0.194 C 
HETATM    8  N4  UNL     1      25.419   4.465  49.305  1.00  0.00    -0.300 NA
HETATM    9  C20 UNL     1      26.549   3.794  49.424  1.00  0.00     0.090 C 
HETATM   10  C21 UNL     1      26.590   2.507  50.162  1.00  0.00     0.111 C 
ENDROOT
BRANCH   1  11
HETATM   11  O2  UNL     1      27.909   2.394  52.257  1.00  0.00    -0.355 OA
BRANCH  11  12
HETATM   12  C7  UNL     1      27.973   2.424  53.648  1.00  0.00     0.177 C 
BRANCH  12  13
HETATM   13  C6  UNL     1      28.973   1.398  54.187  1.00  0.00     0.065 C 
BRANCH  13  14
HETATM   14  C5  UNL     1      28.169   0.163  54.584  1.00  0.00     0.251 C 
HETATM   15  C2  UNL     1      28.170  -0.775  53.396  1.00  0.00     0.150 C 
HETATM   16  C1  UNL     1      29.500  -1.504  53.376  1.00  0.00     0.042 C 
HETATM   17  O1  UNL     1      27.149  -1.699  53.413  1.00  0.00    -0.382 OA
HETATM   18  C3  UNL     1      25.952  -0.988  53.393  1.00  0.00     0.198 C 
HETATM   19  C4  UNL     1      25.810  -0.347  54.756  1.00  0.00     0.296 C 
HETATM   20  N1  UNL     1      26.871   0.607  54.982  1.00  0.00     0.092 N 
HETATM   21  H9  UNL     1      26.919   0.828  56.019  1.00  0.00     0.316 HD
ENDBRANCH  13  14
ENDBRANCH  12  13
ENDBRANCH  11  12
ENDBRANCH   1  11
BRANCH   4  22
HETATM   22  N2  UNL     1      21.871   2.897  52.321  1.00  0.00    -0.341 N 
HETATM   23  H17 UNL     1      21.044   3.462  52.594  1.00  0.00     0.167 HD
BRANCH  22  24
HETATM   24  C12 UNL     1      21.517   1.579  52.794  1.00  0.00     0.035 A 
HETATM   25  C13 UNL     1      22.491   0.796  53.387  1.00  0.00     0.032 A 
HETATM   26  C14 UNL     1      22.135  -0.481  53.840  1.00  0.00     0.046 A 
HETATM   27  C15 UNL     1      20.848  -0.948  53.700  1.00  0.00     0.138 A 
HETATM   28  F1  UNL     1      20.561  -2.194  54.160  1.00  0.00    -0.204 F 
HETATM   29  C16 UNL     1      19.876  -0.173  53.112  1.00  0.00     0.074 A 
HETATM   30 CL1  UNL     1      18.229  -0.740  52.922  1.00  0.00    -0.081 Cl
HETATM   31  C17 UNL     1      20.236   1.099  52.662  1.00  0.00     0.056 A 
ENDBRANCH  22  24
ENDBRANCH   4  22
TORSDOF 6
ENDMDL
MODEL 2
REMARK VINA RESULT:      -8.5      3.734      5.647
REMARK  6 active torsions:
REMARK  status: ('A' for Active; 'I' for Inactive)
REMARK    1  A    between atoms: C5_7  and  C6_8 
REMARK    2  A    between atoms: C6_8  and  C7_9 
REMARK    3  A    between atoms: C7_9  and  O2_10 
REMARK    4  A    between atoms: O2_10  and  C8_11 
REMARK    5  A    between atoms: C11_14  and  N2_15 
REMARK    6  A    between atoms: N2_15  and  C12_16 
ROOT
HETATM    1  C8  UNL     1      23.211   0.799  53.088  1.00  0.00     0.051 C 
HETATM    2  C9  UNL     1      23.854   2.000  53.006  1.00  0.00     0.036 C 
HETATM    3  C10 UNL     1      23.507   3.393  52.635  1.00  0.00     0.053 C 
HETATM    4  C11 UNL     1      22.487   4.124  52.209  1.00  0.00     0.127 C 
HETATM    5  N3  UNL     1      21.163   4.503  51.741  1.00  0.00    -0.246 NA
HETATM    6  C18 UNL     1      20.444   3.562  51.100  1.00  0.00     0.113 C 
HETATM    7  C19 UNL     1      21.279   2.376  51.084  1.00  0.00     0.194 C 
HETATM    8  N4  UNL     1      21.100   1.128  50.600  1.00  0.00    -0.300 NA
HETATM    9  C20 UNL     1      21.369   0.165  51.461  1.00  0.00     0.090 C 
HETATM   10  C21 UNL     1      21.825   0.486  52.836  1.00  0.00     0.111 C 
ENDROOT
BRANCH   1  11
HETATM   11  O2  UNL     1      24.123  -0.167  53.497  1.00  0.00    -0.355 OA
BRANCH  11  12
HETATM   12  C7  UNL     1      25.454   0.168  53.734  1.00  0.00     0.177 C 
BRANCH  12  13
HETATM   13  C6  UNL     1      26.409  -0.740  52.956  1.00  0.00     0.065 C 
BRANCH  13  14
HETATM   14  C5  UNL     1      27.693   0.056  52.735  1.00  0.00     0.251 C 
HETATM   15  C2  UNL     1      28.694  -0.408  53.771  1.00  0.00     0.150 C 
HETATM   16  C1  UNL     1      29.287  -1.720  53.294  1.00  0.00     0.042 C 
HETATM   17  O1  UNL     1      29.712   0.489  54.004  1.00  0.00    -0.382 OA
HETATM   18  C3  UNL     1      29.126   1.661  54.473  1.00  0.00     0.198 C 
HETATM   19  C4  UNL     1      28.423   2.294  53.292  1.00  0.00     0.296 C 
HETATM   20  N1  UNL     1      27.357   1.442  52.820  1.00  0.00     0.092 N 
HETATM   21  H9  UNL     1      27.072   1.756  51.846  1.00  0.00     0.316 HD
ENDBRANCH  13  14
ENDBRANCH  12  13
ENDBRANCH  11  12
ENDBRANCH   1  11
BRANCH   4  22
HETATM   22  N2  UNL     1      22.741   5.541  52.005  1.00  0.00    -0.341 N 
HETATM   23  H17 UNL     1      22.515   6.532  52.217  1.00  0.00     0.167 HD
BRANCH  22  24
HETATM   24  C12 UNL     1      23.805   5.667  51.035  1.00  0.00     0.035 A 
HETATM   25  C13 UNL     1      23.996   4.653  50.114  1.00  0.00     0.032 A 
HETATM   26  C14 UNL     1      25.032   4.787  49.181  1.00  0.00     0.046 A 
HETATM   27  C15 UNL     1      25.843   5.899  49.178  1.00  0.00     0.138 A 
HETATM   28  F1  UNL     1      26.831   5.974  48.248  1.00  0.00    -0.204 F 
HETATM   29  C16 UNL     1      25.657   6.910  50.092  1.00  0.00     0.074 A 
HETATM   30 CL1  UNL     1      26.672   8.338  50.112  1.00  0.00    -0.081 Cl
HETATM   31  C17 UNL     1      24.623   6.772  51.020  1.00  0.00     0.056 A 
ENDBRANCH  22  24
ENDBRANCH   4  22
TORSDOF 6
ENDMDL
MODEL 3
REMARK VINA RESULT:      -8.5      4.425      7.419
REMARK  6 active torsions:
REMARK  status: ('A' for Active; 'I' for Inactive)
REMARK    1  A    between atoms: C5_7  and  C6_8 
REMARK    2  A    between atoms: C6_8  and  C7_9 
REMARK    3  A    between atoms: C7_9  and  O2_10 
REMARK    4  A    between atoms: O2_10  and  C8_11 
REMARK    5  A    between atoms: C11_14  and  N2_15 
REMARK    6  A    between atoms: N2_15  and  C12_16 
ROOT
HETATM    1  C8  UNL     1      25.593   4.810  49.273  1.00  0.00     0.051 C 
HETATM    2  C9  UNL     1      26.168   3.676  49.771  1.00  0.00     0.036 C 
HETATM    3  C10 UNL     1      25.771   2.562  50.665  1.00  0.00     0.053 C 
HETATM    4  C11 UNL     1      24.750   2.138  51.395  1.00  0.00     0.127 C 
HETATM    5  N3  UNL     1      23.451   2.081  52.047  1.00  0.00    -0.246 NA
HETATM    6  C18 UNL     1      22.847   3.253  52.320  1.00  0.00     0.113 C 
HETATM    7  C19 UNL     1      23.749   4.280  51.834  1.00  0.00     0.194 C 
HETATM    8  N4  UNL     1      23.688   5.629  51.815  1.00  0.00    -0.300 NA
HETATM    9  C20 UNL     1      23.939   6.169  50.637  1.00  0.00     0.090 C 
HETATM   10  C21 UNL     1      24.255   5.315  49.465  1.00  0.00     0.111 C 
ENDROOT
BRANCH   1  11
HETATM   11  O2  UNL     1      26.522   5.467  48.475  1.00  0.00    -0.355 OA
BRANCH  11  12
HETATM   12  C7  UNL     1      27.862   5.087  48.487  1.00  0.00     0.177 C 
BRANCH  12  13
HETATM   13  C6  UNL     1      28.785   6.273  48.196  1.00  0.00     0.065 C 
BRANCH  13  14
HETATM   14  C5  UNL     1      27.920   7.529  48.255  1.00  0.00     0.251 C 
HETATM   15  C2  UNL     1      28.627   8.600  47.452  1.00  0.00     0.150 C 
HETATM   16  C1  UNL     1      28.355   8.340  45.983  1.00  0.00     0.042 C 
HETATM   17  O1  UNL     1      28.234   9.883  47.763  1.00  0.00    -0.382 OA
HETATM   18  C3  UNL     1      28.536  10.089  49.107  1.00  0.00     0.198 C 
HETATM   19  C4  UNL     1      27.548   9.263  49.901  1.00  0.00     0.296 C 
HETATM   20  N1  UNL     1      27.731   7.855  49.633  1.00  0.00     0.092 N 
HETATM   21  H9  UNL     1      26.872   7.328  49.965  1.00  0.00     0.316 HD
ENDBRANCH  13  14
ENDBRANCH  12  13
ENDBRANCH  11  12
ENDBRANCH   1  11
BRANCH   4  22
HETATM   22  N2  UNL     1      24.936   0.885  52.110  1.00  0.00    -0.341 N 
HETATM   23  H17 UNL     1      24.566  -0.036  52.415  1.00  0.00     0.167 HD
BRANCH  22  24
HETATM   24  C12 UNL     1      26.250   0.906  52.709  1.00  0.00     0.035 A 
HETATM   25  C13 UNL     1      26.706   2.077  53.285  1.00  0.00     0.032 A 
HETATM   26  C14 UNL     1      27.983   2.084  53.861  1.00  0.00     0.046 A 
HETATM   27  C15 UNL     1      28.768   0.952  53.855  1.00  0.00     0.138 A 
HETATM   28  F1  UNL     1      29.998   1.018  54.430  1.00  0.00    -0.204 F 
HETATM   29  C16 UNL     1      28.318  -0.215  53.283  1.00  0.00     0.074 A 
HETATM   30 CL1  UNL     1      29.294  -1.670  53.262  1.00  0.00    -0.081 Cl
HETATM   31  C17 UNL     1      27.045  -0.216  52.711  1.00  0.00     0.056 A 
ENDBRANCH  22  24
ENDBRANCH   4  22
TORSDOF 6
ENDMDL
MODEL 4
REMARK VINA RESULT:      -8.4      4.485      6.924
REMARK  6 active torsions:
REMARK  status: ('A' for Active; 'I' for Inactive)
REMARK    1  A    between atoms: C5_7  and  C6_8 
REMARK    2  A    between atoms: C6_8  and  C7_9 
REMARK    3  A    between atoms: C7_9  and  O2_10 
REMARK    4  A    between atoms: O2_10  and  C8_11 
REMARK    5  A    between atoms: C11_14  and  N2_15 
REMARK    6  A    between atoms: N2_15  and  C12_16 
ROOT
HETATM    1  C8  UNL     1      26.539   5.061  48.960  1.00  0.00     0.051 C 
HETATM    2  C9  UNL     1      26.678   3.817  49.506  1.00  0.00     0.036 C 
HETATM    3  C10 UNL     1      25.823   2.853  50.239  1.00  0.00     0.053 C 
HETATM    4  C11 UNL     1      24.596   2.720  50.719  1.00  0.00     0.127 C 
HETATM    5  N3  UNL     1      23.219   3.015  51.086  1.00  0.00    -0.246 NA
HETATM    6  C18 UNL     1      22.900   4.307  51.289  1.00  0.00     0.113 C 
HETATM    7  C19 UNL     1      24.121   5.053  51.055  1.00  0.00     0.194 C 
HETATM    8  N4  UNL     1      24.420   6.370  51.094  1.00  0.00    -0.300 NA
HETATM    9  C20 UNL     1      25.048   6.818  50.024  1.00  0.00     0.090 C 
HETATM   10  C21 UNL     1      25.371   5.906  48.898  1.00  0.00     0.111 C 
ENDROOT
BRANCH   1  11
HETATM   11  O2  UNL     1      27.756   5.442  48.406  1.00  0.00    -0.355 OA
BRANCH  11  12
HETATM   12  C7  UNL     1      28.061   6.788  48.219  1.00  0.00     0.177 C 
BRANCH  12  13
HETATM   13  C6  UNL     1      29.368   6.966  47.443  1.00  0.00     0.065 C 
BRANCH  13  14
HETATM   14  C5  UNL     1      30.452   7.277  48.472  1.00  0.00     0.251 C 
HETATM   15  C2  UNL     1      31.715   7.609  47.707  1.00  0.00     0.150 C 
HETATM   16  C1  UNL     1      31.604   9.041  47.218  1.00  0.00     0.042 C 
HETATM   17  O1  UNL     1      32.868   7.475  48.448  1.00  0.00    -0.382 OA
HETATM   18  C3  UNL     1      32.947   6.142  48.843  1.00  0.00     0.198 C 
HETATM   19  C4  UNL     1      31.879   5.941  49.896  1.00  0.00     0.296 C 
HETATM   20  N1  UNL     1      30.565   6.143  49.332  1.00  0.00     0.092 N 
HETATM   21  H9  UNL     1      29.869   6.277  50.122  1.00  0.00     0.316 HD
ENDBRANCH  13  14
ENDBRANCH  12  13
ENDBRANCH  11  12
ENDBRANCH   1  11
BRANCH   4  22
HETATM   22  N2  UNL     1      24.291   1.467  51.391  1.00  0.00    -0.341 N 
HETATM   23  H17 UNL     1      23.661   0.652  51.525  1.00  0.00     0.167 HD
BRANCH  22  24
HETATM   24  C12 UNL     1      25.341   1.208  52.349  1.00  0.00     0.035 A 
HETATM   25  C13 UNL     1      25.519   2.089  53.400  1.00  0.00     0.032 A 
HETATM   26  C14 UNL     1      26.542   1.827  54.322  1.00  0.00     0.046 A 
HETATM   27  C15 UNL     1      27.351   0.721  54.186  1.00  0.00     0.138 A 
HETATM   28  F1  UNL     1      28.326   0.519  55.111  1.00  0.00    -0.204 F 
HETATM   29  C16 UNL     1      27.177  -0.156  53.142  1.00  0.00     0.074 A 
HETATM   30 CL1  UNL     1      28.190  -1.572  52.945  1.00  0.00    -0.081 Cl
HETATM   31  C17 UNL     1      26.156   0.108  52.227  1.00  0.00     0.056 A 
ENDBRANCH  22  24
ENDBRANCH   4  22
TORSDOF 6
ENDMDL
MODEL 5
REMARK VINA RESULT:      -8.4      4.032      7.037
REMARK  6 active torsions:
REMARK  status: ('A' for Active; 'I' for Inactive)
REMARK    1  A    between atoms: C5_7  and  C6_8 
REMARK    2  A    between atoms: C6_8  and  C7_9 
REMARK    3  A    between atoms: C7_9  and  O2_10 
REMARK    4  A    between atoms: O2_10  and  C8_11 
REMARK    5  A    between atoms: C11_14  and  N2_15 
REMARK    6  A    between atoms: N2_15  and  C12_16 
ROOT
HETATM    1  C8  UNL     1      24.721   3.611  49.530  1.00  0.00     0.051 C 
HETATM    2  C9  UNL     1      25.325   3.204  50.685  1.00  0.00     0.036 C 
HETATM    3  C10 UNL     1      25.037   2.246  51.779  1.00  0.00     0.053 C 
HETATM    4  C11 UNL     1      24.116   1.380  52.177  1.00  0.00     0.127 C 
HETATM    5  N3  UNL     1      22.889   0.600  52.233  1.00  0.00    -0.246 NA
HETATM    6  C18 UNL     1      21.794   1.134  51.660  1.00  0.00     0.113 C 
HETATM    7  C19 UNL     1      22.218   2.412  51.122  1.00  0.00     0.194 C 
HETATM    8  N4  UNL     1      21.577   3.384  50.436  1.00  0.00    -0.300 NA
HETATM    9  C20 UNL     1      22.195   3.775  49.338  1.00  0.00     0.090 C 
HETATM   10  C21 UNL     1      23.486   3.160  48.937  1.00  0.00     0.111 C 
ENDROOT
BRANCH   1  11
HETATM   11  O2  UNL     1      25.516   4.583  48.932  1.00  0.00    -0.355 OA
BRANCH  11  12
HETATM   12  C7  UNL     1      26.783   4.870  49.433  1.00  0.00     0.177 C 
BRANCH  12  13
HETATM   13  C6  UNL     1      27.629   5.638  48.414  1.00  0.00     0.065 C 
BRANCH  13  14
HETATM   14  C5  UNL     1      27.153   7.087  48.447  1.00  0.00     0.251 C 
HETATM   15  C2  UNL     1      28.305   7.951  47.983  1.00  0.00     0.150 C 
HETATM   16  C1  UNL     1      28.362   7.881  46.469  1.00  0.00     0.042 C 
HETATM   17  O1  UNL     1      28.208   9.268  48.370  1.00  0.00    -0.382 OA
HETATM   18  C3  UNL     1      28.197   9.286  49.763  1.00  0.00     0.198 C 
HETATM   19  C4  UNL     1      26.852   8.739  50.189  1.00  0.00     0.296 C 
HETATM   20  N1  UNL     1      26.710   7.362  49.777  1.00  0.00     0.092 N 
HETATM   21  H9  UNL     1      25.684   7.093  49.829  1.00  0.00     0.316 HD
ENDBRANCH  13  14
ENDBRANCH  12  13
ENDBRANCH  11  12
ENDBRANCH   1  11
BRANCH   4  22
HETATM   22  N2  UNL     1      24.385   0.666  53.415  1.00  0.00    -0.341 N 
HETATM   23  H17 UNL     1      24.063   0.328  54.343  1.00  0.00     0.167 HD
BRANCH  22  24
HETATM   24  C12 UNL     1      25.752   0.201  53.373  1.00  0.00     0.035 A 
HETATM   25  C13 UNL     1      26.025  -1.027  52.798  1.00  0.00     0.032 A 
HETATM   26  C14 UNL     1      27.355  -1.466  52.765  1.00  0.00     0.046 A 
HETATM   27  C15 UNL     1      28.368  -0.697  53.291  1.00  0.00     0.138 A 
HETATM   28  F1  UNL     1      29.639  -1.175  53.229  1.00  0.00    -0.204 F 
HETATM   29  C16 UNL     1      28.101   0.524  53.864  1.00  0.00     0.074 A 
HETATM   30 CL1  UNL     1      29.369   1.526  54.541  1.00  0.00    -0.081 Cl
HETATM   31  C17 UNL     1      26.774   0.958  53.895  1.00  0.00     0.056 A 
ENDBRANCH  22  24
ENDBRANCH   4  22
TORSDOF 6
ENDMDL
MODEL 6
REMARK VINA RESULT:      -8.4      3.732      6.997
REMARK  6 active torsions:
REMARK  status: ('A' for Active; 'I' for Inactive)
REMARK    1  A    between atoms: C5_7  and  C6_8 
REMARK    2  A    between atoms: C6_8  and  C7_9 
REMARK    3  A    between atoms: C7_9  and  O2_10 
REMARK    4  A    between atoms: O2_10  and  C8_11 
REMARK    5  A    between atoms: C11_14  and  N2_15 
REMARK    6  A    between atoms: N2_15  and  C12_16 
ROOT
HETATM    1  C8  UNL     1      23.498   2.498  50.204  1.00  0.00     0.051 C 
HETATM    2  C9  UNL     1      24.366   2.337  51.245  1.00  0.00     0.036 C 
HETATM    3  C10 UNL     1      24.522   1.413  52.394  1.00  0.00     0.053 C 
HETATM    4  C11 UNL     1      23.939   0.370  52.966  1.00  0.00     0.127 C 
HETATM    5  N3  UNL     1      22.985  -0.692  53.252  1.00  0.00    -0.246 NA
HETATM    6  C18 UNL     1      21.711  -0.495  52.866  1.00  0.00     0.113 C 
HETATM    7  C19 UNL     1      21.691   0.810  52.233  1.00  0.00     0.194 C 
HETATM    8  N4  UNL     1      20.715   1.538  51.648  1.00  0.00    -0.300 NA
HETATM    9  C20 UNL     1      21.022   1.998  50.450  1.00  0.00     0.090 C 
HETATM   10  C21 UNL     1      22.346   1.707  49.845  1.00  0.00     0.111 C 
ENDROOT
BRANCH   1  11
HETATM   11  O2  UNL     1      23.902   3.597  49.454  1.00  0.00    -0.355 OA
BRANCH  11  12
HETATM   12  C7  UNL     1      24.005   4.856  50.040  1.00  0.00     0.177 C 
BRANCH  12  13
HETATM   13  C6  UNL     1      24.632   5.872  49.082  1.00  0.00     0.065 C 
BRANCH  13  14
HETATM   14  C5  UNL     1      26.108   5.977  49.456  1.00  0.00     0.251 C 
HETATM   15  C2  UNL     1      26.584   7.350  49.030  1.00  0.00     0.150 C 
HETATM   16  C1  UNL     1      26.127   8.349  50.076  1.00  0.00     0.042 C 
HETATM   17  O1  UNL     1      27.949   7.446  48.880  1.00  0.00    -0.382 OA
HETATM   18  C3  UNL     1      28.317   6.541  47.887  1.00  0.00     0.198 C 
HETATM   19  C4  UNL     1      28.170   5.161  48.488  1.00  0.00     0.296 C 
HETATM   20  N1  UNL     1      26.790   4.895  48.819  1.00  0.00     0.092 N 
HETATM   21  H9  UNL     1      26.749   4.066  49.481  1.00  0.00     0.316 HD
ENDBRANCH  13  14
ENDBRANCH  12  13
ENDBRANCH  11  12
ENDBRANCH   1  11
BRANCH   4  22
HETATM   22  N2  UNL     1      24.582  -0.167  54.154  1.00  0.00    -0.341 N 
HETATM   23  H17 UNL     1      24.519  -0.492  55.138  1.00  0.00     0.167 HD
BRANCH  22  24
HETATM   24  C12 UNL     1      25.989  -0.321  53.866  1.00  0.00     0.035 A 
HETATM   25  C13 UNL     1      26.402  -1.393  53.095  1.00  0.00     0.032 A 
HETATM   26  C14 UNL     1      27.770  -1.532  52.824  1.00  0.00     0.046 A 
HETATM   27  C15 UNL     1      28.684  -0.626  53.313  1.00  0.00     0.138 A 
HETATM   28  F1  UNL     1      29.997  -0.811  53.017  1.00  0.00    -0.204 F 
HETATM   29  C16 UNL     1      28.277   0.441  54.080  1.00  0.00     0.074 A 
HETATM   30 CL1  UNL     1      29.417   1.611  54.715  1.00  0.00    -0.081 Cl
HETATM   31  C17 UNL     1      26.914   0.576  54.347  1.00  0.00     0.056 A 
ENDBRANCH  22  24
ENDBRANCH   4  22
TORSDOF 6
ENDMDL
MODEL 7
REMARK VINA RESULT:      -8.1      2.329      5.356
REMARK  6 active torsions:
REMARK  status: ('A' for Active; 'I' for Inactive)
REMARK    1  A    between atoms: C5_7  and  C6_8 
REMARK    2  A    between atoms: C6_8  and  C7_9 
REMARK    3  A    between atoms: C7_9  and  O2_10 
REMARK    4  A    between atoms: O2_10  and  C8_11 
REMARK    5  A    between atoms: C11_14  and  N2_15 
REMARK    6  A    between atoms: N2_15  and  C12_16 
ROOT
HETATM    1  C8  UNL     1      26.815   2.376  51.930  1.00  0.00     0.051 C 
HETATM    2  C9  UNL     1      25.710   1.681  51.529  1.00  0.00     0.036 C 
HETATM    3  C10 UNL     1      24.776   0.695  52.123  1.00  0.00     0.053 C 
HETATM    4  C11 UNL     1      24.560   0.023  53.245  1.00  0.00     0.127 C 
HETATM    5  N3  UNL     1      24.722  -0.497  54.594  1.00  0.00    -0.246 NA
HETATM    6  C18 UNL     1      25.974  -0.553  55.085  1.00  0.00     0.113 C 
HETATM    7  C19 UNL     1      26.830  -0.032  54.035  1.00  0.00     0.194 C 
HETATM    8  N4  UNL     1      28.163   0.168  53.944  1.00  0.00    -0.300 NA
HETATM    9  C20 UNL     1      28.507   1.373  53.534  1.00  0.00     0.090 C 
HETATM   10  C21 UNL     1      27.471   2.388  53.215  1.00  0.00     0.111 C 
ENDROOT
BRANCH   1  11
HETATM   11  O2  UNL     1      27.259   3.155  50.867  1.00  0.00    -0.355 OA
BRANCH  11  12
HETATM   12  C7  UNL     1      26.548   3.195  49.670  1.00  0.00     0.177 C 
BRANCH  12  13
HETATM   13  C6  UNL     1      26.421   4.625  49.140  1.00  0.00     0.065 C 
BRANCH  13  14
HETATM   14  C5  UNL     1      24.977   5.057  49.380  1.00  0.00     0.251 C 
HETATM   15  C2  UNL     1      24.964   5.908  50.632  1.00  0.00     0.150 C 
HETATM   16  C1  UNL     1      25.441   7.299  50.258  1.00  0.00     0.042 C 
HETATM   17  O1  UNL     1      23.728   6.002  51.231  1.00  0.00    -0.382 OA
HETATM   18  C3  UNL     1      23.348   4.711  51.589  1.00  0.00     0.198 C 
HETATM   19  C4  UNL     1      23.012   3.989  50.303  1.00  0.00     0.296 C 
HETATM   20  N1  UNL     1      24.183   3.873  49.465  1.00  0.00     0.092 N 
HETATM   21  H9  UNL     1      23.877   3.628  48.479  1.00  0.00     0.316 HD
ENDBRANCH  13  14
ENDBRANCH  12  13
ENDBRANCH  11  12
ENDBRANCH   1  11
BRANCH   4  22
HETATM   22  N2  UNL     1      23.407  -0.863  53.262  1.00  0.00    -0.341 N 
HETATM   23  H17 UNL     1      23.007  -1.810  53.407  1.00  0.00     0.167 HD
BRANCH  22  24
HETATM   24  C12 UNL     1      22.245  -0.090  52.890  1.00  0.00     0.035 A 
HETATM   25  C13 UNL     1      21.420   0.401  53.886  1.00  0.00     0.032 A 
HETATM   26  C14 UNL     1      20.296   1.149  53.511  1.00  0.00     0.046 A 
HETATM   27  C15 UNL     1      20.016   1.390  52.185  1.00  0.00     0.138 A 
HETATM   28  F1  UNL     1      18.912   2.123  51.882  1.00  0.00    -0.204 F 
HETATM   29  C16 UNL     1      20.834   0.904  51.192  1.00  0.00     0.074 A 
HETATM   30 CL1  UNL     1      20.504   1.197  49.496  1.00  0.00    -0.081 Cl
HETATM   31  C17 UNL     1      21.953   0.160  51.570  1.00  0.00     0.056 A 
ENDBRANCH  22  24
ENDBRANCH   4  22
TORSDOF 6
ENDMDL
MODEL 8
REMARK VINA RESULT:      -8.1      5.257      7.891
REMARK  6 active torsions:
REMARK  status: ('A' for Active; 'I' for Inactive)
REMARK    1  A    between atoms: C5_7  and  C6_8 
REMARK    2  A    between atoms: C6_8  and  C7_9 
REMARK    3  A    between atoms: C7_9  and  O2_10 
REMARK    4  A    between atoms: O2_10  and  C8_11 
REMARK    5  A    between atoms: C11_14  and  N2_15 
REMARK    6  A    between atoms: N2_15  and  C12_16 
ROOT
HETATM    1  C8  UNL     1      25.739   3.855  50.284  1.00  0.00     0.051 C 
HETATM    2  C9  UNL     1      26.756   4.231  49.455  1.00  0.00     0.036 C 
HETATM    3  C10 UNL     1      27.097   5.411  48.624  1.00  0.00     0.053 C 
HETATM    4  C11 UNL     1      26.625   6.597  48.273  1.00  0.00     0.127 C 
HETATM    5  N3  UNL     1      25.744   7.749  48.147  1.00  0.00    -0.246 NA
HETATM    6  C18 UNL     1      24.423   7.531  48.285  1.00  0.00     0.113 C 
HETATM    7  C19 UNL     1      24.285   6.110  48.541  1.00  0.00     0.194 C 
HETATM    8  N4  UNL     1      23.220   5.312  48.771  1.00  0.00    -0.300 NA
HETATM    9  C20 UNL     1      23.336   4.540  49.835  1.00  0.00     0.090 C 
HETATM   10  C21 UNL     1      24.559   4.589  50.675  1.00  0.00     0.111 C 
ENDROOT
BRANCH   1  11
HETATM   11  O2  UNL     1      26.006   2.578  50.764  1.00  0.00    -0.355 OA
BRANCH  11  12
HETATM   12  C7  UNL     1      25.516   2.168  52.002  1.00  0.00     0.177 C 
BRANCH  12  13
HETATM   13  C6  UNL     1      25.643   0.653  52.183  1.00  0.00     0.065 C 
BRANCH  13  14
HETATM   14  C5  UNL     1      27.123   0.359  52.412  1.00  0.00     0.251 C 
HETATM   15  C2  UNL     1      27.207  -0.844  53.326  1.00  0.00     0.150 C 
HETATM   16  C1  UNL     1      26.969  -2.086  52.488  1.00  0.00     0.042 C 
HETATM   17  O1  UNL     1      28.412  -0.966  53.981  1.00  0.00    -0.382 OA
HETATM   18  C3  UNL     1      28.569   0.176  54.763  1.00  0.00     0.198 C 
HETATM   19  C4  UNL     1      28.851   1.316  53.809  1.00  0.00     0.296 C 
HETATM   20  N1  UNL     1      27.718   1.544  52.943  1.00  0.00     0.092 N 
HETATM   21  H9  UNL     1      28.031   2.135  52.118  1.00  0.00     0.316 HD
ENDBRANCH  13  14
ENDBRANCH  12  13
ENDBRANCH  11  12
ENDBRANCH   1  11
BRANCH   4  22
HETATM   22  N2  UNL     1      27.448   7.387  47.372  1.00  0.00    -0.341 N 
HETATM   23  H17 UNL     1      27.561   7.893  46.472  1.00  0.00     0.167 HD
BRANCH  22  24
HETATM   24  C12 UNL     1      28.746   7.553  47.985  1.00  0.00     0.035 A 
HETATM   25  C13 UNL     1      28.995   8.695  48.725  1.00  0.00     0.032 A 
HETATM   26  C14 UNL     1      30.258   8.844  49.314  1.00  0.00     0.046 A 
HETATM   27  C15 UNL     1      31.229   7.881  49.160  1.00  0.00     0.138 A 
HETATM   28  F1  UNL     1      32.435   8.080  49.755  1.00  0.00    -0.204 F 
HETATM   29  C16 UNL     1      30.985   6.744  48.425  1.00  0.00     0.074 A 
HETATM   30 CL1  UNL     1      32.201   5.501  48.214  1.00  0.00    -0.081 Cl
HETATM   31  C17 UNL     1      29.726   6.599  47.841  1.00  0.00     0.056 A 
ENDBRANCH  22  24
ENDBRANCH   4  22
TORSDOF 6
ENDMDL
MODEL 9
REMARK VINA RESULT:      -8.0      5.128      7.662
REMARK  6 active torsions:
REMARK  status: ('A' for Active; 'I' for Inactive)
REMARK    1  A    between atoms: C5_7  and  C6_8 
REMARK    2  A    between atoms: C6_8  and  C7_9 
REMARK    3  A    between atoms: C7_9  and  O2_10 
REMARK    4  A    between atoms: O2_10  and  C8_11 
REMARK    5  A    between atoms: C11_14  and  N2_15 
REMARK    6  A    between atoms: N2_15  and  C12_16 
ROOT
HETATM    1  C8  UNL     1      25.009   3.710  50.816  1.00  0.00     0.051 C 
HETATM    2  C9  UNL     1      25.852   3.982  49.776  1.00  0.00     0.036 C 
HETATM    3  C10 UNL     1      26.228   5.167  48.967  1.00  0.00     0.053 C 
HETATM    4  C11 UNL     1      25.952   6.455  48.834  1.00  0.00     0.127 C 
HETATM    5  N3  UNL     1      25.337   7.761  49.022  1.00  0.00    -0.246 NA
HETATM    6  C18 UNL     1      24.074   7.784  49.486  1.00  0.00     0.113 C 
HETATM    7  C19 UNL     1      23.699   6.395  49.672  1.00  0.00     0.194 C 
HETATM    8  N4  UNL     1      22.575   5.794  50.118  1.00  0.00    -0.300 NA
HETATM    9  C20 UNL     1      22.776   4.891  51.059  1.00  0.00     0.090 C 
HETATM   10  C21 UNL     1      24.147   4.604  51.551  1.00  0.00     0.111 C 
ENDROOT
BRANCH   1  11
HETATM   11  O2  UNL     1      25.103   2.357  51.121  1.00  0.00    -0.355 OA
BRANCH  11  12
HETATM   12  C7  UNL     1      24.327   1.803  52.136  1.00  0.00     0.177 C 
BRANCH  12  13
HETATM   13  C6  UNL     1      25.181   1.388  53.336  1.00  0.00     0.065 C 
BRANCH  13  14
HETATM   14  C5  UNL     1      26.630   1.358  52.856  1.00  0.00     0.251 C 
HETATM   15  C2  UNL     1      27.237   0.059  53.341  1.00  0.00     0.150 C 
HETATM   16  C1  UNL     1      26.782  -1.048  52.409  1.00  0.00     0.042 C 
HETATM   17  O1  UNL     1      28.613   0.070  53.390  1.00  0.00    -0.382 OA
HETATM   18  C3  UNL     1      28.983   1.072  54.283  1.00  0.00     0.198 C 
HETATM   19  C4  UNL     1      28.689   2.389  53.597  1.00  0.00     0.296 C 
HETATM   20  N1  UNL     1      27.272   2.531  53.357  1.00  0.00     0.092 N 
HETATM   21  H9  UNL     1      27.121   3.301  52.642  1.00  0.00     0.316 HD
ENDBRANCH  13  14
ENDBRANCH  12  13
ENDBRANCH  11  12
ENDBRANCH   1  11
BRANCH   4  22
HETATM   22  N2  UNL     1      26.683   7.176  47.804  1.00  0.00    -0.341 N 
HETATM   23  H17 UNL     1      26.689   7.684  46.898  1.00  0.00     0.167 HD
BRANCH  22  24
HETATM   24  C12 UNL     1      28.076   7.205  48.185  1.00  0.00     0.035 A 
HETATM   25  C13 UNL     1      28.831   6.053  48.053  1.00  0.00     0.032 A 
HETATM   26  C14 UNL     1      30.181   6.094  48.428  1.00  0.00     0.046 A 
HETATM   27  C15 UNL     1      30.745   7.252  48.915  1.00  0.00     0.138 A 
HETATM   28  F1  UNL     1      32.059   7.232  49.261  1.00  0.00    -0.204 F 
HETATM   29  C16 UNL     1      29.998   8.399  49.048  1.00  0.00     0.074 A 
HETATM   30 CL1  UNL     1      30.689   9.886  49.663  1.00  0.00    -0.081 Cl
HETATM   31  C17 UNL     1      28.654   8.353  48.673  1.00  0.00     0.056 A 
ENDBRANCH  22  24
ENDBRANCH   4  22
TORSDOF 6
ENDMDL
