MODEL 1
REMARK VINA RESULT:      -8.7      0.000      0.000
REMARK  3 active torsions:
REMARK  status: ('A' for Active; 'I' for Inactive)
REMARK    1  A    between atoms: C2_2  and  C3_3 
REMARK    2  A    between atoms: C2_2  and  N1_5 
REMARK    3  A    between atoms: N1_5  and  C4_6 
ROOT
HETATM    1  C4  UNL     1      24.830   1.709  52.569  1.00  0.00     0.040 C 
HETATM    2  C5  UNL     1      24.693   2.340  51.428  1.00  0.00     0.046 C 
HETATM    3  C6  UNL     1      25.248   3.363  50.581  1.00  0.00     0.030 A 
HETATM    4  C7  UNL     1      26.493   2.989  50.129  1.00  0.00     0.133 A 
HETATM    5  N2  UNL     1      27.344   3.673  49.312  1.00  0.00    -0.253 NA
HETATM    6  C8  UNL     1      26.849   4.883  48.921  1.00  0.00     0.234 A 
HETATM    7  N3  UNL     1      25.642   5.278  49.342  1.00  0.00    -0.224 NA
HETATM    8  C9  UNL     1      24.818   4.589  50.147  1.00  0.00     0.141 A 
HETATM    9  N4  UNL     1      23.626   5.391  50.340  1.00  0.00    -0.340 N 
HETATM   10  C10 UNL     1      22.428   4.708  50.671  1.00  0.00     0.034 A 
HETATM   11  C11 UNL     1      21.800   4.838  51.877  1.00  0.00     0.032 A 
HETATM   12  C12 UNL     1      20.715   4.025  52.132  1.00  0.00     0.032 A 
HETATM   13  C13 UNL     1      20.817   3.415  50.898  1.00  0.00     0.038 A 
HETATM   14  C14 UNL     1      21.142   2.975  49.605  1.00  0.00    -0.012 A 
HETATM   15  C15 UNL     1      22.168   3.883  49.614  1.00  0.00     0.040 A 
HETATM   16  C16 UNL     1      19.981   2.015  49.717  1.00  0.00     0.164 C 
HETATM   17  N5  UNL     1      20.190   2.103  51.117  1.00  0.00    -0.370 N 
HETATM   18  C17 UNL     1      19.973   1.272  52.289  1.00  0.00     0.182 C 
HETATM   19  C18 UNL     1      21.204   0.529  52.662  1.00  0.00     0.052 A 
HETATM   20  C19 UNL     1      22.435   1.118  52.546  1.00  0.00     0.042 A 
HETATM   21  C20 UNL     1      23.747   0.725  52.813  1.00  0.00    -0.006 A 
HETATM   22  C21 UNL     1      23.750  -0.553  53.299  1.00  0.00     0.033 A 
HETATM   23  C22 UNL     1      22.562  -1.228  53.450  1.00  0.00     0.118 A 
HETATM   24  N6  UNL     1      21.362  -0.714  53.148  1.00  0.00    -0.264 NA
HETATM   25  H10 UNL     1      23.542   6.410  50.270  1.00  0.00     0.167 HD
ENDROOT
BRANCH   1  26
HETATM   26  N1  UNL     1      25.882   1.989  53.478  1.00  0.00    -0.379 N 
HETATM   27  H6  UNL     1      25.353   2.826  53.809  1.00  0.00     0.160 HD
BRANCH  26  28
HETATM   28  C2  UNL     1      27.175   1.538  53.952  1.00  0.00     0.139 C 
HETATM   29  C1  UNL     1      28.288   2.405  53.395  1.00  0.00     0.039 C 
BRANCH  28  30
HETATM   30  C3  UNL     1      27.368   0.181  53.318  1.00  0.00     0.255 C 
HETATM   31  O1  UNL     1      27.210  -0.840  53.966  1.00  0.00    -0.305 OA
ENDBRANCH  28  30
ENDBRANCH  26  28
ENDBRANCH   1  26
TORSDOF 3
ENDMDL
MODEL 2
REMARK VINA RESULT:      -8.4      2.107      3.211
REMARK  3 active torsions:
REMARK  status: ('A' for Active; 'I' for Inactive)
REMARK    1  A    between atoms: C2_2  and  C3_3 
REMARK    2  A    between atoms: C2_2  and  N1_5 
REMARK    3  A    between atoms: N1_5  and  C4_6 
ROOT
HETATM    1  C4  UNL     1      24.935   3.349  50.827  1.00  0.00     0.040 C 
HETATM    2  C5  UNL     1      25.208   4.216  49.883  1.00  0.00     0.046 C 
HETATM    3  C6  UNL     1      26.216   5.105  49.365  1.00  0.00     0.030 A 
HETATM    4  C7  UNL     1      27.298   4.388  48.906  1.00  0.00     0.133 A 
HETATM    5  N2  UNL     1      28.452   4.852  48.346  1.00  0.00    -0.253 NA
HETATM    6  C8  UNL     1      28.488   6.213  48.253  1.00  0.00     0.234 A 
HETATM    7  N3  UNL     1      27.454   6.940  48.690  1.00  0.00    -0.224 NA
HETATM    8  C9  UNL     1      26.325   6.465  49.238  1.00  0.00     0.141 A 
HETATM    9  N4  UNL     1      25.485   7.600  49.561  1.00  0.00    -0.340 N 
HETATM   10  C10 UNL     1      24.086   7.377  49.633  1.00  0.00     0.034 A 
HETATM   11  C11 UNL     1      23.370   7.473  50.792  1.00  0.00     0.032 A 
HETATM   12  C12 UNL     1      22.040   7.105  50.762  1.00  0.00     0.032 A 
HETATM   13  C13 UNL     1      22.104   6.788  49.421  1.00  0.00     0.038 A 
HETATM   14  C14 UNL     1      22.444   6.549  48.079  1.00  0.00    -0.012 A 
HETATM   15  C15 UNL     1      23.713   6.967  48.384  1.00  0.00     0.040 A 
HETATM   16  C16 UNL     1      21.013   6.110  47.869  1.00  0.00     0.164 C 
HETATM   17  N5  UNL     1      21.024   5.804  49.255  1.00  0.00    -0.370 N 
HETATM   18  C17 UNL     1      20.347   4.888  50.156  1.00  0.00     0.182 C 
HETATM   19  C18 UNL     1      21.157   3.666  50.396  1.00  0.00     0.052 A 
HETATM   20  C19 UNL     1      22.520   3.746  50.510  1.00  0.00     0.042 A 
HETATM   21  C20 UNL     1      23.547   2.830  50.744  1.00  0.00    -0.006 A 
HETATM   22  C21 UNL     1      23.017   1.577  50.881  1.00  0.00     0.033 A 
HETATM   23  C22 UNL     1      21.659   1.396  50.782  1.00  0.00     0.118 A 
HETATM   24  N6  UNL     1      20.784   2.385  50.552  1.00  0.00    -0.264 NA
HETATM   25  H10 UNL     1      25.783   8.562  49.753  1.00  0.00     0.167 HD
ENDROOT
BRANCH   1  26
HETATM   26  N1  UNL     1      25.864   2.998  51.839  1.00  0.00    -0.379 N 
HETATM   27  H6  UNL     1      25.403   3.681  52.479  1.00  0.00     0.160 HD
BRANCH  26  28
HETATM   28  C2  UNL     1      27.003   2.155  52.145  1.00  0.00     0.139 C 
HETATM   29  C1  UNL     1      26.693   0.700  51.845  1.00  0.00     0.039 C 
BRANCH  28  30
HETATM   30  C3  UNL     1      27.149   2.232  53.646  1.00  0.00     0.255 C 
HETATM   31  O1  UNL     1      28.168   2.670  54.154  1.00  0.00    -0.305 OA
ENDBRANCH  28  30
ENDBRANCH  26  28
ENDBRANCH   1  26
TORSDOF 3
ENDMDL
MODEL 3
REMARK VINA RESULT:      -8.4      2.278      5.455
REMARK  3 active torsions:
REMARK  status: ('A' for Active; 'I' for Inactive)
REMARK    1  A    between atoms: C2_2  and  C3_3 
REMARK    2  A    between atoms: C2_2  and  N1_5 
REMARK    3  A    between atoms: N1_5  and  C4_6 
ROOT
HETATM    1  C4  UNL     1      22.428   1.116  51.502  1.00  0.00     0.040 C 
HETATM    2  C5  UNL     1      23.445   1.927  51.664  1.00  0.00     0.046 C 
HETATM    3  C6  UNL     1      24.301   2.879  51.003  1.00  0.00     0.030 A 
HETATM    4  C7  UNL     1      23.582   3.989  50.624  1.00  0.00     0.133 A 
HETATM    5  N2  UNL     1      24.019   5.107  49.976  1.00  0.00    -0.253 NA
HETATM    6  C8  UNL     1      25.352   5.068  49.688  1.00  0.00     0.234 A 
HETATM    7  N3  UNL     1      26.081   4.003  50.043  1.00  0.00    -0.224 NA
HETATM    8  C9  UNL     1      25.632   2.912  50.681  1.00  0.00     0.141 A 
HETATM    9  N4  UNL     1      26.759   2.018  50.862  1.00  0.00    -0.340 N 
HETATM   10  C10 UNL     1      26.692   1.094  51.936  1.00  0.00     0.034 A 
HETATM   11  C11 UNL     1      26.612  -0.258  51.758  1.00  0.00     0.032 A 
HETATM   12  C12 UNL     1      26.420  -1.046  52.874  1.00  0.00     0.032 A 
HETATM   13  C13 UNL     1      26.403   0.051  53.710  1.00  0.00     0.038 A 
HETATM   14  C14 UNL     1      26.431   1.317  54.319  1.00  0.00    -0.012 A 
HETATM   15  C15 UNL     1      26.617   1.851  53.071  1.00  0.00     0.040 A 
HETATM   16  C16 UNL     1      26.222   0.609  55.637  1.00  0.00     0.164 C 
HETATM   17  N5  UNL     1      25.616  -0.414  54.862  1.00  0.00    -0.370 N 
HETATM   18  C17 UNL     1      24.609  -1.444  55.045  1.00  0.00     0.182 C 
HETATM   19  C18 UNL     1      23.277  -0.992  54.566  1.00  0.00     0.052 A 
HETATM   20  C19 UNL     1      23.169  -0.219  53.441  1.00  0.00     0.042 A 
HETATM   21  C20 UNL     1      22.109   0.347  52.731  1.00  0.00    -0.006 A 
HETATM   22  C21 UNL     1      20.928   0.027  53.342  1.00  0.00     0.033 A 
HETATM   23  C22 UNL     1      20.936  -0.744  54.478  1.00  0.00     0.118 A 
HETATM   24  N6  UNL     1      22.047  -1.223  55.054  1.00  0.00    -0.264 NA
HETATM   25  H10 UNL     1      27.611   1.968  50.295  1.00  0.00     0.167 HD
ENDROOT
BRANCH   1  26
HETATM   26  N1  UNL     1      21.754   0.970  50.264  1.00  0.00    -0.379 N 
HETATM   27  H6  UNL     1      22.436   0.227  49.996  1.00  0.00     0.160 HD
BRANCH  26  28
HETATM   28  C2  UNL     1      20.645   1.455  49.467  1.00  0.00     0.139 C 
HETATM   29  C1  UNL     1      21.145   2.183  48.232  1.00  0.00     0.039 C 
BRANCH  28  30
HETATM   30  C3  UNL     1      19.990   2.515  50.319  1.00  0.00     0.255 C 
HETATM   31  O1  UNL     1      20.121   3.699  50.056  1.00  0.00    -0.305 OA
ENDBRANCH  28  30
ENDBRANCH  26  28
ENDBRANCH   1  26
TORSDOF 3
ENDMDL
MODEL 4
REMARK VINA RESULT:      -8.1      2.180      4.228
REMARK  3 active torsions:
REMARK  status: ('A' for Active; 'I' for Inactive)
REMARK    1  A    between atoms: C2_2  and  C3_3 
REMARK    2  A    between atoms: C2_2  and  N1_5 
REMARK    3  A    between atoms: N1_5  and  C4_6 
ROOT
HETATM    1  C4  UNL     1      21.918   0.763  52.638  1.00  0.00     0.040 C 
HETATM    2  C5  UNL     1      23.067   0.997  52.052  1.00  0.00     0.046 C 
HETATM    3  C6  UNL     1      24.491   1.071  52.253  1.00  0.00     0.030 A 
HETATM    4  C7  UNL     1      24.997  -0.171  52.565  1.00  0.00     0.133 A 
HETATM    5  N2  UNL     1      26.288  -0.523  52.829  1.00  0.00    -0.253 NA
HETATM    6  C8  UNL     1      27.152   0.532  52.763  1.00  0.00     0.234 A 
HETATM    7  N3  UNL     1      26.693   1.752  52.462  1.00  0.00    -0.224 NA
HETATM    8  C9  UNL     1      25.418   2.079  52.205  1.00  0.00     0.141 A 
HETATM    9  N4  UNL     1      25.379   3.502  51.930  1.00  0.00    -0.340 N 
HETATM   10  C10 UNL     1      24.312   3.981  51.128  1.00  0.00     0.034 A 
HETATM   11  C11 UNL     1      23.334   4.810  51.600  1.00  0.00     0.032 A 
HETATM   12  C12 UNL     1      22.277   5.104  50.763  1.00  0.00     0.032 A 
HETATM   13  C13 UNL     1      22.796   4.326  49.749  1.00  0.00     0.038 A 
HETATM   14  C14 UNL     1      23.540   3.486  48.903  1.00  0.00    -0.012 A 
HETATM   15  C15 UNL     1      24.450   3.361  49.919  1.00  0.00     0.040 A 
HETATM   16  C16 UNL     1      22.466   3.703  47.862  1.00  0.00     0.164 C 
HETATM   17  N5  UNL     1      21.609   3.957  48.964  1.00  0.00    -0.370 N 
HETATM   18  C17 UNL     1      20.193   3.851  49.268  1.00  0.00     0.182 C 
HETATM   19  C18 UNL     1      19.883   2.578  49.970  1.00  0.00     0.052 A 
HETATM   20  C19 UNL     1      20.751   2.066  50.898  1.00  0.00     0.042 A 
HETATM   21  C20 UNL     1      20.763   0.941  51.724  1.00  0.00    -0.006 A 
HETATM   22  C21 UNL     1      19.623   0.214  51.520  1.00  0.00     0.033 A 
HETATM   23  C22 UNL     1      18.692   0.648  50.609  1.00  0.00     0.118 A 
HETATM   24  N6  UNL     1      18.818   1.764  49.878  1.00  0.00    -0.264 NA
HETATM   25  H10 UNL     1      26.038   4.217  52.254  1.00  0.00     0.167 HD
ENDROOT
BRANCH   1  26
HETATM   26  N1  UNL     1      21.813   0.427  54.011  1.00  0.00    -0.379 N 
HETATM   27  H6  UNL     1      21.880   1.440  54.250  1.00  0.00     0.160 HD
BRANCH  26  28
HETATM   28  C2  UNL     1      21.671  -0.675  54.942  1.00  0.00     0.139 C 
HETATM   29  C1  UNL     1      23.030  -1.200  55.368  1.00  0.00     0.039 C 
BRANCH  28  30
HETATM   30  C3  UNL     1      21.048  -1.788  54.133  1.00  0.00     0.255 C 
HETATM   31  O1  UNL     1      19.841  -1.964  54.137  1.00  0.00    -0.305 OA
ENDBRANCH  28  30
ENDBRANCH  26  28
ENDBRANCH   1  26
TORSDOF 3
ENDMDL
MODEL 5
REMARK VINA RESULT:      -7.4      3.032      6.262
REMARK  3 active torsions:
REMARK  status: ('A' for Active; 'I' for Inactive)
REMARK    1  A    between atoms: C2_2  and  C3_3 
REMARK    2  A    between atoms: C2_2  and  N1_5 
REMARK    3  A    between atoms: N1_5  and  C4_6 
ROOT
HETATM    1  C4  UNL     1      19.695   0.542  51.946  1.00  0.00     0.040 C 
HETATM    2  C5  UNL     1      19.793   1.842  51.817  1.00  0.00     0.046 C 
HETATM    3  C6  UNL     1      19.274   2.994  51.125  1.00  0.00     0.030 A 
HETATM    4  C7  UNL     1      17.960   3.211  51.473  1.00  0.00     0.133 A 
HETATM    5  N2  UNL     1      17.115   4.190  51.041  1.00  0.00    -0.253 NA
HETATM    6  C8  UNL     1      17.698   5.040  50.146  1.00  0.00     0.234 A 
HETATM    7  N3  UNL     1      18.973   4.858  49.787  1.00  0.00    -0.224 NA
HETATM    8  C9  UNL     1      19.790   3.887  50.224  1.00  0.00     0.141 A 
HETATM    9  N4  UNL     1      21.073   4.072  49.575  1.00  0.00    -0.340 N 
HETATM   10  C10 UNL     1      22.217   3.556  50.236  1.00  0.00     0.034 A 
HETATM   11  C11 UNL     1      22.964   2.523  49.745  1.00  0.00     0.032 A 
HETATM   12  C12 UNL     1      23.975   2.021  50.539  1.00  0.00     0.032 A 
HETATM   13  C13 UNL     1      23.696   2.918  51.550  1.00  0.00     0.038 A 
HETATM   14  C14 UNL     1      23.208   3.925  52.398  1.00  0.00    -0.012 A 
HETATM   15  C15 UNL     1      22.290   4.223  51.426  1.00  0.00     0.040 A 
HETATM   16  C16 UNL     1      24.266   3.503  53.391  1.00  0.00     0.164 C 
HETATM   17  N5  UNL     1      24.197   2.237  52.753  1.00  0.00    -0.370 N 
HETATM   18  C17 UNL     1      24.432   0.847  53.100  1.00  0.00     0.182 C 
HETATM   19  C18 UNL     1      23.169   0.161  53.476  1.00  0.00     0.052 A 
HETATM   20  C19 UNL     1      22.002   0.441  52.816  1.00  0.00     0.042 A 
HETATM   21  C20 UNL     1      20.686  -0.015  52.900  1.00  0.00    -0.006 A 
HETATM   22  C21 UNL     1      20.592  -0.957  53.887  1.00  0.00     0.033 A 
HETATM   23  C22 UNL     1      21.710  -1.304  54.606  1.00  0.00     0.118 A 
HETATM   24  N6  UNL     1      22.924  -0.774  54.410  1.00  0.00    -0.264 NA
HETATM   25  H10 UNL     1      21.258   4.534  48.679  1.00  0.00     0.167 HD
ENDROOT
BRANCH   1  26
HETATM   26  N1  UNL     1      18.768  -0.234  51.205  1.00  0.00    -0.379 N 
HETATM   27  H6  UNL     1      19.524  -0.459  50.522  1.00  0.00     0.160 HD
BRANCH  26  28
HETATM   28  C2  UNL     1      17.391  -0.685  51.154  1.00  0.00     0.139 C 
HETATM   29  C1  UNL     1      16.615   0.067  50.089  1.00  0.00     0.039 C 
BRANCH  28  30
HETATM   30  C3  UNL     1      16.792  -0.250  52.470  1.00  0.00     0.255 C 
HETATM   31  O1  UNL     1      16.939  -0.921  53.477  1.00  0.00    -0.305 OA
ENDBRANCH  28  30
ENDBRANCH  26  28
ENDBRANCH   1  26
TORSDOF 3
ENDMDL
MODEL 6
REMARK VINA RESULT:      -7.3      2.092      5.142
REMARK  3 active torsions:
REMARK  status: ('A' for Active; 'I' for Inactive)
REMARK    1  A    between atoms: C2_2  and  C3_3 
REMARK    2  A    between atoms: C2_2  and  N1_5 
REMARK    3  A    between atoms: N1_5  and  C4_6 
ROOT
HETATM    1  C4  UNL     1      24.211   4.879  51.071  1.00  0.00     0.040 C 
HETATM    2  C5  UNL     1      23.881   3.864  51.831  1.00  0.00     0.046 C 
HETATM    3  C6  UNL     1      24.364   2.652  52.441  1.00  0.00     0.030 A 
HETATM    4  C7  UNL     1      25.325   2.939  53.384  1.00  0.00     0.133 A 
HETATM    5  N2  UNL     1      26.025   2.077  54.176  1.00  0.00    -0.253 NA
HETATM    6  C8  UNL     1      25.692   0.771  53.967  1.00  0.00     0.234 A 
HETATM    7  N3  UNL     1      24.761   0.457  53.058  1.00  0.00    -0.224 NA
HETATM    8  C9  UNL     1      24.082   1.320  52.287  1.00  0.00     0.141 A 
HETATM    9  N4  UNL     1      23.182   0.546  51.455  1.00  0.00    -0.340 N 
HETATM   10  C10 UNL     1      22.018   1.198  50.973  1.00  0.00     0.034 A 
HETATM   11  C11 UNL     1      21.802   1.467  49.652  1.00  0.00     0.032 A 
HETATM   12  C12 UNL     1      20.696   2.221  49.318  1.00  0.00     0.032 A 
HETATM   13  C13 UNL     1      20.315   2.340  50.639  1.00  0.00     0.038 A 
HETATM   14  C14 UNL     1      20.160   2.300  52.034  1.00  0.00    -0.012 A 
HETATM   15  C15 UNL     1      21.305   1.550  52.084  1.00  0.00     0.040 A 
HETATM   16  C16 UNL     1      18.911   3.131  51.848  1.00  0.00     0.164 C 
HETATM   17  N5  UNL     1      19.527   3.582  50.653  1.00  0.00    -0.370 N 
HETATM   18  C17 UNL     1      19.493   4.764  49.808  1.00  0.00     0.182 C 
HETATM   19  C18 UNL     1      20.604   5.695  50.134  1.00  0.00     0.052 A 
HETATM   20  C19 UNL     1      21.842   5.212  50.466  1.00  0.00     0.042 A 
HETATM   21  C20 UNL     1      23.068   5.787  50.801  1.00  0.00    -0.006 A 
HETATM   22  C21 UNL     1      22.954   7.150  50.782  1.00  0.00     0.033 A 
HETATM   23  C22 UNL     1      21.750   7.728  50.461  1.00  0.00     0.118 A 
HETATM   24  N6  UNL     1      20.642   7.038  50.156  1.00  0.00    -0.264 NA
HETATM   25  H10 UNL     1      23.288  -0.430  51.162  1.00  0.00     0.167 HD
ENDROOT
BRANCH   1  26
HETATM   26  N1  UNL     1      25.513   5.044  50.534  1.00  0.00    -0.379 N 
HETATM   27  H6  UNL     1      25.877   4.378  51.250  1.00  0.00     0.160 HD
BRANCH  26  28
HETATM   28  C2  UNL     1      26.283   5.723  49.511  1.00  0.00     0.139 C 
HETATM   29  C1  UNL     1      25.387   6.180  48.374  1.00  0.00     0.039 C 
BRANCH  28  30
HETATM   30  C3  UNL     1      27.168   4.652  48.919  1.00  0.00     0.255 C 
HETATM   31  O1  UNL     1      27.114   3.502  49.321  1.00  0.00    -0.305 OA
ENDBRANCH  28  30
ENDBRANCH  26  28
ENDBRANCH   1  26
TORSDOF 3
ENDMDL
MODEL 7
REMARK VINA RESULT:      -7.3      2.767      5.099
REMARK  3 active torsions:
REMARK  status: ('A' for Active; 'I' for Inactive)
REMARK    1  A    between atoms: C2_2  and  C3_3 
REMARK    2  A    between atoms: C2_2  and  N1_5 
REMARK    3  A    between atoms: N1_5  and  C4_6 
ROOT
HETATM    1  C4  UNL     1      23.981   4.148  48.992  1.00  0.00     0.040 C 
HETATM    2  C5  UNL     1      22.901   3.530  48.581  1.00  0.00     0.046 C 
HETATM    3  C6  UNL     1      21.733   3.642  47.746  1.00  0.00     0.030 A 
HETATM    4  C7  UNL     1      22.096   3.715  46.420  1.00  0.00     0.133 A 
HETATM    5  N2  UNL     1      21.295   3.830  45.322  1.00  0.00    -0.253 NA
HETATM    6  C8  UNL     1      19.967   3.875  45.635  1.00  0.00     0.234 A 
HETATM    7  N3  UNL     1      19.580   3.805  46.914  1.00  0.00    -0.224 NA
HETATM    8  C9  UNL     1      20.384   3.693  47.981  1.00  0.00     0.141 A 
HETATM    9  N4  UNL     1      19.542   3.652  49.160  1.00  0.00    -0.340 N 
HETATM   10  C10 UNL     1      20.065   3.013  50.313  1.00  0.00     0.034 A 
HETATM   11  C11 UNL     1      20.361   3.677  51.469  1.00  0.00     0.032 A 
HETATM   12  C12 UNL     1      20.987   2.973  52.477  1.00  0.00     0.032 A 
HETATM   13  C13 UNL     1      21.002   1.814  51.729  1.00  0.00     0.038 A 
HETATM   14  C14 UNL     1      20.883   0.795  50.769  1.00  0.00    -0.012 A 
HETATM   15  C15 UNL     1      20.279   1.713  49.950  1.00  0.00     0.040 A 
HETATM   16  C16 UNL     1      21.561  -0.121  51.761  1.00  0.00     0.164 C 
HETATM   17  N5  UNL     1      22.135   1.064  52.289  1.00  0.00    -0.370 N 
HETATM   18  C17 UNL     1      23.338   1.443  53.009  1.00  0.00     0.182 C 
HETATM   19  C18 UNL     1      24.385   1.952  52.086  1.00  0.00     0.052 A 
HETATM   20  C19 UNL     1      24.045   2.723  51.006  1.00  0.00     0.042 A 
HETATM   21  C20 UNL     1      24.752   3.356  49.983  1.00  0.00    -0.006 A 
HETATM   22  C21 UNL     1      26.089   3.117  50.137  1.00  0.00     0.033 A 
HETATM   23  C22 UNL     1      26.528   2.353  51.191  1.00  0.00     0.118 A 
HETATM   24  N6  UNL     1      25.720   1.804  52.109  1.00  0.00    -0.264 NA
HETATM   25  H10 UNL     1      18.600   4.040  49.266  1.00  0.00     0.167 HD
ENDROOT
BRANCH   1  26
HETATM   26  N1  UNL     1      24.328   5.454  48.562  1.00  0.00    -0.379 N 
HETATM   27  H6  UNL     1      23.664   5.351  47.763  1.00  0.00     0.160 HD
BRANCH  26  28
HETATM   28  C2  UNL     1      25.154   6.607  48.860  1.00  0.00     0.139 C 
HETATM   29  C1  UNL     1      26.612   6.322  48.549  1.00  0.00     0.039 C 
BRANCH  28  30
HETATM   30  C3  UNL     1      25.085   6.755  50.361  1.00  0.00     0.255 C 
HETATM   31  O1  UNL     1      24.176   7.375  50.887  1.00  0.00    -0.305 OA
ENDBRANCH  28  30
ENDBRANCH  26  28
ENDBRANCH   1  26
TORSDOF 3
ENDMDL
MODEL 8
REMARK VINA RESULT:      -7.3      3.083      6.564
REMARK  3 active torsions:
REMARK  status: ('A' for Active; 'I' for Inactive)
REMARK    1  A    between atoms: C2_2  and  C3_3 
REMARK    2  A    between atoms: C2_2  and  N1_5 
REMARK    3  A    between atoms: N1_5  and  C4_6 
ROOT
HETATM    1  C4  UNL     1      21.705   3.465  48.906  1.00  0.00     0.040 C 
HETATM    2  C5  UNL     1      22.785   3.603  49.636  1.00  0.00     0.046 C 
HETATM    3  C6  UNL     1      23.369   3.338  50.925  1.00  0.00     0.030 A 
HETATM    4  C7  UNL     1      23.512   1.983  51.118  1.00  0.00     0.133 A 
HETATM    5  N2  UNL     1      24.020   1.325  52.200  1.00  0.00    -0.253 NA
HETATM    6  C8  UNL     1      24.423   2.168  53.194  1.00  0.00     0.234 A 
HETATM    7  N3  UNL     1      24.298   3.491  53.039  1.00  0.00    -0.224 NA
HETATM    8  C9  UNL     1      23.796   4.121  51.966  1.00  0.00     0.141 A 
HETATM    9  N4  UNL     1      23.853   5.545  52.229  1.00  0.00    -0.340 N 
HETATM   10  C10 UNL     1      23.903   6.412  51.108  1.00  0.00     0.034 A 
HETATM   11  C11 UNL     1      22.895   7.276  50.783  1.00  0.00     0.032 A 
HETATM   12  C12 UNL     1      23.000   7.974  49.598  1.00  0.00     0.032 A 
HETATM   13  C13 UNL     1      24.212   7.386  49.298  1.00  0.00     0.038 A 
HETATM   14  C14 UNL     1      25.408   6.653  49.246  1.00  0.00    -0.012 A 
HETATM   15  C15 UNL     1      25.057   6.099  50.448  1.00  0.00     0.040 A 
HETATM   16  C16 UNL     1      25.683   7.332  47.924  1.00  0.00     0.164 C 
HETATM   17  N5  UNL     1      24.274   7.469  47.831  1.00  0.00    -0.370 N 
HETATM   18  C17 UNL     1      23.274   7.576  46.784  1.00  0.00     0.182 C 
HETATM   19  C18 UNL     1      22.657   6.257  46.487  1.00  0.00     0.052 A 
HETATM   20  C19 UNL     1      22.399   5.367  47.496  1.00  0.00     0.042 A 
HETATM   21  C20 UNL     1      21.834   4.093  47.568  1.00  0.00    -0.006 A 
HETATM   22  C21 UNL     1      21.474   3.683  46.314  1.00  0.00     0.033 A 
HETATM   23  C22 UNL     1      21.693   4.507  45.238  1.00  0.00     0.118 A 
HETATM   24  N6  UNL     1      22.253   5.722  45.323  1.00  0.00    -0.264 NA
HETATM   25  H10 UNL     1      23.856   6.010  53.142  1.00  0.00     0.167 HD
ENDROOT
BRANCH   1  26
HETATM   26  N1  UNL     1      20.533   2.825  49.384  1.00  0.00    -0.379 N 
HETATM   27  H6  UNL     1      20.816   1.959  48.874  1.00  0.00     0.160 HD
BRANCH  26  28
HETATM   28  C2  UNL     1      19.343   3.005  50.191  1.00  0.00     0.139 C 
HETATM   29  C1  UNL     1      18.993   4.477  50.315  1.00  0.00     0.039 C 
BRANCH  28  30
HETATM   30  C3  UNL     1      19.748   2.571  51.580  1.00  0.00     0.255 C 
HETATM   31  O1  UNL     1      19.939   3.392  52.461  1.00  0.00    -0.305 OA
ENDBRANCH  28  30
ENDBRANCH  26  28
ENDBRANCH   1  26
TORSDOF 3
ENDMDL
MODEL 9
REMARK VINA RESULT:      -7.1      9.515     12.600
REMARK  3 active torsions:
REMARK  status: ('A' for Active; 'I' for Inactive)
REMARK    1  A    between atoms: C2_2  and  C3_3 
REMARK    2  A    between atoms: C2_2  and  N1_5 
REMARK    3  A    between atoms: N1_5  and  C4_6 
ROOT
HETATM    1  C4  UNL     1      32.364   8.025  45.004  1.00  0.00     0.040 C 
HETATM    2  C5  UNL     1      31.681   7.562  46.022  1.00  0.00     0.046 C 
HETATM    3  C6  UNL     1      30.915   7.931  47.184  1.00  0.00     0.030 A 
HETATM    4  C7  UNL     1      29.760   8.582  46.811  1.00  0.00     0.133 A 
HETATM    5  N2  UNL     1      28.775   9.090  47.605  1.00  0.00    -0.253 NA
HETATM    6  C8  UNL     1      29.013   8.903  48.936  1.00  0.00     0.234 A 
HETATM    7  N3  UNL     1      30.126   8.275  49.332  1.00  0.00    -0.224 NA
HETATM    8  C9  UNL     1      31.085   7.781  48.535  1.00  0.00     0.141 A 
HETATM    9  N4  UNL     1      32.097   7.187  49.386  1.00  0.00    -0.340 N 
HETATM   10  C10 UNL     1      32.900   6.161  48.826  1.00  0.00     0.034 A 
HETATM   11  C11 UNL     1      34.241   6.296  48.602  1.00  0.00     0.032 A 
HETATM   12  C12 UNL     1      34.890   5.280  47.932  1.00  0.00     0.032 A 
HETATM   13  C13 UNL     1      33.727   4.548  47.809  1.00  0.00     0.038 A 
HETATM   14  C14 UNL     1      32.424   4.023  47.828  1.00  0.00    -0.012 A 
HETATM   15  C15 UNL     1      32.037   5.154  48.497  1.00  0.00     0.040 A 
HETATM   16  C16 UNL     1      32.973   2.825  47.088  1.00  0.00     0.164 C 
HETATM   17  N5  UNL     1      33.975   3.715  46.623  1.00  0.00    -0.370 N 
HETATM   18  C17 UNL     1      34.845   3.842  45.466  1.00  0.00     0.182 C 
HETATM   19  C18 UNL     1      34.270   4.766  44.455  1.00  0.00     0.052 A 
HETATM   20  C19 UNL     1      33.597   5.894  44.846  1.00  0.00     0.042 A 
HETATM   21  C20 UNL     1      32.968   6.947  44.181  1.00  0.00    -0.006 A 
HETATM   22  C21 UNL     1      33.072   6.762  42.831  1.00  0.00     0.033 A 
HETATM   23  C22 UNL     1      33.729   5.659  42.343  1.00  0.00     0.118 A 
HETATM   24  N6  UNL     1      34.292   4.718  43.112  1.00  0.00    -0.264 NA
HETATM   25  H10 UNL     1      32.311   7.426  50.360  1.00  0.00     0.167 HD
ENDROOT
BRANCH   1  26
HETATM   26  N1  UNL     1      32.537   9.412  44.764  1.00  0.00    -0.379 N 
HETATM   27  H6  UNL     1      32.008   9.308  43.870  1.00  0.00     0.160 HD
BRANCH  26  28
HETATM   28  C2  UNL     1      33.110  10.632  45.295  1.00  0.00     0.139 C 
HETATM   29  C1  UNL     1      33.918  10.349  46.548  1.00  0.00     0.039 C 
BRANCH  28  30
HETATM   30  C3  UNL     1      31.925  11.447  45.757  1.00  0.00     0.255 C 
HETATM   31  O1  UNL     1      31.614  11.486  46.936  1.00  0.00    -0.305 OA
ENDBRANCH  28  30
ENDBRANCH  26  28
ENDBRANCH   1  26
TORSDOF 3
ENDMDL
