MODEL 1
REMARK VINA RESULT:      -7.9      0.000      0.000
REMARK  7 active torsions:
REMARK  status: ('A' for Active; 'I' for Inactive)
REMARK    1  A    between atoms: N1_1  and  C1_2 
REMARK    2  A    between atoms: C1_2  and  N2_4 
REMARK    3  A    between atoms: N2_4  and  N3_5 
REMARK    4  A    between atoms: C2_6  and  C3_7 
REMARK    5  A    between atoms: C2_6  and  C11_16 
REMARK    6  A    between atoms: C3_7  and  C4_8 
REMARK    7  A    between atoms: C4_8  and  C5_9 
ROOT
HETATM    1  N3  UNL     1      27.126   2.057  51.707  1.00  0.00    -0.172 NA
HETATM    2  C2  UNL     1      26.407   1.130  52.307  1.00  0.00     0.087 C 
ENDROOT
BRANCH   2   3
HETATM    3  C3  UNL     1      25.006   1.348  52.507  1.00  0.00     0.035 C 
BRANCH   3   4
HETATM    4  C4  UNL     1      23.801   1.417  53.011  1.00  0.00     0.017 C 
BRANCH   4   5
HETATM    5  C5  UNL     1      22.744   0.472  53.309  1.00  0.00     0.003 A 
HETATM    6  C6  UNL     1      21.415   0.479  52.978  1.00  0.00     0.014 A 
HETATM    7  C7  UNL     1      20.426  -0.383  53.357  1.00  0.00     0.001 A 
HETATM    8  C8  UNL     1      20.801  -1.398  54.178  1.00  0.00     0.003 A 
HETATM    9  C9  UNL     1      22.099  -1.537  54.593  1.00  0.00     0.043 A 
HETATM   10  C10 UNL     1      23.007  -0.611  54.150  1.00  0.00     0.126 A 
HETATM   11  F1  UNL     1      24.285  -0.784  54.601  1.00  0.00    -0.205 F 
ENDBRANCH   4   5
ENDBRANCH   3   4
ENDBRANCH   2   3
BRANCH   2  12
HETATM   12  C11 UNL     1      27.257  -0.017  52.658  1.00  0.00    -0.006 A 
HETATM   13  C12 UNL     1      28.518  -0.002  53.170  1.00  0.00     0.014 A 
HETATM   14  C13 UNL     1      29.328  -1.079  53.438  1.00  0.00     0.001 A 
HETATM   15  C14 UNL     1      28.828  -2.334  53.167  1.00  0.00     0.000 A 
HETATM   16  C15 UNL     1      27.574  -2.456  52.653  1.00  0.00     0.001 A 
HETATM   17  C16 UNL     1      26.862  -1.309  52.428  1.00  0.00     0.014 A 
ENDBRANCH   2  12
BRANCH   1  18
HETATM   18  N2  UNL     1      26.525   3.243  51.267  1.00  0.00    -0.253 N 
HETATM   19  H3  UNL     1      25.957   3.597  52.047  1.00  0.00     0.191 HD
BRANCH  18  20
HETATM   20  C1  UNL     1      26.566   3.976  50.033  1.00  0.00     0.185 C 
HETATM   21  S1  UNL     1      25.058   4.279  49.448  1.00  0.00    -0.040 SA
BRANCH  20  22
HETATM   22  N1  UNL     1      27.299   4.616  48.993  1.00  0.00    -0.375 N 
HETATM   23  H1  UNL     1      28.358   4.582  49.013  1.00  0.00     0.158 HD
HETATM   24  H2  UNL     1      26.813   5.114  48.217  1.00  0.00     0.158 HD
ENDBRANCH  20  22
ENDBRANCH  18  20
ENDBRANCH   1  18
TORSDOF 7
ENDMDL
MODEL 2
REMARK VINA RESULT:      -7.8      2.304      5.612
REMARK  7 active torsions:
REMARK  status: ('A' for Active; 'I' for Inactive)
REMARK    1  A    between atoms: N1_1  and  C1_2 
REMARK    2  A    between atoms: C1_2  and  N2_4 
REMARK    3  A    between atoms: N2_4  and  N3_5 
REMARK    4  A    between atoms: C2_6  and  C3_7 
REMARK    5  A    between atoms: C2_6  and  C11_16 
REMARK    6  A    between atoms: C3_7  and  C4_8 
REMARK    7  A    between atoms: C4_8  and  C5_9 
ROOT
HETATM    1  N3  UNL     1      23.147   2.834  51.997  1.00  0.00    -0.172 NA
HETATM    2  C2  UNL     1      23.795   1.975  52.758  1.00  0.00     0.087 C 
ENDROOT
BRANCH   2   3
HETATM    3  C3  UNL     1      25.189   2.177  53.016  1.00  0.00     0.035 C 
BRANCH   3   4
HETATM    4  C4  UNL     1      26.477   2.016  53.175  1.00  0.00     0.017 C 
BRANCH   4   5
HETATM    5  C5  UNL     1      27.393   0.893  53.161  1.00  0.00     0.003 A 
HETATM    6  C6  UNL     1      27.179  -0.436  52.910  1.00  0.00     0.014 A 
HETATM    7  C7  UNL     1      28.050  -1.483  52.998  1.00  0.00     0.001 A 
HETATM    8  C8  UNL     1      29.315  -1.176  53.388  1.00  0.00     0.003 A 
HETATM    9  C9  UNL     1      29.680   0.113  53.672  1.00  0.00     0.043 A 
HETATM   10  C10 UNL     1      28.721   1.084  53.550  1.00  0.00     0.126 A 
HETATM   11  F1  UNL     1      29.129   2.351  53.857  1.00  0.00    -0.205 F 
ENDBRANCH   4   5
ENDBRANCH   3   4
ENDBRANCH   2   3
BRANCH   2  12
HETATM   12  C11 UNL     1      22.878   0.925  53.224  1.00  0.00    -0.006 A 
HETATM   13  C12 UNL     1      21.520   0.891  53.123  1.00  0.00     0.014 A 
HETATM   14  C13 UNL     1      20.666  -0.067  53.615  1.00  0.00     0.001 A 
HETATM   15  C14 UNL     1      21.224  -1.129  54.292  1.00  0.00     0.000 A 
HETATM   16  C15 UNL     1      22.574  -1.188  54.445  1.00  0.00     0.001 A 
HETATM   17  C16 UNL     1      23.322  -0.174  53.912  1.00  0.00     0.014 A 
ENDBRANCH   2  12
BRANCH   1  18
HETATM   18  N2  UNL     1      23.817   3.934  51.446  1.00  0.00    -0.253 N 
HETATM   19  H3  UNL     1      24.520   3.561  50.796  1.00  0.00     0.191 HD
BRANCH  18  20
HETATM   20  C1  UNL     1      23.697   5.355  51.618  1.00  0.00     0.185 C 
HETATM   21  S1  UNL     1      22.186   5.893  51.252  1.00  0.00    -0.040 SA
BRANCH  20  22
HETATM   22  N1  UNL     1      24.261   6.615  51.970  1.00  0.00    -0.375 N 
HETATM   23  H1  UNL     1      24.037   7.463  51.375  1.00  0.00     0.158 HD
HETATM   24  H2  UNL     1      24.887   6.714  52.797  1.00  0.00     0.158 HD
ENDBRANCH  20  22
ENDBRANCH  18  20
ENDBRANCH   1  18
TORSDOF 7
ENDMDL
MODEL 3
REMARK VINA RESULT:      -7.8      3.154      6.079
REMARK  7 active torsions:
REMARK  status: ('A' for Active; 'I' for Inactive)
REMARK    1  A    between atoms: N1_1  and  C1_2 
REMARK    2  A    between atoms: C1_2  and  N2_4 
REMARK    3  A    between atoms: N2_4  and  N3_5 
REMARK    4  A    between atoms: C2_6  and  C3_7 
REMARK    5  A    between atoms: C2_6  and  C11_16 
REMARK    6  A    between atoms: C3_7  and  C4_8 
REMARK    7  A    between atoms: C4_8  and  C5_9 
ROOT
HETATM    1  N3  UNL     1      25.914  -0.981  53.928  1.00  0.00    -0.172 NA
HETATM    2  C2  UNL     1      25.227  -0.184  53.135  1.00  0.00     0.087 C 
ENDROOT
BRANCH   2   3
HETATM    3  C3  UNL     1      25.921   0.617  52.172  1.00  0.00     0.035 C 
BRANCH   3   4
HETATM    4  C4  UNL     1      26.506   1.600  51.538  1.00  0.00     0.017 C 
BRANCH   4   5
HETATM    5  C5  UNL     1      26.067   2.770  50.804  1.00  0.00     0.003 A 
HETATM    6  C6  UNL     1      26.605   3.398  49.713  1.00  0.00     0.014 A 
HETATM    7  C7  UNL     1      26.216   4.556  49.103  1.00  0.00     0.001 A 
HETATM    8  C8  UNL     1      25.141   5.184  49.646  1.00  0.00     0.003 A 
HETATM    9  C9  UNL     1      24.494   4.673  50.740  1.00  0.00     0.043 A 
HETATM   10  C10 UNL     1      24.974   3.505  51.270  1.00  0.00     0.126 A 
HETATM   11  F1  UNL     1      24.306   3.042  52.368  1.00  0.00    -0.205 F 
ENDBRANCH   4   5
ENDBRANCH   3   4
ENDBRANCH   2   3
BRANCH   2  12
HETATM   12  C11 UNL     1      23.790  -0.307  53.420  1.00  0.00    -0.006 A 
HETATM   13  C12 UNL     1      23.194  -0.945  54.465  1.00  0.00     0.014 A 
HETATM   14  C13 UNL     1      21.848  -1.107  54.692  1.00  0.00     0.001 A 
HETATM   15  C14 UNL     1      20.978  -0.567  53.769  1.00  0.00     0.000 A 
HETATM   16  C15 UNL     1      21.476   0.092  52.689  1.00  0.00     0.001 A 
HETATM   17  C16 UNL     1      22.837   0.188  52.570  1.00  0.00     0.014 A 
ENDBRANCH   2  12
BRANCH   1  18
HETATM   18  N2  UNL     1      27.309  -1.045  53.830  1.00  0.00    -0.253 N 
HETATM   19  H3  UNL     1      27.534  -1.908  53.319  1.00  0.00     0.191 HD
BRANCH  18  20
HETATM   20  C1  UNL     1      28.374  -0.191  54.278  1.00  0.00     0.185 C 
HETATM   21  S1  UNL     1      29.834  -0.671  53.691  1.00  0.00    -0.040 SA
BRANCH  20  22
HETATM   22  N1  UNL     1      28.834   0.934  55.021  1.00  0.00    -0.375 N 
HETATM   23  H1  UNL     1      29.793   0.896  55.471  1.00  0.00     0.158 HD
HETATM   24  H2  UNL     1      28.246   1.787  55.128  1.00  0.00     0.158 HD
ENDBRANCH  20  22
ENDBRANCH  18  20
ENDBRANCH   1  18
TORSDOF 7
ENDMDL
MODEL 4
REMARK VINA RESULT:      -7.6      1.995      2.540
REMARK  7 active torsions:
REMARK  status: ('A' for Active; 'I' for Inactive)
REMARK    1  A    between atoms: N1_1  and  C1_2 
REMARK    2  A    between atoms: C1_2  and  N2_4 
REMARK    3  A    between atoms: N2_4  and  N3_5 
REMARK    4  A    between atoms: C2_6  and  C3_7 
REMARK    5  A    between atoms: C2_6  and  C11_16 
REMARK    6  A    between atoms: C3_7  and  C4_8 
REMARK    7  A    between atoms: C4_8  and  C5_9 
ROOT
HETATM    1  N3  UNL     1      25.732   2.305  53.465  1.00  0.00    -0.172 NA
HETATM    2  C2  UNL     1      25.649   0.990  53.427  1.00  0.00     0.087 C 
ENDROOT
BRANCH   2   3
HETATM    3  C3  UNL     1      24.359   0.368  53.404  1.00  0.00     0.035 C 
BRANCH   3   4
HETATM    4  C4  UNL     1      23.359  -0.452  53.208  1.00  0.00     0.017 C 
BRANCH   4   5
HETATM    5  C5  UNL     1      21.982  -0.325  52.776  1.00  0.00     0.003 A 
HETATM    6  C6  UNL     1      21.446   0.192  51.627  1.00  0.00     0.014 A 
HETATM    7  C7  UNL     1      20.136   0.381  51.293  1.00  0.00     0.001 A 
HETATM    8  C8  UNL     1      19.222   0.004  52.225  1.00  0.00     0.003 A 
HETATM    9  C9  UNL     1      19.607  -0.534  53.424  1.00  0.00     0.043 A 
HETATM   10  C10 UNL     1      20.951  -0.675  53.652  1.00  0.00     0.126 A 
HETATM   11  F1  UNL     1      21.287  -1.203  54.866  1.00  0.00    -0.205 F 
ENDBRANCH   4   5
ENDBRANCH   3   4
ENDBRANCH   2   3
BRANCH   2  12
HETATM   12  C11 UNL     1      26.996   0.402  53.403  1.00  0.00    -0.006 A 
HETATM   13  C12 UNL     1      27.346  -0.878  53.098  1.00  0.00     0.014 A 
HETATM   14  C13 UNL     1      28.602  -1.436  53.136  1.00  0.00     0.001 A 
HETATM   15  C14 UNL     1      29.646  -0.626  53.525  1.00  0.00     0.000 A 
HETATM   16  C15 UNL     1      29.399   0.672  53.849  1.00  0.00     0.001 A 
HETATM   17  C16 UNL     1      28.106   1.114  53.773  1.00  0.00     0.014 A 
ENDBRANCH   2  12
BRANCH   1  18
HETATM   18  N2  UNL     1      24.570   3.086  53.481  1.00  0.00    -0.253 N 
HETATM   19  H3  UNL     1      24.017   2.783  54.293  1.00  0.00     0.191 HD
BRANCH  18  20
HETATM   20  C1  UNL     1      24.070   4.136  52.637  1.00  0.00     0.185 C 
HETATM   21  S1  UNL     1      23.418   3.548  51.246  1.00  0.00    -0.040 SA
BRANCH  20  22
HETATM   22  N1  UNL     1      23.837   5.518  52.381  1.00  0.00    -0.375 N 
HETATM   23  H1  UNL     1      23.493   6.137  53.170  1.00  0.00     0.158 HD
HETATM   24  H2  UNL     1      23.997   5.926  51.436  1.00  0.00     0.158 HD
ENDBRANCH  20  22
ENDBRANCH  18  20
ENDBRANCH   1  18
TORSDOF 7
ENDMDL
MODEL 5
REMARK VINA RESULT:      -7.5      2.417      4.885
REMARK  7 active torsions:
REMARK  status: ('A' for Active; 'I' for Inactive)
REMARK    1  A    between atoms: N1_1  and  C1_2 
REMARK    2  A    between atoms: C1_2  and  N2_4 
REMARK    3  A    between atoms: N2_4  and  N3_5 
REMARK    4  A    between atoms: C2_6  and  C3_7 
REMARK    5  A    between atoms: C2_6  and  C11_16 
REMARK    6  A    between atoms: C3_7  and  C4_8 
REMARK    7  A    between atoms: C4_8  and  C5_9 
ROOT
HETATM    1  N3  UNL     1      27.059   2.215  51.462  1.00  0.00    -0.172 NA
HETATM    2  C2  UNL     1      25.880   2.649  51.067  1.00  0.00     0.087 C 
ENDROOT
BRANCH   2   3
HETATM    3  C3  UNL     1      24.697   1.986  51.527  1.00  0.00     0.035 C 
BRANCH   3   4
HETATM    4  C4  UNL     1      23.560   1.342  51.600  1.00  0.00     0.017 C 
BRANCH   4   5
HETATM    5  C5  UNL     1      22.801   0.689  52.647  1.00  0.00     0.003 A 
HETATM    6  C6  UNL     1      21.565   0.969  53.166  1.00  0.00     0.014 A 
HETATM    7  C7  UNL     1      20.919   0.388  54.219  1.00  0.00     0.001 A 
HETATM    8  C8  UNL     1      21.586  -0.612  54.851  1.00  0.00     0.003 A 
HETATM    9  C9  UNL     1      22.833  -1.006  54.443  1.00  0.00     0.043 A 
HETATM   10  C10 UNL     1      23.385  -0.350  53.374  1.00  0.00     0.126 A 
HETATM   11  F1  UNL     1      24.634  -0.768  53.013  1.00  0.00    -0.205 F 
ENDBRANCH   4   5
ENDBRANCH   3   4
ENDBRANCH   2   3
BRANCH   2  12
HETATM   12  C11 UNL     1      26.041   3.814  50.185  1.00  0.00    -0.006 A 
HETATM   13  C12 UNL     1      27.090   4.107  49.368  1.00  0.00     0.014 A 
HETATM   14  C13 UNL     1      27.261   5.229  48.591  1.00  0.00     0.001 A 
HETATM   15  C14 UNL     1      26.267   6.183  48.625  1.00  0.00     0.000 A 
HETATM   16  C15 UNL     1      25.175   5.981  49.411  1.00  0.00     0.001 A 
HETATM   17  C16 UNL     1      25.118   4.824  50.140  1.00  0.00     0.014 A 
ENDBRANCH   2  12
BRANCH   1  18
HETATM   18  N2  UNL     1      27.155   1.115  52.324  1.00  0.00    -0.253 N 
HETATM   19  H3  UNL     1      27.047   0.272  51.746  1.00  0.00     0.191 HD
BRANCH  18  20
HETATM   20  C1  UNL     1      27.359   0.981  53.740  1.00  0.00     0.185 C 
HETATM   21  S1  UNL     1      28.957   0.936  54.128  1.00  0.00    -0.040 SA
BRANCH  20  22
HETATM   22  N1  UNL     1      26.844   0.860  55.062  1.00  0.00    -0.375 N 
HETATM   23  H1  UNL     1      25.795   0.874  55.209  1.00  0.00     0.158 HD
HETATM   24  H2  UNL     1      27.480   0.758  55.882  1.00  0.00     0.158 HD
ENDBRANCH  20  22
ENDBRANCH  18  20
ENDBRANCH   1  18
TORSDOF 7
ENDMDL
MODEL 6
REMARK VINA RESULT:      -7.3      3.183      5.915
REMARK  7 active torsions:
REMARK  status: ('A' for Active; 'I' for Inactive)
REMARK    1  A    between atoms: N1_1  and  C1_2 
REMARK    2  A    between atoms: C1_2  and  N2_4 
REMARK    3  A    between atoms: N2_4  and  N3_5 
REMARK    4  A    between atoms: C2_6  and  C3_7 
REMARK    5  A    between atoms: C2_6  and  C11_16 
REMARK    6  A    between atoms: C3_7  and  C4_8 
REMARK    7  A    between atoms: C4_8  and  C5_9 
ROOT
HETATM    1  N3  UNL     1      24.591  -0.435  53.115  1.00  0.00    -0.172 NA
HETATM    2  C2  UNL     1      25.330   0.498  52.550  1.00  0.00     0.087 C 
ENDROOT
BRANCH   2   3
HETATM    3  C3  UNL     1      24.698   1.516  51.766  1.00  0.00     0.035 C 
BRANCH   3   4
HETATM    4  C4  UNL     1      24.439   2.456  50.894  1.00  0.00     0.017 C 
BRANCH   4   5
HETATM    5  C5  UNL     1      25.219   3.415  50.138  1.00  0.00     0.003 A 
HETATM    6  C6  UNL     1      26.505   3.355  49.670  1.00  0.00     0.014 A 
HETATM    7  C7  UNL     1      27.241   4.318  49.041  1.00  0.00     0.001 A 
HETATM    8  C8  UNL     1      26.620   5.510  48.843  1.00  0.00     0.003 A 
HETATM    9  C9  UNL     1      25.330   5.719  49.255  1.00  0.00     0.043 A 
HETATM   10  C10 UNL     1      24.689   4.681  49.878  1.00  0.00     0.126 A 
HETATM   11  F1  UNL     1      23.411   4.941  50.282  1.00  0.00    -0.205 F 
ENDBRANCH   4   5
ENDBRANCH   3   4
ENDBRANCH   2   3
BRANCH   2  12
HETATM   12  C11 UNL     1      26.747   0.285  52.879  1.00  0.00    -0.006 A 
HETATM   13  C12 UNL     1      27.412  -0.898  52.994  1.00  0.00     0.014 A 
HETATM   14  C13 UNL     1      28.723  -1.090  53.362  1.00  0.00     0.001 A 
HETATM   15  C14 UNL     1      29.474   0.029  53.651  1.00  0.00     0.000 A 
HETATM   16  C15 UNL     1      28.899   1.258  53.564  1.00  0.00     0.001 A 
HETATM   17  C16 UNL     1      27.584   1.324  53.188  1.00  0.00     0.014 A 
ENDBRANCH   2  12
BRANCH   1  18
HETATM   18  N2  UNL     1      23.200  -0.429  52.952  1.00  0.00    -0.253 N 
HETATM   19  H3  UNL     1      23.014  -0.648  51.965  1.00  0.00     0.191 HD
BRANCH  18  20
HETATM   20  C1  UNL     1      22.098  -0.193  53.843  1.00  0.00     0.185 C 
HETATM   21  S1  UNL     1      21.027   0.889  53.221  1.00  0.00    -0.040 SA
BRANCH  20  22
HETATM   22  N1  UNL     1      21.420  -0.439  55.071  1.00  0.00    -0.375 N 
HETATM   23  H1  UNL     1      20.587   0.163  55.329  1.00  0.00     0.158 HD
HETATM   24  H2  UNL     1      21.730  -1.197  55.716  1.00  0.00     0.158 HD
ENDBRANCH  20  22
ENDBRANCH  18  20
ENDBRANCH   1  18
TORSDOF 7
ENDMDL
MODEL 7
REMARK VINA RESULT:      -7.3      1.920      5.922
REMARK  7 active torsions:
REMARK  status: ('A' for Active; 'I' for Inactive)
REMARK    1  A    between atoms: N1_1  and  C1_2 
REMARK    2  A    between atoms: C1_2  and  N2_4 
REMARK    3  A    between atoms: N2_4  and  N3_5 
REMARK    4  A    between atoms: C2_6  and  C3_7 
REMARK    5  A    between atoms: C2_6  and  C11_16 
REMARK    6  A    between atoms: C3_7  and  C4_8 
REMARK    7  A    between atoms: C4_8  and  C5_9 
ROOT
HETATM    1  N3  UNL     1      23.175   1.643  51.225  1.00  0.00    -0.172 NA
HETATM    2  C2  UNL     1      23.001   0.708  52.137  1.00  0.00     0.087 C 
ENDROOT
BRANCH   2   3
HETATM    3  C3  UNL     1      24.127   0.240  52.888  1.00  0.00     0.035 C 
BRANCH   3   4
HETATM    4  C4  UNL     1      24.957  -0.479  53.598  1.00  0.00     0.017 C 
BRANCH   4   5
HETATM    5  C5  UNL     1      26.386  -0.482  53.839  1.00  0.00     0.003 A 
HETATM    6  C6  UNL     1      27.149   0.242  54.715  1.00  0.00     0.014 A 
HETATM    7  C7  UNL     1      28.507   0.281  54.850  1.00  0.00     0.001 A 
HETATM    8  C8  UNL     1      29.214  -0.509  54.000  1.00  0.00     0.003 A 
HETATM    9  C9  UNL     1      28.588  -1.294  53.069  1.00  0.00     0.043 A 
HETATM   10  C10 UNL     1      27.219  -1.251  53.023  1.00  0.00     0.126 A 
HETATM   11  F1  UNL     1      26.641  -2.041  52.070  1.00  0.00    -0.205 F 
ENDBRANCH   4   5
ENDBRANCH   3   4
ENDBRANCH   2   3
BRANCH   2  12
HETATM   12  C11 UNL     1      21.582   0.328  52.203  1.00  0.00    -0.006 A 
HETATM   13  C12 UNL     1      20.618   0.519  51.261  1.00  0.00     0.014 A 
HETATM   14  C13 UNL     1      19.281   0.214  51.354  1.00  0.00     0.001 A 
HETATM   15  C14 UNL     1      18.839  -0.354  52.530  1.00  0.00     0.000 A 
HETATM   16  C15 UNL     1      19.727  -0.587  53.533  1.00  0.00     0.001 A 
HETATM   17  C16 UNL     1      21.034  -0.240  53.323  1.00  0.00     0.014 A 
ENDBRANCH   2  12
BRANCH   1  18
HETATM   18  N2  UNL     1      24.450   2.174  50.992  1.00  0.00    -0.253 N 
HETATM   19  H3  UNL     1      25.097   1.378  50.925  1.00  0.00     0.191 HD
BRANCH  18  20
HETATM   20  C1  UNL     1      24.956   3.510  50.846  1.00  0.00     0.185 C 
HETATM   21  S1  UNL     1      26.399   3.538  50.057  1.00  0.00    -0.040 SA
BRANCH  20  22
HETATM   22  N1  UNL     1      24.830   4.914  51.051  1.00  0.00    -0.375 N 
HETATM   23  H1  UNL     1      24.416   5.266  51.961  1.00  0.00     0.158 HD
HETATM   24  H2  UNL     1      25.137   5.596  50.325  1.00  0.00     0.158 HD
ENDBRANCH  20  22
ENDBRANCH  18  20
ENDBRANCH   1  18
TORSDOF 7
ENDMDL
MODEL 8
REMARK VINA RESULT:      -7.2      2.549      5.641
REMARK  7 active torsions:
REMARK  status: ('A' for Active; 'I' for Inactive)
REMARK    1  A    between atoms: N1_1  and  C1_2 
REMARK    2  A    between atoms: C1_2  and  N2_4 
REMARK    3  A    between atoms: N2_4  and  N3_5 
REMARK    4  A    between atoms: C2_6  and  C3_7 
REMARK    5  A    between atoms: C2_6  and  C11_16 
REMARK    6  A    between atoms: C3_7  and  C4_8 
REMARK    7  A    between atoms: C4_8  and  C5_9 
ROOT
HETATM    1  N3  UNL     1      23.870   4.242  50.458  1.00  0.00    -0.172 NA
HETATM    2  C2  UNL     1      24.354   3.086  50.863  1.00  0.00     0.087 C 
ENDROOT
BRANCH   2   3
HETATM    3  C3  UNL     1      25.759   2.959  51.107  1.00  0.00     0.035 C 
BRANCH   3   4
HETATM    4  C4  UNL     1      26.949   2.512  51.416  1.00  0.00     0.017 C 
BRANCH   4   5
HETATM    5  C5  UNL     1      27.528   1.779  52.524  1.00  0.00     0.003 A 
HETATM    6  C6  UNL     1      28.444   2.157  53.469  1.00  0.00     0.014 A 
HETATM    7  C7  UNL     1      29.038   1.409  54.444  1.00  0.00     0.001 A 
HETATM    8  C8  UNL     1      28.677   0.101  54.496  1.00  0.00     0.003 A 
HETATM    9  C9  UNL     1      27.768  -0.424  53.616  1.00  0.00     0.043 A 
HETATM   10  C10 UNL     1      27.236   0.421  52.678  1.00  0.00     0.126 A 
HETATM   11  F1  UNL     1      26.345  -0.150  51.815  1.00  0.00    -0.205 F 
ENDBRANCH   4   5
ENDBRANCH   3   4
ENDBRANCH   2   3
BRANCH   2  12
HETATM   12  C11 UNL     1      23.267   2.106  51.001  1.00  0.00    -0.006 A 
HETATM   13  C12 UNL     1      22.989   1.306  52.066  1.00  0.00     0.014 A 
HETATM   14  C13 UNL     1      22.006   0.349  52.164  1.00  0.00     0.001 A 
HETATM   15  C14 UNL     1      21.193   0.159  51.068  1.00  0.00     0.000 A 
HETATM   16  C15 UNL     1      21.390   0.912  49.952  1.00  0.00     0.001 A 
HETATM   17  C16 UNL     1      22.401   1.834  49.974  1.00  0.00     0.014 A 
ENDBRANCH   2  12
BRANCH   1  18
HETATM   18  N2  UNL     1      24.723   5.337  50.268  1.00  0.00    -0.253 N 
HETATM   19  H3  UNL     1      25.503   5.011  49.685  1.00  0.00     0.191 HD
BRANCH  18  20
HETATM   20  C1  UNL     1      24.693   6.705  50.708  1.00  0.00     0.185 C 
HETATM   21  S1  UNL     1      25.891   7.597  50.019  1.00  0.00    -0.040 SA
BRANCH  20  22
HETATM   22  N1  UNL     1      24.112   7.745  51.488  1.00  0.00    -0.375 N 
HETATM   23  H1  UNL     1      24.734   8.314  52.130  1.00  0.00     0.158 HD
HETATM   24  H2  UNL     1      23.093   7.954  51.436  1.00  0.00     0.158 HD
ENDBRANCH  20  22
ENDBRANCH  18  20
ENDBRANCH   1  18
TORSDOF 7
ENDMDL
MODEL 9
REMARK VINA RESULT:      -7.1      2.802      6.381
REMARK  7 active torsions:
REMARK  status: ('A' for Active; 'I' for Inactive)
REMARK    1  A    between atoms: N1_1  and  C1_2 
REMARK    2  A    between atoms: C1_2  and  N2_4 
REMARK    3  A    between atoms: N2_4  and  N3_5 
REMARK    4  A    between atoms: C2_6  and  C3_7 
REMARK    5  A    between atoms: C2_6  and  C11_16 
REMARK    6  A    between atoms: C3_7  and  C4_8 
REMARK    7  A    between atoms: C4_8  and  C5_9 
ROOT
HETATM    1  N3  UNL     1      23.799   2.969  51.361  1.00  0.00    -0.172 NA
HETATM    2  C2  UNL     1      25.097   2.815  51.195  1.00  0.00     0.087 C 
ENDROOT
BRANCH   2   3
HETATM    3  C3  UNL     1      25.753   1.689  51.790  1.00  0.00     0.035 C 
BRANCH   3   4
HETATM    4  C4  UNL     1      26.138   0.741  52.605  1.00  0.00     0.017 C 
BRANCH   4   5
HETATM    5  C5  UNL     1      27.384   0.058  52.888  1.00  0.00     0.003 A 
HETATM    6  C6  UNL     1      27.696  -1.276  52.884  1.00  0.00     0.014 A 
HETATM    7  C7  UNL     1      28.859  -1.891  53.249  1.00  0.00     0.001 A 
HETATM    8  C8  UNL     1      29.858  -1.076  53.676  1.00  0.00     0.003 A 
HETATM    9  C9  UNL     1      29.694   0.283  53.732  1.00  0.00     0.043 A 
HETATM   10  C10 UNL     1      28.483   0.790  53.343  1.00  0.00     0.126 A 
HETATM   11  F1  UNL     1      28.363   2.148  53.428  1.00  0.00    -0.205 F 
ENDBRANCH   4   5
ENDBRANCH   3   4
ENDBRANCH   2   3
BRANCH   2  12
HETATM   12  C11 UNL     1      25.631   3.904  50.364  1.00  0.00    -0.006 A 
HETATM   13  C12 UNL     1      25.094   5.137  50.151  1.00  0.00     0.014 A 
HETATM   14  C13 UNL     1      25.568   6.127  49.325  1.00  0.00     0.001 A 
HETATM   15  C14 UNL     1      26.723   5.867  48.618  1.00  0.00     0.000 A 
HETATM   16  C15 UNL     1      27.336   4.662  48.764  1.00  0.00     0.001 A 
HETATM   17  C16 UNL     1      26.769   3.755  49.616  1.00  0.00     0.014 A 
ENDBRANCH   2  12
BRANCH   1  18
HETATM   18  N2  UNL     1      23.067   2.040  52.112  1.00  0.00    -0.253 N 
HETATM   19  H3  UNL     1      23.221   2.268  53.102  1.00  0.00     0.191 HD
BRANCH  18  20
HETATM   20  C1  UNL     1      22.222   0.932  51.765  1.00  0.00     0.185 C 
HETATM   21  S1  UNL     1      22.364  -0.308  52.838  1.00  0.00    -0.040 SA
BRANCH  20  22
HETATM   22  N1  UNL     1      21.260   0.325  50.908  1.00  0.00    -0.375 N 
HETATM   23  H1  UNL     1      20.320   0.043  51.307  1.00  0.00     0.158 HD
HETATM   24  H2  UNL     1      21.466   0.154  49.901  1.00  0.00     0.158 HD
ENDBRANCH  20  22
ENDBRANCH  18  20
ENDBRANCH   1  18
TORSDOF 7
ENDMDL
