MODEL 1
REMARK VINA RESULT:      -9.5      0.000      0.000
REMARK  5 active torsions:
REMARK  status: ('A' for Active; 'I' for Inactive)
REMARK    1  A    between atoms: C1_1  and  C2_2 
REMARK    2  A    between atoms: C3_3  and  O1_4 
REMARK    3  A    between atoms: O1_4  and  C4_5 
REMARK    4  A    between atoms: C13_16  and  C14_17 
REMARK    5  A    between atoms: C18_23  and  C19_24 
ROOT
HETATM    1  C4  UNL     1      25.624  -0.042  53.200  1.00  0.00     0.092 C 
HETATM    2  C5  UNL     1      24.699  -0.579  53.987  1.00  0.00     0.174 C 
HETATM    3  O2  UNL     1      23.375  -0.300  54.073  1.00  0.00    -0.335 OA
HETATM    4  C6  UNL     1      22.262  -1.109  53.900  1.00  0.00     0.344 C 
HETATM    5  O3  UNL     1      21.075  -0.325  54.003  1.00  0.00    -0.358 OA
HETATM    6  C7  UNL     1      19.836  -0.658  53.642  1.00  0.00     0.164 C 
HETATM    7  C8  UNL     1      18.689  -0.899  53.179  1.00  0.00     0.015 A 
HETATM    8  C9  UNL     1      18.244  -0.405  51.897  1.00  0.00     0.008 A 
HETATM    9  C10 UNL     1      17.524  -0.106  50.685  1.00  0.00     0.017 A 
HETATM   10  C11 UNL     1      18.521   0.751  50.168  1.00  0.00     0.028 A 
HETATM   11  C12 UNL     1      19.337   0.541  51.306  1.00  0.00     0.054 A 
HETATM   12  C13 UNL     1      18.540  -0.303  52.007  1.00  0.00     0.008 A 
HETATM   13  C14 UNL     1      17.599  -1.233  52.706  1.00  0.00     0.023 A 
HETATM   14  N1  UNL     1      20.529   1.215  51.273  1.00  0.00    -0.373 N 
HETATM   15  C15 UNL     1      21.912   1.034  51.402  1.00  0.00     0.203 C 
HETATM   16  N2  UNL     1      22.718   1.761  52.146  1.00  0.00    -0.256 NA
HETATM   17  C16 UNL     1      24.104   1.410  52.139  1.00  0.00     0.120 C 
HETATM   18  C17 UNL     1      25.336   1.003  52.227  1.00  0.00     0.058 C 
HETATM   19  H9  UNL     1      20.415   2.236  51.082  1.00  0.00     0.161 HD
ENDROOT
BRANCH   1  20
HETATM   20  O1  UNL     1      26.905  -0.540  53.352  1.00  0.00    -0.339 OA
BRANCH  20  21
HETATM   21  C3  UNL     1      28.086   0.119  52.931  1.00  0.00     0.164 A 
HETATM   22  C2  UNL     1      28.675   0.949  53.620  1.00  0.00    -0.029 A 
HETATM   23  C18 UNL     1      29.209  -0.651  54.189  1.00  0.00     0.086 A 
BRANCH  22  24
HETATM   24  C1  UNL     1      29.083   1.494  54.097  1.00  0.00     0.003 A 
HETATM   25  N3  UNL     1      29.570   2.176  54.669  1.00  0.00    -0.291 NA
HETATM   26  C19 UNL     1      28.586   2.599  53.560  1.00  0.00     0.132 A 
HETATM   27  H17 UNL     1      29.923   3.050  55.092  1.00  0.00     0.127 HD
ENDBRANCH  22  24
ENDBRANCH  20  21
ENDBRANCH   1  20
TORSDOF 5
ENDMDL
MODEL 2
REMARK VINA RESULT:      -8.9      1.966      8.675
REMARK  5 active torsions:
REMARK  status: ('A' for Active; 'I' for Inactive)
REMARK    1  A    between atoms: C1_1  and  C2_2 
REMARK    2  A    between atoms: C3_3  and  O1_4 
REMARK    3  A    between atoms: O1_4  and  C4_5 
REMARK    4  A    between atoms: C13_16  and  C14_17 
REMARK    5  A    between atoms: C18_23  and  C19_24 
ROOT
HETATM    1  C4  UNL     1      21.307   0.608  52.478  1.00  0.00     0.092 C 
HETATM    2  C5  UNL     1      22.024   1.710  52.670  1.00  0.00     0.174 C 
HETATM    3  O2  UNL     1      23.210   1.865  53.308  1.00  0.00    -0.335 OA
HETATM    4  C6  UNL     1      24.426   2.357  52.860  1.00  0.00     0.344 C 
HETATM    5  O3  UNL     1      25.406   2.229  53.888  1.00  0.00    -0.358 OA
HETATM    6  C7  UNL     1      26.730   2.331  53.779  1.00  0.00     0.164 C 
HETATM    7  C8  UNL     1      27.985   2.284  53.671  1.00  0.00     0.015 A 
HETATM    8  C9  UNL     1      28.716   1.041  53.583  1.00  0.00     0.008 A 
HETATM    9  C10 UNL     1      29.712   0.010  53.443  1.00  0.00     0.017 A 
HETATM   10  C11 UNL     1      28.802  -1.055  53.628  1.00  0.00     0.028 A 
HETATM   11  C12 UNL     1      27.725  -0.150  53.780  1.00  0.00     0.054 A 
HETATM   12  C13 UNL     1      28.389   1.024  53.639  1.00  0.00     0.008 A 
HETATM   13  C14 UNL     1      29.202   2.268  53.466  1.00  0.00     0.023 A 
HETATM   14  N1  UNL     1      26.513  -0.752  53.994  1.00  0.00    -0.373 N 
HETATM   15  C15 UNL     1      25.195  -0.794  53.525  1.00  0.00     0.203 C 
HETATM   16  N2  UNL     1      24.109  -0.716  54.266  1.00  0.00    -0.256 NA
HETATM   17  C16 UNL     1      22.852  -0.779  53.589  1.00  0.00     0.120 C 
HETATM   18  C17 UNL     1      21.719  -0.705  52.954  1.00  0.00     0.058 C 
HETATM   19  H9  UNL     1      26.533  -1.440  54.781  1.00  0.00     0.161 HD
ENDROOT
BRANCH   1  20
HETATM   20  O1  UNL     1      20.123   0.775  51.785  1.00  0.00    -0.339 OA
BRANCH  20  21
HETATM   21  C3  UNL     1      19.188  -0.255  51.518  1.00  0.00     0.164 A 
HETATM   22  C2  UNL     1      18.258  -0.532  52.272  1.00  0.00    -0.029 A 
HETATM   23  C18 UNL     1      17.719   0.854  51.294  1.00  0.00     0.086 A 
BRANCH  22  24
HETATM   24  C1  UNL     1      17.618  -0.703  52.775  1.00  0.00     0.003 A 
HETATM   25  N3  UNL     1      16.849  -0.928  53.397  1.00  0.00    -0.291 NA
HETATM   26  C19 UNL     1      18.159  -1.741  53.397  1.00  0.00     0.132 A 
HETATM   27  H17 UNL     1      16.241  -1.359  54.112  1.00  0.00     0.127 HD
ENDBRANCH  22  24
ENDBRANCH  20  21
ENDBRANCH   1  20
TORSDOF 5
ENDMDL
MODEL 3
REMARK VINA RESULT:      -8.5      4.518      7.984
REMARK  5 active torsions:
REMARK  status: ('A' for Active; 'I' for Inactive)
REMARK    1  A    between atoms: C1_1  and  C2_2 
REMARK    2  A    between atoms: C3_3  and  O1_4 
REMARK    3  A    between atoms: O1_4  and  C4_5 
REMARK    4  A    between atoms: C13_16  and  C14_17 
REMARK    5  A    between atoms: C18_23  and  C19_24 
ROOT
HETATM    1  C4  UNL     1      22.994   1.849  52.332  1.00  0.00     0.092 C 
HETATM    2  C5  UNL     1      24.222   1.601  51.891  1.00  0.00     0.174 C 
HETATM    3  O2  UNL     1      24.880   2.132  50.832  1.00  0.00    -0.335 OA
HETATM    4  C6  UNL     1      26.077   2.829  50.761  1.00  0.00     0.344 C 
HETATM    5  O3  UNL     1      26.302   3.265  49.422  1.00  0.00    -0.358 OA
HETATM    6  C7  UNL     1      27.177   4.172  48.989  1.00  0.00     0.164 C 
HETATM    7  C8  UNL     1      27.896   5.123  48.580  1.00  0.00     0.015 A 
HETATM    8  C9  UNL     1      27.375   6.449  48.338  1.00  0.00     0.008 A 
HETATM    9  C10 UNL     1      27.185   7.846  48.041  1.00  0.00     0.017 A 
HETATM   10  C11 UNL     1      25.783   7.811  48.216  1.00  0.00     0.028 A 
HETATM   11  C12 UNL     1      25.825   6.432  48.532  1.00  0.00     0.054 A 
HETATM   12  C13 UNL     1      27.158   6.210  48.419  1.00  0.00     0.008 A 
HETATM   13  C14 UNL     1      28.639   6.060  48.276  1.00  0.00     0.023 A 
HETATM   14  N1  UNL     1      24.601   5.884  48.812  1.00  0.00    -0.373 N 
HETATM   15  C15 UNL     1      23.914   5.132  49.773  1.00  0.00     0.203 C 
HETATM   16  N2  UNL     1      23.166   4.075  49.535  1.00  0.00    -0.256 NA
HETATM   17  C16 UNL     1      22.548   3.448  50.661  1.00  0.00     0.120 C 
HETATM   18  C17 UNL     1      22.098   2.809  51.701  1.00  0.00     0.058 C 
HETATM   19  H9  UNL     1      23.891   6.073  48.069  1.00  0.00     0.161 HD
ENDROOT
BRANCH   1  20
HETATM   20  O1  UNL     1      22.600   1.135  53.448  1.00  0.00    -0.339 OA
BRANCH  20  21
HETATM   21  C3  UNL     1      22.609  -0.278  53.550  1.00  0.00     0.164 A 
HETATM   22  C2  UNL     1      22.935  -0.877  54.572  1.00  0.00    -0.029 A 
HETATM   23  C18 UNL     1      21.232  -0.403  54.785  1.00  0.00     0.086 A 
BRANCH  22  24
HETATM   24  C1  UNL     1      23.135  -1.279  55.271  1.00  0.00     0.003 A 
HETATM   25  N3  UNL     1      23.402  -1.766  56.121  1.00  0.00    -0.291 NA
HETATM   26  C19 UNL     1      24.452  -1.202  55.143  1.00  0.00     0.132 A 
HETATM   27  H17 UNL     1      23.930  -2.207  56.891  1.00  0.00     0.127 HD
ENDBRANCH  22  24
ENDBRANCH  20  21
ENDBRANCH   1  20
TORSDOF 5
ENDMDL
MODEL 4
REMARK VINA RESULT:      -8.5      3.023      8.377
REMARK  5 active torsions:
REMARK  status: ('A' for Active; 'I' for Inactive)
REMARK    1  A    between atoms: C1_1  and  C2_2 
REMARK    2  A    between atoms: C3_3  and  O1_4 
REMARK    3  A    between atoms: O1_4  and  C4_5 
REMARK    4  A    between atoms: C13_16  and  C14_17 
REMARK    5  A    between atoms: C18_23  and  C19_24 
ROOT
HETATM    1  C4  UNL     1      22.623   2.433  52.272  1.00  0.00     0.092 C 
HETATM    2  C5  UNL     1      23.729   3.023  52.711  1.00  0.00     0.174 C 
HETATM    3  O2  UNL     1      24.782   2.489  53.379  1.00  0.00    -0.335 OA
HETATM    4  C6  UNL     1      26.131   2.445  53.064  1.00  0.00     0.344 C 
HETATM    5  O3  UNL     1      26.831   1.685  54.046  1.00  0.00    -0.358 OA
HETATM    6  C7  UNL     1      28.066   1.188  53.975  1.00  0.00     0.164 C 
HETATM    7  C8  UNL     1      29.172   0.593  53.870  1.00  0.00     0.015 A 
HETATM    8  C9  UNL     1      29.278  -0.803  53.514  1.00  0.00     0.008 A 
HETATM    9  C10 UNL     1      29.720  -2.127  53.156  1.00  0.00     0.017 A 
HETATM   10  C11 UNL     1      28.417  -2.669  53.091  1.00  0.00     0.028 A 
HETATM   11  C12 UNL     1      27.845  -1.420  53.431  1.00  0.00     0.054 A 
HETATM   12  C13 UNL     1      28.974  -0.679  53.561  1.00  0.00     0.008 A 
HETATM   13  C14 UNL     1      30.269   0.061  53.677  1.00  0.00     0.023 A 
HETATM   14  N1  UNL     1      26.477  -1.428  53.494  1.00  0.00    -0.373 N 
HETATM   15  C15 UNL     1      25.339  -0.768  53.015  1.00  0.00     0.203 C 
HETATM   16  N2  UNL     1      24.326  -0.348  53.746  1.00  0.00    -0.256 NA
HETATM   17  C16 UNL     1      23.256   0.306  53.060  1.00  0.00     0.120 C 
HETATM   18  C17 UNL     1      22.352   1.012  52.447  1.00  0.00     0.058 C 
HETATM   19  H9  UNL     1      26.102  -2.186  54.108  1.00  0.00     0.161 HD
ENDROOT
BRANCH   1  20
HETATM   20  O1  UNL     1      21.721   3.255  51.623  1.00  0.00    -0.339 OA
BRANCH  20  21
HETATM   21  C3  UNL     1      21.738   3.538  50.235  1.00  0.00     0.164 A 
HETATM   22  C2  UNL     1      21.049   2.934  49.416  1.00  0.00    -0.029 A 
HETATM   23  C18 UNL     1      20.001   4.181  50.136  1.00  0.00     0.086 A 
BRANCH  22  24
HETATM   24  C1  UNL     1      20.566   2.538  48.868  1.00  0.00     0.003 A 
HETATM   25  N3  UNL     1      19.992   2.039  48.196  1.00  0.00    -0.291 NA
HETATM   26  C19 UNL     1      21.401   1.549  48.585  1.00  0.00     0.132 A 
HETATM   27  H17 UNL     1      19.630   1.361  47.506  1.00  0.00     0.127 HD
ENDBRANCH  22  24
ENDBRANCH  20  21
ENDBRANCH   1  20
TORSDOF 5
ENDMDL
MODEL 5
REMARK VINA RESULT:      -8.3      5.580      7.525
REMARK  5 active torsions:
REMARK  status: ('A' for Active; 'I' for Inactive)
REMARK    1  A    between atoms: C1_1  and  C2_2 
REMARK    2  A    between atoms: C3_3  and  O1_4 
REMARK    3  A    between atoms: O1_4  and  C4_5 
REMARK    4  A    between atoms: C13_16  and  C14_17 
REMARK    5  A    between atoms: C18_23  and  C19_24 
ROOT
HETATM    1  C4  UNL     1      25.392   6.120  48.790  1.00  0.00     0.092 C 
HETATM    2  C5  UNL     1      24.263   5.470  49.048  1.00  0.00     0.174 C 
HETATM    3  O2  UNL     1      24.079   4.183  49.431  1.00  0.00    -0.335 OA
HETATM    4  C6  UNL     1      23.468   3.647  50.554  1.00  0.00     0.344 C 
HETATM    5  O3  UNL     1      23.612   2.229  50.550  1.00  0.00    -0.358 OA
HETATM    6  C7  UNL     1      23.408   1.379  51.557  1.00  0.00     0.164 C 
HETATM    7  C8  UNL     1      23.358   0.579  52.530  1.00  0.00     0.015 A 
HETATM    8  C9  UNL     1      24.535   0.144  53.245  1.00  0.00     0.008 A 
HETATM    9  C10 UNL     1      25.479  -0.442  54.163  1.00  0.00     0.017 A 
HETATM   10  C11 UNL     1      26.617   0.074  53.502  1.00  0.00     0.028 A 
HETATM   11  C12 UNL     1      25.805   0.709  52.532  1.00  0.00     0.054 A 
HETATM   12  C13 UNL     1      24.580   0.333  52.976  1.00  0.00     0.008 A 
HETATM   13  C14 UNL     1      23.272  -0.125  53.540  1.00  0.00     0.023 A 
HETATM   14  N1  UNL     1      26.506   1.410  51.587  1.00  0.00    -0.373 N 
HETATM   15  C15 UNL     1      26.601   2.668  50.980  1.00  0.00     0.203 C 
HETATM   16  N2  UNL     1      26.662   2.897  49.684  1.00  0.00    -0.256 NA
HETATM   17  C16 UNL     1      26.756   4.260  49.267  1.00  0.00     0.120 C 
HETATM   18  C17 UNL     1      26.709   5.506  48.895  1.00  0.00     0.058 C 
HETATM   19  H9  UNL     1      27.254   0.841  51.130  1.00  0.00     0.161 HD
ENDROOT
BRANCH   1  20
HETATM   20  O1  UNL     1      25.252   7.442  48.411  1.00  0.00    -0.339 OA
BRANCH  20  21
HETATM   21  C3  UNL     1      25.223   8.542  49.304  1.00  0.00     0.164 A 
HETATM   22  C2  UNL     1      26.139   9.355  49.400  1.00  0.00    -0.029 A 
HETATM   23  C18 UNL     1      25.159   9.861  48.003  1.00  0.00     0.086 A 
BRANCH  22  24
HETATM   24  C1  UNL     1      26.752   9.916  49.447  1.00  0.00     0.003 A 
HETATM   25  N3  UNL     1      27.509  10.587  49.520  1.00  0.00    -0.291 NA
HETATM   26  C19 UNL     1      27.484   9.295  50.361  1.00  0.00     0.132 A 
HETATM   27  H17 UNL     1      28.376  11.085  49.781  1.00  0.00     0.127 HD
ENDBRANCH  22  24
ENDBRANCH  20  21
ENDBRANCH   1  20
TORSDOF 5
ENDMDL
MODEL 6
REMARK VINA RESULT:      -8.1      1.744      8.475
REMARK  5 active torsions:
REMARK  status: ('A' for Active; 'I' for Inactive)
REMARK    1  A    between atoms: C1_1  and  C2_2 
REMARK    2  A    between atoms: C3_3  and  O1_4 
REMARK    3  A    between atoms: O1_4  and  C4_5 
REMARK    4  A    between atoms: C13_16  and  C14_17 
REMARK    5  A    between atoms: C18_23  and  C19_24 
ROOT
HETATM    1  C4  UNL     1      21.186   1.106  51.940  1.00  0.00     0.092 C 
HETATM    2  C5  UNL     1      21.844   0.041  52.384  1.00  0.00     0.174 C 
HETATM    3  O2  UNL     1      23.172  -0.228  52.345  1.00  0.00    -0.335 OA
HETATM    4  C6  UNL     1      24.077  -0.492  53.362  1.00  0.00     0.344 C 
HETATM    5  O3  UNL     1      25.389  -0.620  52.818  1.00  0.00    -0.358 OA
HETATM    6  C7  UNL     1      26.552  -0.607  53.468  1.00  0.00     0.164 C 
HETATM    7  C8  UNL     1      27.663  -0.457  54.045  1.00  0.00     0.015 A 
HETATM    8  C9  UNL     1      28.382   0.797  54.042  1.00  0.00     0.008 A 
HETATM    9  C10 UNL     1      29.309   1.879  54.252  1.00  0.00     0.017 A 
HETATM   10  C11 UNL     1      28.621   2.785  53.415  1.00  0.00     0.028 A 
HETATM   11  C12 UNL     1      27.632   1.814  53.125  1.00  0.00     0.054 A 
HETATM   12  C13 UNL     1      28.106   0.777  53.859  1.00  0.00     0.008 A 
HETATM   13  C14 UNL     1      28.698  -0.308  54.700  1.00  0.00     0.023 A 
HETATM   14  N1  UNL     1      26.647   2.252  52.280  1.00  0.00    -0.373 N 
HETATM   15  C15 UNL     1      25.256   2.356  52.153  1.00  0.00     0.203 C 
HETATM   16  N2  UNL     1      24.549   1.997  51.102  1.00  0.00    -0.256 NA
HETATM   17  C16 UNL     1      23.134   2.185  51.174  1.00  0.00     0.120 C 
HETATM   18  C17 UNL     1      21.840   2.239  51.300  1.00  0.00     0.058 C 
HETATM   19  H9  UNL     1      27.022   2.674  51.400  1.00  0.00     0.161 HD
ENDROOT
BRANCH   1  20
HETATM   20  O1  UNL     1      19.816   1.085  52.123  1.00  0.00    -0.339 OA
BRANCH  20  21
HETATM   21  C3  UNL     1      18.955   0.052  51.677  1.00  0.00     0.164 A 
HETATM   22  C2  UNL     1      18.045  -0.409  52.362  1.00  0.00    -0.029 A 
HETATM   23  C18 UNL     1      17.413   1.080  51.620  1.00  0.00     0.086 A 
BRANCH  22  24
HETATM   24  C1  UNL     1      17.417  -0.704  52.821  1.00  0.00     0.003 A 
HETATM   25  N3  UNL     1      16.665  -1.079  53.389  1.00  0.00    -0.291 NA
HETATM   26  C19 UNL     1      18.076  -1.700  53.396  1.00  0.00     0.132 A 
HETATM   27  H17 UNL     1      16.097  -1.642  54.044  1.00  0.00     0.127 HD
ENDBRANCH  22  24
ENDBRANCH  20  21
ENDBRANCH   1  20
TORSDOF 5
ENDMDL
MODEL 7
REMARK VINA RESULT:      -7.6      5.238      8.653
REMARK  5 active torsions:
REMARK  status: ('A' for Active; 'I' for Inactive)
REMARK    1  A    between atoms: C1_1  and  C2_2 
REMARK    2  A    between atoms: C3_3  and  O1_4 
REMARK    3  A    between atoms: O1_4  and  C4_5 
REMARK    4  A    between atoms: C13_16  and  C14_17 
REMARK    5  A    between atoms: C18_23  and  C19_24 
ROOT
HETATM    1  C4  UNL     1      22.447   3.230  51.784  1.00  0.00     0.092 C 
HETATM    2  C5  UNL     1      23.180   3.046  50.692  1.00  0.00     0.174 C 
HETATM    3  O2  UNL     1      23.764   3.963  49.883  1.00  0.00    -0.335 OA
HETATM    4  C6  UNL     1      25.091   4.148  49.526  1.00  0.00     0.344 C 
HETATM    5  O3  UNL     1      25.215   5.317  48.718  1.00  0.00    -0.358 OA
HETATM    6  C7  UNL     1      26.325   5.981  48.398  1.00  0.00     0.164 C 
HETATM    7  C8  UNL     1      27.342   6.700  48.202  1.00  0.00     0.015 A 
HETATM    8  C9  UNL     1      27.626   7.881  48.984  1.00  0.00     0.008 A 
HETATM    9  C10 UNL     1      28.201   9.058  49.582  1.00  0.00     0.017 A 
HETATM   10  C11 UNL     1      27.111   9.291  50.450  1.00  0.00     0.028 A 
HETATM   11  C12 UNL     1      26.433   8.151  49.954  1.00  0.00     0.054 A 
HETATM   12  C13 UNL     1      27.338   7.726  49.038  1.00  0.00     0.008 A 
HETATM   13  C14 UNL     1      28.394   7.328  48.056  1.00  0.00     0.023 A 
HETATM   14  N1  UNL     1      25.216   7.924  50.540  1.00  0.00    -0.373 N 
HETATM   15  C15 UNL     1      24.462   6.940  51.190  1.00  0.00     0.203 C 
HETATM   16  N2  UNL     1      23.216   6.615  50.913  1.00  0.00    -0.256 NA
HETATM   17  C16 UNL     1      22.624   5.577  51.698  1.00  0.00     0.120 C 
HETATM   18  C17 UNL     1      22.140   4.547  52.327  1.00  0.00     0.058 C 
HETATM   19  H9  UNL     1      24.593   8.763  50.523  1.00  0.00     0.161 HD
ENDROOT
BRANCH   1  20
HETATM   20  O1  UNL     1      21.981   2.081  52.396  1.00  0.00    -0.339 OA
BRANCH  20  21
HETATM   21  C3  UNL     1      22.532   0.788  52.217  1.00  0.00     0.164 A 
HETATM   22  C2  UNL     1      23.408   0.323  52.942  1.00  0.00    -0.029 A 
HETATM   23  C18 UNL     1      21.862   0.061  53.785  1.00  0.00     0.086 A 
BRANCH  22  24
HETATM   24  C1  UNL     1      23.985   0.004  53.448  1.00  0.00     0.003 A 
HETATM   25  N3  UNL     1      24.706  -0.378  54.052  1.00  0.00    -0.291 NA
HETATM   26  C19 UNL     1      25.050   0.421  52.779  1.00  0.00     0.132 A 
HETATM   27  H17 UNL     1      25.608  -0.647  54.477  1.00  0.00     0.127 HD
ENDBRANCH  22  24
ENDBRANCH  20  21
ENDBRANCH   1  20
TORSDOF 5
ENDMDL
MODEL 8
REMARK VINA RESULT:      -7.5      2.233      8.363
REMARK  5 active torsions:
REMARK  status: ('A' for Active; 'I' for Inactive)
REMARK    1  A    between atoms: C1_1  and  C2_2 
REMARK    2  A    between atoms: C3_3  and  O1_4 
REMARK    3  A    between atoms: O1_4  and  C4_5 
REMARK    4  A    between atoms: C13_16  and  C14_17 
REMARK    5  A    between atoms: C18_23  and  C19_24 
ROOT
HETATM    1  C4  UNL     1      21.010   2.717  52.172  1.00  0.00     0.092 C 
HETATM    2  C5  UNL     1      21.454   1.467  52.244  1.00  0.00     0.174 C 
HETATM    3  O2  UNL     1      22.704   0.985  52.035  1.00  0.00    -0.335 OA
HETATM    4  C6  UNL     1      23.554   0.272  52.866  1.00  0.00     0.344 C 
HETATM    5  O3  UNL     1      24.808   0.074  52.218  1.00  0.00    -0.358 OA
HETATM    6  C7  UNL     1      25.961  -0.318  52.760  1.00  0.00     0.164 C 
HETATM    7  C8  UNL     1      27.088  -0.549  53.275  1.00  0.00     0.015 A 
HETATM    8  C9  UNL     1      28.037   0.496  53.582  1.00  0.00     0.008 A 
HETATM    9  C10 UNL     1      29.160   1.280  54.028  1.00  0.00     0.017 A 
HETATM   10  C11 UNL     1      28.649   2.503  53.538  1.00  0.00     0.028 A 
HETATM   11  C12 UNL     1      27.486   1.858  53.052  1.00  0.00     0.054 A 
HETATM   12  C13 UNL     1      27.759   0.582  53.421  1.00  0.00     0.008 A 
HETATM   13  C14 UNL     1      28.141  -0.793  53.871  1.00  0.00     0.023 A 
HETATM   14  N1  UNL     1      26.593   2.698  52.441  1.00  0.00    -0.373 N 
HETATM   15  C15 UNL     1      25.248   3.085  52.448  1.00  0.00     0.203 C 
HETATM   16  N2  UNL     1      24.470   3.189  51.391  1.00  0.00    -0.256 NA
HETATM   17  C16 UNL     1      23.120   3.602  51.614  1.00  0.00     0.120 C 
HETATM   18  C17 UNL     1      21.863   3.850  51.840  1.00  0.00     0.058 C 
HETATM   19  H9  UNL     1      27.032   3.285  51.695  1.00  0.00     0.161 HD
ENDROOT
BRANCH   1  20
HETATM   20  O1  UNL     1      19.665   2.892  52.438  1.00  0.00    -0.339 OA
BRANCH  20  21
HETATM   21  C3  UNL     1      18.713   3.385  51.511  1.00  0.00     0.164 A 
HETATM   22  C2  UNL     1      18.565   2.916  50.385  1.00  0.00    -0.029 A 
HETATM   23  C18 UNL     1      17.642   1.872  51.493  1.00  0.00     0.086 A 
BRANCH  22  24
HETATM   24  C1  UNL     1      18.452   2.583  49.632  1.00  0.00     0.003 A 
HETATM   25  N3  UNL     1      18.327   2.193  48.703  1.00  0.00    -0.291 NA
HETATM   26  C19 UNL     1      19.089   3.513  48.935  1.00  0.00     0.132 A 
HETATM   27  H17 UNL     1      18.344   2.024  47.685  1.00  0.00     0.127 HD
ENDBRANCH  22  24
ENDBRANCH  20  21
ENDBRANCH   1  20
TORSDOF 5
ENDMDL
MODEL 9
REMARK VINA RESULT:      -7.5      5.746      7.997
REMARK  5 active torsions:
REMARK  status: ('A' for Active; 'I' for Inactive)
REMARK    1  A    between atoms: C1_1  and  C2_2 
REMARK    2  A    between atoms: C3_3  and  O1_4 
REMARK    3  A    between atoms: O1_4  and  C4_5 
REMARK    4  A    between atoms: C13_16  and  C14_17 
REMARK    5  A    between atoms: C18_23  and  C19_24 
ROOT
HETATM    1  C4  UNL     1      24.597   6.226  48.772  1.00  0.00     0.092 C 
HETATM    2  C5  UNL     1      25.713   5.516  48.904  1.00  0.00     0.174 C 
HETATM    3  O2  UNL     1      26.093   4.691  49.909  1.00  0.00    -0.335 OA
HETATM    4  C6  UNL     1      26.429   3.345  49.906  1.00  0.00     0.344 C 
HETATM    5  O3  UNL     1      26.670   2.905  51.240  1.00  0.00    -0.358 OA
HETATM    6  C7  UNL     1      26.754   1.653  51.689  1.00  0.00     0.164 C 
HETATM    7  C8  UNL     1      26.696   0.483  52.156  1.00  0.00     0.015 A 
HETATM    8  C9  UNL     1      25.508  -0.051  52.782  1.00  0.00     0.008 A 
HETATM    9  C10 UNL     1      24.508  -0.872  53.414  1.00  0.00     0.017 A 
HETATM   10  C11 UNL     1      23.550   0.163  53.506  1.00  0.00     0.028 A 
HETATM   11  C12 UNL     1      24.434   1.079  52.888  1.00  0.00     0.054 A 
HETATM   12  C13 UNL     1      25.505   0.269  52.693  1.00  0.00     0.008 A 
HETATM   13  C14 UNL     1      26.633  -0.696  52.514  1.00  0.00     0.023 A 
HETATM   14  N1  UNL     1      23.918   2.338  52.731  1.00  0.00    -0.373 N 
HETATM   15  C15 UNL     1      23.697   3.337  51.775  1.00  0.00     0.203 C 
HETATM   16  N2  UNL     1      23.999   4.612  51.909  1.00  0.00    -0.256 NA
HETATM   17  C16 UNL     1      23.691   5.473  50.811  1.00  0.00     0.120 C 
HETATM   18  C17 UNL     1      23.527   6.221  49.760  1.00  0.00     0.058 C 
HETATM   19  H9  UNL     1      23.534   2.734  53.619  1.00  0.00     0.161 HD
ENDROOT
BRANCH   1  20
HETATM   20  O1  UNL     1      24.501   6.984  47.620  1.00  0.00    -0.339 OA
BRANCH  20  21
HETATM   21  C3  UNL     1      25.166   8.217  47.404  1.00  0.00     0.164 A 
HETATM   22  C2  UNL     1      26.142   8.335  46.668  1.00  0.00    -0.029 A 
HETATM   23  C18 UNL     1      24.707   8.387  45.616  1.00  0.00     0.086 A 
BRANCH  22  24
HETATM   24  C1  UNL     1      26.789   8.415  46.152  1.00  0.00     0.003 A 
HETATM   25  N3  UNL     1      27.593   8.509  45.540  1.00  0.00    -0.291 NA
HETATM   26  C19 UNL     1      27.748   8.216  47.046  1.00  0.00     0.132 A 
HETATM   27  H17 UNL     1      28.550   8.555  45.154  1.00  0.00     0.127 HD
ENDBRANCH  22  24
ENDBRANCH  20  21
ENDBRANCH   1  20
TORSDOF 5
ENDMDL
