MODEL 1
REMARK VINA RESULT:      -7.8      0.000      0.000
REMARK  3 active torsions:
REMARK  status: ('A' for Active; 'I' for Inactive)
REMARK    1  A    between atoms: C2_2  and  C3_3 
REMARK    2  A    between atoms: C8_8  and  C9_9 
REMARK    3  A    between atoms: C14_16  and  O1_17 
ROOT
HETATM    1  C9  UNL     1      24.673  -0.230  54.183  1.00  0.00     0.081 A 
HETATM    2  N1  UNL     1      24.631  -1.003  55.253  1.00  0.00    -0.240 NA
HETATM    3  C10 UNL     1      23.508  -1.592  55.692  1.00  0.00     0.234 A 
HETATM    4  N2  UNL     1      22.344  -1.417  55.047  1.00  0.00    -0.241 NA
HETATM    5  C11 UNL     1      22.333  -0.638  53.953  1.00  0.00     0.069 A 
HETATM    6  C12 UNL     1      23.487  -0.036  53.509  1.00  0.00     0.025 A 
HETATM    7  C13 UNL     1      23.817   0.802  52.544  1.00  0.00     0.054 C 
HETATM    8  C14 UNL     1      23.097   1.442  51.452  1.00  0.00     0.090 C 
HETATM    9  C16 UNL     1      21.893   1.241  50.939  1.00  0.00     0.171 C 
HETATM   10  O2  UNL     1      20.869   0.349  51.253  1.00  0.00    -0.357 OA
HETATM   11  C17 UNL     1      20.222  -0.074  52.434  1.00  0.00     0.204 C 
HETATM   12  C18 UNL     1      21.106  -0.597  53.473  1.00  0.00     0.032 C 
ENDROOT
BRANCH   1  13
HETATM   13  C8  UNL     1      25.977   0.284  53.875  1.00  0.00    -0.000 A 
HETATM   14  C3  UNL     1      26.904  -0.429  53.131  1.00  0.00    -0.046 A 
HETATM   15  C4  UNL     1      28.130   0.109  52.792  1.00  0.00     0.008 A 
HETATM   16  C5  UNL     1      28.522   1.375  53.159  1.00  0.00     0.001 A 
HETATM   17  C6  UNL     1      27.655   2.146  53.901  1.00  0.00     0.001 A 
HETATM   18  C7  UNL     1      26.448   1.569  54.215  1.00  0.00     0.014 A 
BRANCH  14  19
HETATM   19  C2  UNL     1      26.689  -1.800  52.628  1.00  0.00     0.035 C 
HETATM   20  C1  UNL     1      27.943  -2.622  52.796  1.00  0.00     0.010 C 
ENDBRANCH  14  19
ENDBRANCH   1  13
BRANCH   8  21
HETATM   21  O1  UNL     1      23.893   2.434  50.903  1.00  0.00    -0.354 OA
HETATM   22  C15 UNL     1      25.271   2.560  50.988  1.00  0.00     0.210 C 
ENDBRANCH   8  21
TORSDOF 3
ENDMDL
MODEL 2
REMARK VINA RESULT:      -7.6      2.463      3.808
REMARK  3 active torsions:
REMARK  status: ('A' for Active; 'I' for Inactive)
REMARK    1  A    between atoms: C2_2  and  C3_3 
REMARK    2  A    between atoms: C8_8  and  C9_9 
REMARK    3  A    between atoms: C14_16  and  O1_17 
ROOT
HETATM    1  C9  UNL     1      26.270   1.948  51.764  1.00  0.00     0.081 A 
HETATM    2  N1  UNL     1      26.792   2.689  50.803  1.00  0.00    -0.240 NA
HETATM    3  C10 UNL     1      26.055   3.321  49.877  1.00  0.00     0.234 A 
HETATM    4  N2  UNL     1      24.716   3.225  49.884  1.00  0.00    -0.241 NA
HETATM    5  C11 UNL     1      24.135   2.481  50.839  1.00  0.00     0.069 A 
HETATM    6  C12 UNL     1      24.897   1.835  51.785  1.00  0.00     0.025 A 
HETATM    7  C13 UNL     1      24.674   1.012  52.792  1.00  0.00     0.054 C 
HETATM    8  C14 UNL     1      23.481   0.443  53.405  1.00  0.00     0.090 C 
HETATM    9  C16 UNL     1      22.193   0.721  53.275  1.00  0.00     0.171 C 
HETATM   10  O2  UNL     1      21.500   1.654  52.506  1.00  0.00    -0.357 OA
HETATM   11  C17 UNL     1      21.525   2.072  51.159  1.00  0.00     0.204 C 
HETATM   12  C18 UNL     1      22.829   2.518  50.671  1.00  0.00     0.032 C 
ENDROOT
BRANCH   1  13
HETATM   13  C8  UNL     1      27.233   1.378  52.662  1.00  0.00    -0.000 A 
HETATM   14  C3  UNL     1      27.498   0.017  52.707  1.00  0.00    -0.046 A 
HETATM   15  C4  UNL     1      28.473  -0.504  53.533  1.00  0.00     0.008 A 
HETATM   16  C5  UNL     1      29.247   0.271  54.365  1.00  0.00     0.001 A 
HETATM   17  C6  UNL     1      29.042   1.633  54.377  1.00  0.00     0.001 A 
HETATM   18  C7  UNL     1      28.062   2.106  53.539  1.00  0.00     0.014 A 
BRANCH  14  19
HETATM   19  C2  UNL     1      26.793  -0.995  51.896  1.00  0.00     0.035 C 
HETATM   20  C1  UNL     1      27.013  -2.372  52.470  1.00  0.00     0.010 C 
ENDBRANCH  14  19
ENDBRANCH   1  13
BRANCH   8  21
HETATM   21  O1  UNL     1      23.855  -0.570  54.271  1.00  0.00    -0.354 OA
HETATM   22  C15 UNL     1      23.051  -1.268  55.161  1.00  0.00     0.210 C 
ENDBRANCH   8  21
TORSDOF 3
ENDMDL
MODEL 3
REMARK VINA RESULT:      -7.5      2.824      6.383
REMARK  3 active torsions:
REMARK  status: ('A' for Active; 'I' for Inactive)
REMARK    1  A    between atoms: C2_2  and  C3_3 
REMARK    2  A    between atoms: C8_8  and  C9_9 
REMARK    3  A    between atoms: C14_16  and  O1_17 
ROOT
HETATM    1  C9  UNL     1      24.224   2.276  51.019  1.00  0.00     0.081 A 
HETATM    2  N1  UNL     1      24.838   3.145  50.237  1.00  0.00    -0.240 NA
HETATM    3  C10 UNL     1      26.163   3.353  50.265  1.00  0.00     0.234 A 
HETATM    4  N2  UNL     1      26.948   2.668  51.113  1.00  0.00    -0.241 NA
HETATM    5  C11 UNL     1      26.371   1.772  51.931  1.00  0.00     0.069 A 
HETATM    6  C12 UNL     1      25.012   1.566  51.898  1.00  0.00     0.025 A 
HETATM    7  C13 UNL     1      24.140   0.836  52.569  1.00  0.00     0.054 C 
HETATM    8  C14 UNL     1      24.235  -0.146  53.641  1.00  0.00     0.090 C 
HETATM    9  C16 UNL     1      25.264  -0.787  54.174  1.00  0.00     0.171 C 
HETATM   10  O2  UNL     1      26.633  -0.759  53.913  1.00  0.00    -0.357 OA
HETATM   11  C17 UNL     1      27.607   0.245  53.726  1.00  0.00     0.204 C 
HETATM   12  C18 UNL     1      27.305   1.214  52.675  1.00  0.00     0.032 C 
ENDROOT
BRANCH   1  13
HETATM   13  C8  UNL     1      22.806   2.194  50.815  1.00  0.00    -0.000 A 
HETATM   14  C3  UNL     1      21.916   3.091  51.387  1.00  0.00    -0.046 A 
HETATM   15  C4  UNL     1      20.562   3.034  51.128  1.00  0.00     0.008 A 
HETATM   16  C5  UNL     1      19.995   2.097  50.295  1.00  0.00     0.001 A 
HETATM   17  C6  UNL     1      20.815   1.171  49.689  1.00  0.00     0.001 A 
HETATM   18  C7  UNL     1      22.155   1.267  49.976  1.00  0.00     0.014 A 
BRANCH  14  19
HETATM   19  C2  UNL     1      22.307   4.179  52.305  1.00  0.00     0.035 C 
HETATM   20  C1  UNL     1      22.297   5.503  51.583  1.00  0.00     0.010 C 
ENDBRANCH  14  19
ENDBRANCH   1  13
BRANCH   8  21
HETATM   21  O1  UNL     1      22.968  -0.400  54.138  1.00  0.00    -0.354 OA
HETATM   22  C15 UNL     1      21.764   0.137  53.706  1.00  0.00     0.210 C 
ENDBRANCH   8  21
TORSDOF 3
ENDMDL
MODEL 4
REMARK VINA RESULT:      -7.5      2.431      5.459
REMARK  3 active torsions:
REMARK  status: ('A' for Active; 'I' for Inactive)
REMARK    1  A    between atoms: C2_2  and  C3_3 
REMARK    2  A    between atoms: C8_8  and  C9_9 
REMARK    3  A    between atoms: C14_16  and  O1_17 
ROOT
HETATM    1  C9  UNL     1      23.181   1.319  51.729  1.00  0.00     0.081 A 
HETATM    2  N1  UNL     1      22.167   0.557  52.096  1.00  0.00    -0.240 NA
HETATM    3  C10 UNL     1      22.253  -0.364  53.068  1.00  0.00     0.234 A 
HETATM    4  N2  UNL     1      23.405  -0.558  53.731  1.00  0.00    -0.241 NA
HETATM    5  C11 UNL     1      24.467   0.192  53.394  1.00  0.00     0.069 A 
HETATM    6  C12 UNL     1      24.373   1.133  52.395  1.00  0.00     0.025 A 
HETATM    7  C13 UNL     1      25.195   1.971  51.792  1.00  0.00     0.054 C 
HETATM    8  C14 UNL     1      26.599   2.325  51.954  1.00  0.00     0.090 C 
HETATM    9  C16 UNL     1      27.481   2.058  52.904  1.00  0.00     0.171 C 
HETATM   10  O2  UNL     1      27.399   1.341  54.096  1.00  0.00    -0.357 OA
HETATM   11  C17 UNL     1      26.891   0.083  54.487  1.00  0.00     0.204 C 
HETATM   12  C18 UNL     1      25.486  -0.150  54.155  1.00  0.00     0.032 C 
ENDROOT
BRANCH   1  13
HETATM   13  C8  UNL     1      22.872   2.252  50.683  1.00  0.00    -0.000 A 
HETATM   14  C3  UNL     1      22.477   3.557  50.938  1.00  0.00    -0.046 A 
HETATM   15  C4  UNL     1      22.246   4.457  49.918  1.00  0.00     0.008 A 
HETATM   16  C5  UNL     1      22.386   4.137  48.588  1.00  0.00     0.001 A 
HETATM   17  C6  UNL     1      22.775   2.859  48.253  1.00  0.00     0.001 A 
HETATM   18  C7  UNL     1      22.994   1.998  49.302  1.00  0.00     0.014 A 
BRANCH  14  19
HETATM   19  C2  UNL     1      22.273   4.114  52.291  1.00  0.00     0.035 C 
HETATM   20  C1  UNL     1      23.432   4.999  52.673  1.00  0.00     0.010 C 
ENDBRANCH  14  19
ENDBRANCH   1  13
BRANCH   8  21
HETATM   21  O1  UNL     1      27.004   3.081  50.867  1.00  0.00    -0.354 OA
HETATM   22  C15 UNL     1      26.204   3.717  49.929  1.00  0.00     0.210 C 
ENDBRANCH   8  21
TORSDOF 3
ENDMDL
MODEL 5
REMARK VINA RESULT:      -7.3      2.527      4.805
REMARK  3 active torsions:
REMARK  status: ('A' for Active; 'I' for Inactive)
REMARK    1  A    between atoms: C2_2  and  C3_3 
REMARK    2  A    between atoms: C8_8  and  C9_9 
REMARK    3  A    between atoms: C14_16  and  O1_17 
ROOT
HETATM    1  C9  UNL     1      22.304   2.198  52.040  1.00  0.00     0.081 A 
HETATM    2  N1  UNL     1      21.022   2.517  52.066  1.00  0.00    -0.240 NA
HETATM    3  C10 UNL     1      20.124   1.893  52.844  1.00  0.00     0.234 A 
HETATM    4  N2  UNL     1      20.496   0.888  53.652  1.00  0.00    -0.241 NA
HETATM    5  C11 UNL     1      21.789   0.524  53.662  1.00  0.00     0.069 A 
HETATM    6  C12 UNL     1      22.704   1.167  52.861  1.00  0.00     0.025 A 
HETATM    7  C13 UNL     1      23.989   1.040  52.587  1.00  0.00     0.054 C 
HETATM    8  C14 UNL     1      25.058   0.171  53.063  1.00  0.00     0.090 C 
HETATM    9  C16 UNL     1      25.137  -0.664  54.088  1.00  0.00     0.171 C 
HETATM   10  O2  UNL     1      24.234  -1.025  55.085  1.00  0.00    -0.357 OA
HETATM   11  C17 UNL     1      22.877  -1.410  55.130  1.00  0.00     0.204 C 
HETATM   12  C18 UNL     1      21.944  -0.469  54.514  1.00  0.00     0.032 C 
ENDROOT
BRANCH   1  13
HETATM   13  C8  UNL     1      23.096   3.002  51.155  1.00  0.00    -0.000 A 
HETATM   14  C3  UNL     1      23.080   2.836  49.778  1.00  0.00    -0.046 A 
HETATM   15  C4  UNL     1      23.802   3.661  48.939  1.00  0.00     0.008 A 
HETATM   16  C5  UNL     1      24.582   4.698  49.395  1.00  0.00     0.001 A 
HETATM   17  C6  UNL     1      24.650   4.927  50.751  1.00  0.00     0.001 A 
HETATM   18  C7  UNL     1      23.915   4.081  51.546  1.00  0.00     0.014 A 
BRANCH  14  19
HETATM   19  C2  UNL     1      22.308   1.791  49.076  1.00  0.00     0.035 C 
HETATM   20  C1  UNL     1      22.401   1.986  47.584  1.00  0.00     0.010 C 
ENDBRANCH  14  19
ENDBRANCH   1  13
BRANCH   8  21
HETATM   21  O1  UNL     1      26.157   0.307  52.233  1.00  0.00    -0.354 OA
HETATM   22  C15 UNL     1      26.625   1.464  51.626  1.00  0.00     0.210 C 
ENDBRANCH   8  21
TORSDOF 3
ENDMDL
MODEL 6
REMARK VINA RESULT:      -7.1      1.496      2.049
REMARK  3 active torsions:
REMARK  status: ('A' for Active; 'I' for Inactive)
REMARK    1  A    between atoms: C2_2  and  C3_3 
REMARK    2  A    between atoms: C8_8  and  C9_9 
REMARK    3  A    between atoms: C14_16  and  O1_17 
ROOT
HETATM    1  C9  UNL     1      23.544   0.003  53.537  1.00  0.00     0.081 A 
HETATM    2  N1  UNL     1      23.948  -0.667  54.602  1.00  0.00    -0.240 NA
HETATM    3  C10 UNL     1      23.129  -1.416  55.355  1.00  0.00     0.234 A 
HETATM    4  N2  UNL     1      21.825  -1.522  55.053  1.00  0.00    -0.241 NA
HETATM    5  C11 UNL     1      21.363  -0.859  53.981  1.00  0.00     0.069 A 
HETATM    6  C12 UNL     1      22.209  -0.091  53.214  1.00  0.00     0.025 A 
HETATM    7  C13 UNL     1      22.090   0.706  52.168  1.00  0.00     0.054 C 
HETATM    8  C14 UNL     1      20.990   1.099  51.299  1.00  0.00     0.090 C 
HETATM    9  C16 UNL     1      19.761   0.629  51.148  1.00  0.00     0.171 C 
HETATM   10  O2  UNL     1      19.064  -0.409  51.763  1.00  0.00    -0.357 OA
HETATM   11  C17 UNL     1      18.855  -0.841  53.090  1.00  0.00     0.204 C 
HETATM   12  C18 UNL     1      20.072  -1.094  53.859  1.00  0.00     0.032 C 
ENDROOT
BRANCH   1  13
HETATM   13  C8  UNL     1      24.584   0.726  52.862  1.00  0.00    -0.000 A 
HETATM   14  C3  UNL     1      25.758   0.122  52.436  1.00  0.00    -0.046 A 
HETATM   15  C4  UNL     1      26.718   0.820  51.732  1.00  0.00     0.008 A 
HETATM   16  C5  UNL     1      26.590   2.150  51.404  1.00  0.00     0.001 A 
HETATM   17  C6  UNL     1      25.452   2.820  51.793  1.00  0.00     0.001 A 
HETATM   18  C7  UNL     1      24.524   2.084  52.491  1.00  0.00     0.014 A 
BRANCH  14  19
HETATM   19  C2  UNL     1      26.098  -1.295  52.674  1.00  0.00     0.035 C 
HETATM   20  C1  UNL     1      27.574  -1.440  52.945  1.00  0.00     0.010 C 
ENDBRANCH  14  19
ENDBRANCH   1  13
BRANCH   8  21
HETATM   21  O1  UNL     1      21.389   2.171  50.518  1.00  0.00    -0.354 OA
HETATM   22  C15 UNL     1      20.585   3.044  49.800  1.00  0.00     0.210 C 
ENDBRANCH   8  21
TORSDOF 3
ENDMDL
MODEL 7
REMARK VINA RESULT:      -7.1      3.263      5.428
REMARK  3 active torsions:
REMARK  status: ('A' for Active; 'I' for Inactive)
REMARK    1  A    between atoms: C2_2  and  C3_3 
REMARK    2  A    between atoms: C8_8  and  C9_9 
REMARK    3  A    between atoms: C14_16  and  O1_17 
ROOT
HETATM    1  C9  UNL     1      24.900   3.271  50.920  1.00  0.00     0.081 A 
HETATM    2  N1  UNL     1      25.404   3.059  52.122  1.00  0.00    -0.240 NA
HETATM    3  C10 UNL     1      24.875   2.194  53.001  1.00  0.00     0.234 A 
HETATM    4  N2  UNL     1      23.777   1.486  52.690  1.00  0.00    -0.241 NA
HETATM    5  C11 UNL     1      23.225   1.666  51.480  1.00  0.00     0.069 A 
HETATM    6  C12 UNL     1      23.772   2.555  50.585  1.00  0.00     0.025 A 
HETATM    7  C13 UNL     1      23.471   3.005  49.380  1.00  0.00     0.054 C 
HETATM    8  C14 UNL     1      22.425   2.714  48.409  1.00  0.00     0.090 C 
HETATM    9  C16 UNL     1      21.525   1.745  48.332  1.00  0.00     0.171 C 
HETATM   10  O2  UNL     1      21.242   0.651  49.146  1.00  0.00    -0.357 OA
HETATM   11  C17 UNL     1      21.062   0.439  50.530  1.00  0.00     0.204 C 
HETATM   12  C18 UNL     1      22.169   0.884  51.375  1.00  0.00     0.032 C 
ENDROOT
BRANCH   1  13
HETATM   13  C8  UNL     1      25.629   4.221  50.131  1.00  0.00    -0.000 A 
HETATM   14  C3  UNL     1      25.313   5.571  50.105  1.00  0.00    -0.046 A 
HETATM   15  C4  UNL     1      26.067   6.479  49.389  1.00  0.00     0.008 A 
HETATM   16  C5  UNL     1      27.173   6.123  48.653  1.00  0.00     0.001 A 
HETATM   17  C6  UNL     1      27.551   4.799  48.628  1.00  0.00     0.001 A 
HETATM   18  C7  UNL     1      26.771   3.932  49.356  1.00  0.00     0.014 A 
BRANCH  14  19
HETATM   19  C2  UNL     1      24.173   6.172  50.826  1.00  0.00     0.035 C 
HETATM   20  C1  UNL     1      24.207   7.674  50.699  1.00  0.00     0.010 C 
ENDBRANCH  14  19
ENDBRANCH   1  13
BRANCH   8  21
HETATM   21  O1  UNL     1      22.446   3.679  47.417  1.00  0.00    -0.354 OA
HETATM   22  C15 UNL     1      22.616   5.047  47.566  1.00  0.00     0.210 C 
ENDBRANCH   8  21
TORSDOF 3
ENDMDL
MODEL 8
REMARK VINA RESULT:      -7.1      2.374      5.267
REMARK  3 active torsions:
REMARK  status: ('A' for Active; 'I' for Inactive)
REMARK    1  A    between atoms: C2_2  and  C3_3 
REMARK    2  A    between atoms: C8_8  and  C9_9 
REMARK    3  A    between atoms: C14_16  and  O1_17 
ROOT
HETATM    1  C9  UNL     1      23.041   1.773  52.393  1.00  0.00     0.081 A 
HETATM    2  N1  UNL     1      22.009   1.100  52.869  1.00  0.00    -0.240 NA
HETATM    3  C10 UNL     1      22.132  -0.027  53.586  1.00  0.00     0.234 A 
HETATM    4  N2  UNL     1      23.344  -0.537  53.861  1.00  0.00    -0.241 NA
HETATM    5  C11 UNL     1      24.426   0.110  53.399  1.00  0.00     0.069 A 
HETATM    6  C12 UNL     1      24.292   1.264  52.662  1.00  0.00     0.025 A 
HETATM    7  C13 UNL     1      25.102   2.094  52.031  1.00  0.00     0.054 C 
HETATM    8  C14 UNL     1      26.547   2.192  51.870  1.00  0.00     0.090 C 
HETATM    9  C16 UNL     1      27.554   1.583  52.476  1.00  0.00     0.171 C 
HETATM   10  O2  UNL     1      27.610   0.624  53.485  1.00  0.00    -0.357 OA
HETATM   11  C17 UNL     1      26.966  -0.604  53.750  1.00  0.00     0.204 C 
HETATM   12  C18 UNL     1      25.506  -0.546  53.774  1.00  0.00     0.032 C 
ENDROOT
BRANCH   1  13
HETATM   13  C8  UNL     1      22.690   2.962  51.670  1.00  0.00    -0.000 A 
HETATM   14  C3  UNL     1      22.357   2.946  50.324  1.00  0.00    -0.046 A 
HETATM   15  C4  UNL     1      21.961   4.091  49.662  1.00  0.00     0.008 A 
HETATM   16  C5  UNL     1      21.868   5.319  50.275  1.00  0.00     0.001 A 
HETATM   17  C6  UNL     1      22.183   5.416  51.612  1.00  0.00     0.001 A 
HETATM   18  C7  UNL     1      22.571   4.251  52.228  1.00  0.00     0.014 A 
BRANCH  14  19
HETATM   19  C2  UNL     1      22.381   1.738  49.476  1.00  0.00     0.035 C 
HETATM   20  C1  UNL     1      20.983   1.206  49.284  1.00  0.00     0.010 C 
ENDBRANCH  14  19
ENDBRANCH   1  13
BRANCH   8  21
HETATM   21  O1  UNL     1      26.831   3.118  50.881  1.00  0.00    -0.354 OA
HETATM   22  C15 UNL     1      25.932   3.849  50.119  1.00  0.00     0.210 C 
ENDBRANCH   8  21
TORSDOF 3
ENDMDL
MODEL 9
REMARK VINA RESULT:      -7.0      2.920      6.253
REMARK  3 active torsions:
REMARK  status: ('A' for Active; 'I' for Inactive)
REMARK    1  A    between atoms: C2_2  and  C3_3 
REMARK    2  A    between atoms: C8_8  and  C9_9 
REMARK    3  A    between atoms: C14_16  and  O1_17 
ROOT
HETATM    1  C9  UNL     1      24.042   2.898  50.905  1.00  0.00     0.081 A 
HETATM    2  N1  UNL     1      24.769   3.695  50.143  1.00  0.00    -0.240 NA
HETATM    3  C10 UNL     1      26.103   3.601  50.041  1.00  0.00     0.234 A 
HETATM    4  N2  UNL     1      26.780   2.667  50.729  1.00  0.00    -0.241 NA
HETATM    5  C11 UNL     1      26.086   1.831  51.519  1.00  0.00     0.069 A 
HETATM    6  C12 UNL     1      24.718   1.935  51.620  1.00  0.00     0.025 A 
HETATM    7  C13 UNL     1      23.764   1.342  52.314  1.00  0.00     0.054 C 
HETATM    8  C14 UNL     1      23.724   0.246  53.273  1.00  0.00     0.090 C 
HETATM    9  C16 UNL     1      24.620  -0.663  53.625  1.00  0.00     0.171 C 
HETATM   10  O2  UNL     1      25.930  -0.908  53.216  1.00  0.00    -0.357 OA
HETATM   11  C17 UNL     1      27.089  -0.129  53.015  1.00  0.00     0.204 C 
HETATM   12  C18 UNL     1      26.928   0.999  52.098  1.00  0.00     0.032 C 
ENDROOT
BRANCH   1  13
HETATM   13  C8  UNL     1      22.631   3.155  50.855  1.00  0.00    -0.000 A 
HETATM   14  C3  UNL     1      21.792   2.541  49.937  1.00  0.00    -0.046 A 
HETATM   15  C4  UNL     1      20.428   2.754  49.946  1.00  0.00     0.008 A 
HETATM   16  C5  UNL     1      19.802   3.579  50.852  1.00  0.00     0.001 A 
HETATM   17  C6  UNL     1      20.569   4.226  51.795  1.00  0.00     0.001 A 
HETATM   18  C7  UNL     1      21.921   3.984  51.747  1.00  0.00     0.014 A 
BRANCH  14  19
HETATM   19  C2  UNL     1      22.249   1.614  48.883  1.00  0.00     0.035 C 
HETATM   20  C1  UNL     1      22.393   2.343  47.571  1.00  0.00     0.010 C 
ENDBRANCH  14  19
ENDBRANCH   1  13
BRANCH   8  21
HETATM   21  O1  UNL     1      22.482   0.222  53.883  1.00  0.00    -0.354 OA
HETATM   22  C15 UNL     1      21.282   0.708  53.385  1.00  0.00     0.210 C 
ENDBRANCH   8  21
TORSDOF 3
ENDMDL
