MODEL 1
REMARK VINA RESULT:      -7.3      0.000      0.000
REMARK  6 active torsions:
REMARK  status: ('A' for Active; 'I' for Inactive)
REMARK    1  A    between atoms: S1_2  and  C2_4 
REMARK    2  A    between atoms: C2_4  and  N2_7 
REMARK    3  A    between atoms: C3_5  and  N1_6 
REMARK    4  A    between atoms: C4_8  and  P1_9 
REMARK    5  A    between atoms: P1_9  and  C5_10 
REMARK    6  A    between atoms: C7_12  and  C8_13 
ROOT
HETATM    1  C5  UNL     1      23.561  -0.623  54.053  1.00  0.00     0.066 A 
HETATM    2  C6  UNL     1      23.017  -0.064  52.914  1.00  0.00     0.065 A 
HETATM    3  C7  UNL     1      21.675  -0.133  52.606  1.00  0.00     0.070 A 
HETATM    4  N3  UNL     1      20.877  -0.783  53.473  1.00  0.00    -0.241 NA
HETATM    5  C14 UNL     1      21.408  -1.340  54.602  1.00  0.00     0.234 A 
HETATM    6  N4  UNL     1      22.732  -1.260  54.886  1.00  0.00    -0.241 NA
ENDROOT
BRANCH   1   7
HETATM    7  P1  UNL     1      25.342  -0.515  54.436  1.00  0.00    -0.032 P 
HETATM    8  H8  UNL     1      25.709  -1.323  55.562  1.00  0.00     0.069 HD
BRANCH   7   9
HETATM    9  C4  UNL     1      26.221  -1.031  52.900  1.00  0.00     0.127 C 
HETATM   10  N2  UNL     1      27.187  -0.358  52.328  1.00  0.00    -0.249 NA
BRANCH  10  11
HETATM   11  C2  UNL     1      27.539   0.868  53.000  1.00  0.00     0.137 C 
HETATM   12  C3  UNL     1      27.008   1.979  52.509  1.00  0.00     0.122 C 
BRANCH  11  13
HETATM   13  S1  UNL     1      28.628   0.456  54.334  1.00  0.00     0.066 S 
HETATM   14  C1  UNL     1      29.930  -0.596  53.678  1.00  0.00     0.134 C 
HETATM   15  O1  UNL     1      29.314   1.744  54.820  1.00  0.00    -0.252 OA
ENDBRANCH  11  13
BRANCH  12  16
HETATM   16  N1  UNL     1      26.126   1.987  51.371  1.00  0.00    -0.406 N 
HETATM   17  H5  UNL     1      25.563   2.843  51.196  1.00  0.00     0.155 HD
HETATM   18  H6  UNL     1      26.151   1.096  50.823  1.00  0.00     0.155 HD
ENDBRANCH  12  16
ENDBRANCH  10  11
ENDBRANCH   7   9
ENDBRANCH   1   7
BRANCH   3  19
HETATM   19  C8  UNL     1      21.074   0.448  51.411  1.00  0.00    -0.006 A 
HETATM   20  C9  UNL     1      19.696   0.470  51.337  1.00  0.00     0.014 A 
HETATM   21  C10 UNL     1      19.127   1.020  50.209  1.00  0.00     0.002 A 
HETATM   22  C11 UNL     1      19.858   1.549  49.145  1.00  0.00     0.019 A 
HETATM   23  C12 UNL     1      21.228   1.517  49.242  1.00  0.00     0.011 A 
HETATM   24 BR1  UNL     1      22.327   2.216  47.842  1.00  0.00    -0.051 Br
HETATM   25  C13 UNL     1      21.815   0.967  50.371  1.00  0.00     0.032 A 
ENDBRANCH   3  19
TORSDOF 6
ENDMDL
MODEL 2
REMARK VINA RESULT:      -7.3      2.137      2.754
REMARK  6 active torsions:
REMARK  status: ('A' for Active; 'I' for Inactive)
REMARK    1  A    between atoms: S1_2  and  C2_4 
REMARK    2  A    between atoms: C2_4  and  N2_7 
REMARK    3  A    between atoms: C3_5  and  N1_6 
REMARK    4  A    between atoms: C4_8  and  P1_9 
REMARK    5  A    between atoms: P1_9  and  C5_10 
REMARK    6  A    between atoms: C7_12  and  C8_13 
ROOT
HETATM    1  C5  UNL     1      23.602   0.573  53.204  1.00  0.00     0.066 A 
HETATM    2  C6  UNL     1      22.350  -0.003  53.116  1.00  0.00     0.065 A 
HETATM    3  C7  UNL     1      21.263   0.635  52.557  1.00  0.00     0.070 A 
HETATM    4  N3  UNL     1      21.456   1.879  52.083  1.00  0.00    -0.241 NA
HETATM    5  C14 UNL     1      22.692   2.456  52.167  1.00  0.00     0.234 A 
HETATM    6  N4  UNL     1      23.749   1.811  52.720  1.00  0.00    -0.241 NA
ENDROOT
BRANCH   1   7
HETATM    7  P1  UNL     1      25.024  -0.296  53.948  1.00  0.00    -0.032 P 
HETATM    8  H8  UNL     1      24.620  -1.391  54.782  1.00  0.00     0.069 HD
BRANCH   7   9
HETATM    9  C4  UNL     1      26.071  -0.851  52.537  1.00  0.00     0.127 C 
HETATM   10  N2  UNL     1      27.195  -0.286  52.171  1.00  0.00    -0.249 NA
BRANCH  10  11
HETATM   11  C2  UNL     1      27.582   0.847  52.974  1.00  0.00     0.137 C 
HETATM   12  C3  UNL     1      27.237   2.040  52.510  1.00  0.00     0.122 C 
BRANCH  11  13
HETATM   13  S1  UNL     1      28.441   0.231  54.395  1.00  0.00     0.066 S 
HETATM   14  C1  UNL     1      29.798  -0.798  53.817  1.00  0.00     0.134 C 
HETATM   15  O1  UNL     1      29.081   1.419  55.133  1.00  0.00    -0.252 OA
ENDBRANCH  11  13
BRANCH  12  16
HETATM   16  N1  UNL     1      26.516   2.219  51.277  1.00  0.00    -0.406 N 
HETATM   17  H5  UNL     1      27.066   2.364  50.408  1.00  0.00     0.155 HD
HETATM   18  H6  UNL     1      25.477   2.183  51.397  1.00  0.00     0.155 HD
ENDBRANCH  12  16
ENDBRANCH  10  11
ENDBRANCH   7   9
ENDBRANCH   1   7
BRANCH   3  19
HETATM   19  C8  UNL     1      19.930   0.051  52.451  1.00  0.00    -0.006 A 
HETATM   20  C9  UNL     1      19.506  -0.758  53.486  1.00  0.00     0.014 A 
HETATM   21  C10 UNL     1      18.246  -1.310  53.386  1.00  0.00     0.002 A 
HETATM   22  C11 UNL     1      17.385  -1.100  52.309  1.00  0.00     0.019 A 
HETATM   23  C12 UNL     1      17.830  -0.290  51.292  1.00  0.00     0.011 A 
HETATM   24 BR1  UNL     1      16.732   0.066  49.768  1.00  0.00    -0.051 Br
HETATM   25  C13 UNL     1      19.095   0.272  51.378  1.00  0.00     0.032 A 
ENDBRANCH   3  19
TORSDOF 6
ENDMDL
MODEL 3
REMARK VINA RESULT:      -7.3      2.915      4.022
REMARK  6 active torsions:
REMARK  status: ('A' for Active; 'I' for Inactive)
REMARK    1  A    between atoms: S1_2  and  C2_4 
REMARK    2  A    between atoms: C2_4  and  N2_7 
REMARK    3  A    between atoms: C3_5  and  N1_6 
REMARK    4  A    between atoms: C4_8  and  P1_9 
REMARK    5  A    between atoms: P1_9  and  C5_10 
REMARK    6  A    between atoms: C7_12  and  C8_13 
ROOT
HETATM    1  C5  UNL     1      24.572   2.073  51.384  1.00  0.00     0.066 A 
HETATM    2  C6  UNL     1      23.649   1.306  52.065  1.00  0.00     0.065 A 
HETATM    3  C7  UNL     1      22.357   1.109  51.626  1.00  0.00     0.070 A 
HETATM    4  N3  UNL     1      22.002   1.706  50.472  1.00  0.00    -0.241 NA
HETATM    5  C14 UNL     1      22.910   2.466  49.791  1.00  0.00     0.234 A 
HETATM    6  N4  UNL     1      24.177   2.647  50.242  1.00  0.00    -0.241 NA
ENDROOT
BRANCH   1   7
HETATM    7  P1  UNL     1      26.276   2.315  51.990  1.00  0.00    -0.032 P 
HETATM    8  H8  UNL     1      26.855   3.539  51.518  1.00  0.00     0.069 HD
BRANCH   7   9
HETATM    9  C4  UNL     1      26.169   2.265  53.829  1.00  0.00     0.127 C 
HETATM   10  N2  UNL     1      26.841   1.443  54.596  1.00  0.00    -0.249 NA
BRANCH  10  11
HETATM   11  C2  UNL     1      27.708   0.537  53.884  1.00  0.00     0.137 C 
HETATM   12  C3  UNL     1      28.992   0.864  53.845  1.00  0.00     0.122 C 
BRANCH  11  13
HETATM   13  S1  UNL     1      26.709  -0.787  53.263  1.00  0.00     0.066 S 
HETATM   14  C1  UNL     1      27.800  -2.155  52.851  1.00  0.00     0.134 C 
HETATM   15  O1  UNL     1      25.798  -1.285  54.398  1.00  0.00    -0.252 OA
ENDBRANCH  11  13
BRANCH  12  16
HETATM   16  N1  UNL     1      29.516   2.050  54.470  1.00  0.00    -0.406 N 
HETATM   17  H5  UNL     1      28.864   2.842  54.635  1.00  0.00     0.155 HD
HETATM   18  H6  UNL     1      30.535   1.981  54.698  1.00  0.00     0.155 HD
ENDBRANCH  12  16
ENDBRANCH  10  11
ENDBRANCH   7   9
ENDBRANCH   1   7
BRANCH   3  19
HETATM   19  C8  UNL     1      21.362   0.305  52.326  1.00  0.00    -0.006 A 
HETATM   20  C9  UNL     1      21.796  -0.462  53.388  1.00  0.00     0.014 A 
HETATM   21  C10 UNL     1      20.856  -1.222  54.051  1.00  0.00     0.002 A 
HETATM   22  C11 UNL     1      19.503  -1.260  53.711  1.00  0.00     0.019 A 
HETATM   23  C12 UNL     1      19.096  -0.488  52.649  1.00  0.00     0.011 A 
HETATM   24 BR1  UNL     1      17.265  -0.466  52.098  1.00  0.00    -0.051 Br
HETATM   25  C13 UNL     1      20.030   0.282  51.974  1.00  0.00     0.032 A 
ENDBRANCH   3  19
TORSDOF 6
ENDMDL
MODEL 4
REMARK VINA RESULT:      -7.1      4.986      7.261
REMARK  6 active torsions:
REMARK  status: ('A' for Active; 'I' for Inactive)
REMARK    1  A    between atoms: S1_2  and  C2_4 
REMARK    2  A    between atoms: C2_4  and  N2_7 
REMARK    3  A    between atoms: C3_5  and  N1_6 
REMARK    4  A    between atoms: C4_8  and  P1_9 
REMARK    5  A    between atoms: P1_9  and  C5_10 
REMARK    6  A    between atoms: C7_12  and  C8_13 
ROOT
HETATM    1  C5  UNL     1      25.805   3.243  50.534  1.00  0.00     0.066 A 
HETATM    2  C6  UNL     1      26.783   3.979  49.897  1.00  0.00     0.065 A 
HETATM    3  C7  UNL     1      26.509   5.066  49.093  1.00  0.00     0.070 A 
HETATM    4  N3  UNL     1      25.215   5.405  48.938  1.00  0.00    -0.241 NA
HETATM    5  C14 UNL     1      24.241   4.681  49.566  1.00  0.00     0.234 A 
HETATM    6  N4  UNL     1      24.533   3.615  50.352  1.00  0.00    -0.241 NA
ENDROOT
BRANCH   1   7
HETATM    7  P1  UNL     1      26.198   1.809  51.592  1.00  0.00    -0.032 P 
HETATM    8  H8  UNL     1      27.491   1.258  51.308  1.00  0.00     0.069 HD
BRANCH   7   9
HETATM    9  C4  UNL     1      26.070   2.413  53.328  1.00  0.00     0.127 C 
HETATM   10  N2  UNL     1      26.627   1.837  54.365  1.00  0.00    -0.249 NA
BRANCH  10  11
HETATM   11  C2  UNL     1      27.380   0.647  54.053  1.00  0.00     0.137 C 
HETATM   12  C3  UNL     1      28.698   0.748  54.144  1.00  0.00     0.122 C 
BRANCH  11  13
HETATM   13  S1  UNL     1      26.224  -0.624  53.627  1.00  0.00     0.066 S 
HETATM   14  C1  UNL     1      27.129  -1.938  52.797  1.00  0.00     0.134 C 
HETATM   15  O1  UNL     1      25.667  -1.233  54.925  1.00  0.00    -0.252 OA
ENDBRANCH  11  13
BRANCH  12  16
HETATM   16  N1  UNL     1      29.365   1.963  54.531  1.00  0.00    -0.406 N 
HETATM   17  H5  UNL     1      28.944   2.528  55.295  1.00  0.00     0.155 HD
HETATM   18  H6  UNL     1      30.234   2.153  53.979  1.00  0.00     0.155 HD
ENDBRANCH  12  16
ENDBRANCH  10  11
ENDBRANCH   7   9
ENDBRANCH   1   7
BRANCH   3  19
HETATM   19  C8  UNL     1      27.522   5.860  48.408  1.00  0.00    -0.006 A 
HETATM   20  C9  UNL     1      27.121   7.055  47.845  1.00  0.00     0.014 A 
HETATM   21  C10 UNL     1      28.078   7.807  47.199  1.00  0.00     0.002 A 
HETATM   22  C11 UNL     1      29.417   7.432  47.080  1.00  0.00     0.019 A 
HETATM   23  C12 UNL     1      29.791   6.238  47.649  1.00  0.00     0.011 A 
HETATM   24 BR1  UNL     1      31.601   5.628  47.548  1.00  0.00    -0.051 Br
HETATM   25  C13 UNL     1      28.839   5.471  48.304  1.00  0.00     0.032 A 
ENDBRANCH   3  19
TORSDOF 6
ENDMDL
MODEL 5
REMARK VINA RESULT:      -7.1      2.717      3.798
REMARK  6 active torsions:
REMARK  status: ('A' for Active; 'I' for Inactive)
REMARK    1  A    between atoms: S1_2  and  C2_4 
REMARK    2  A    between atoms: C2_4  and  N2_7 
REMARK    3  A    between atoms: C3_5  and  N1_6 
REMARK    4  A    between atoms: C4_8  and  P1_9 
REMARK    5  A    between atoms: P1_9  and  C5_10 
REMARK    6  A    between atoms: C7_12  and  C8_13 
ROOT
HETATM    1  C5  UNL     1      24.711   2.147  52.057  1.00  0.00     0.066 A 
HETATM    2  C6  UNL     1      23.808   1.181  52.452  1.00  0.00     0.065 A 
HETATM    3  C7  UNL     1      22.457   1.422  52.596  1.00  0.00     0.070 A 
HETATM    4  N3  UNL     1      22.024   2.669  52.332  1.00  0.00    -0.241 NA
HETATM    5  C14 UNL     1      22.912   3.631  51.940  1.00  0.00     0.234 A 
HETATM    6  N4  UNL     1      24.236   3.372  51.806  1.00  0.00    -0.241 NA
ENDROOT
BRANCH   1   7
HETATM    7  P1  UNL     1      26.493   1.799  51.875  1.00  0.00    -0.032 P 
HETATM    8  H8  UNL     1      27.273   2.375  52.931  1.00  0.00     0.069 HD
BRANCH   7   9
HETATM    9  C4  UNL     1      26.646  -0.037  51.827  1.00  0.00     0.127 C 
HETATM   10  N2  UNL     1      27.158  -0.772  52.783  1.00  0.00    -0.249 NA
BRANCH  10  11
HETATM   11  C2  UNL     1      27.617  -0.025  53.927  1.00  0.00     0.137 C 
HETATM   12  C3  UNL     1      26.812  -0.012  54.981  1.00  0.00     0.122 C 
BRANCH  11  13
HETATM   13  S1  UNL     1      29.195   0.667  53.520  1.00  0.00     0.066 S 
HETATM   14  C1  UNL     1      29.546   1.976  54.702  1.00  0.00     0.134 C 
HETATM   15  O1  UNL     1      30.272  -0.411  53.733  1.00  0.00    -0.252 OA
ENDBRANCH  11  13
BRANCH  12  16
HETATM   16  N1  UNL     1      25.547  -0.698  55.005  1.00  0.00    -0.406 N 
HETATM   17  H5  UNL     1      24.766  -0.300  54.447  1.00  0.00     0.155 HD
HETATM   18  H6  UNL     1      25.552  -1.555  55.606  1.00  0.00     0.155 HD
ENDBRANCH  12  16
ENDBRANCH  10  11
ENDBRANCH   7   9
ENDBRANCH   1   7
BRANCH   3  19
HETATM   19  C8  UNL     1      21.481   0.421  53.011  1.00  0.00    -0.006 A 
HETATM   20  C9  UNL     1      21.892  -0.527  53.926  1.00  0.00     0.014 A 
HETATM   21  C10 UNL     1      20.970  -1.473  54.320  1.00  0.00     0.002 A 
HETATM   22  C11 UNL     1      19.657  -1.526  53.850  1.00  0.00     0.019 A 
HETATM   23  C12 UNL     1      19.272  -0.571  52.940  1.00  0.00     0.011 A 
HETATM   24 BR1  UNL     1      17.497  -0.551  52.231  1.00  0.00    -0.051 Br
HETATM   25  C13 UNL     1      20.189   0.387  52.535  1.00  0.00     0.032 A 
ENDBRANCH   3  19
TORSDOF 6
ENDMDL
MODEL 6
REMARK VINA RESULT:      -7.0      3.210      3.912
REMARK  6 active torsions:
REMARK  status: ('A' for Active; 'I' for Inactive)
REMARK    1  A    between atoms: S1_2  and  C2_4 
REMARK    2  A    between atoms: C2_4  and  N2_7 
REMARK    3  A    between atoms: C3_5  and  N1_6 
REMARK    4  A    between atoms: C4_8  and  P1_9 
REMARK    5  A    between atoms: P1_9  and  C5_10 
REMARK    6  A    between atoms: C7_12  and  C8_13 
ROOT
HETATM    1  C5  UNL     1      22.696   0.090  53.193  1.00  0.00     0.066 A 
HETATM    2  C6  UNL     1      21.384  -0.194  52.875  1.00  0.00     0.065 A 
HETATM    3  C7  UNL     1      20.587  -1.029  53.629  1.00  0.00     0.070 A 
HETATM    4  N3  UNL     1      21.139  -1.583  54.725  1.00  0.00    -0.241 NA
HETATM    5  C14 UNL     1      22.438  -1.307  55.046  1.00  0.00     0.234 A 
HETATM    6  N4  UNL     1      23.205  -0.482  54.290  1.00  0.00    -0.241 NA
ENDROOT
BRANCH   1   7
HETATM    7  P1  UNL     1      23.727   1.200  52.176  1.00  0.00    -0.032 P 
HETATM    8  H8  UNL     1      22.990   1.800  51.103  1.00  0.00     0.069 HD
BRANCH   7   9
HETATM    9  C4  UNL     1      24.408   2.460  53.336  1.00  0.00     0.127 C 
HETATM   10  N2  UNL     1      25.674   2.583  53.649  1.00  0.00    -0.249 NA
BRANCH  10  11
HETATM   11  C2  UNL     1      26.544   1.631  53.004  1.00  0.00     0.137 C 
HETATM   12  C3  UNL     1      27.031   1.988  51.824  1.00  0.00     0.122 C 
BRANCH  11  13
HETATM   13  S1  UNL     1      26.677   0.220  54.065  1.00  0.00     0.066 S 
HETATM   14  C1  UNL     1      26.562  -1.254  53.041  1.00  0.00     0.134 C 
HETATM   15  O1  UNL     1      28.084   0.208  54.687  1.00  0.00    -0.252 OA
ENDBRANCH  11  13
BRANCH  12  16
HETATM   16  N1  UNL     1      26.725   3.249  51.201  1.00  0.00    -0.406 N 
HETATM   17  H5  UNL     1      27.322   3.560  50.410  1.00  0.00     0.155 HD
HETATM   18  H6  UNL     1      25.901   3.733  51.630  1.00  0.00     0.155 HD
ENDBRANCH  12  16
ENDBRANCH  10  11
ENDBRANCH   7   9
ENDBRANCH   1   7
BRANCH   3  19
HETATM   19  C8  UNL     1      19.198  -1.346  53.317  1.00  0.00    -0.006 A 
HETATM   20  C9  UNL     1      18.462  -0.390  52.647  1.00  0.00     0.014 A 
HETATM   21  C10 UNL     1      17.149  -0.690  52.350  1.00  0.00     0.002 A 
HETATM   22  C11 UNL     1      16.528  -1.893  52.687  1.00  0.00     0.019 A 
HETATM   23  C12 UNL     1      17.282  -2.829  53.354  1.00  0.00     0.011 A 
HETATM   24 BR1  UNL     1      16.531  -4.512  53.862  1.00  0.00    -0.051 Br
HETATM   25  C13 UNL     1      18.604  -2.542  53.658  1.00  0.00     0.032 A 
ENDBRANCH   3  19
TORSDOF 6
ENDMDL
MODEL 7
REMARK VINA RESULT:      -7.0      4.595      6.794
REMARK  6 active torsions:
REMARK  status: ('A' for Active; 'I' for Inactive)
REMARK    1  A    between atoms: S1_2  and  C2_4 
REMARK    2  A    between atoms: C2_4  and  N2_7 
REMARK    3  A    between atoms: C3_5  and  N1_6 
REMARK    4  A    between atoms: C4_8  and  P1_9 
REMARK    5  A    between atoms: P1_9  and  C5_10 
REMARK    6  A    between atoms: C7_12  and  C8_13 
ROOT
HETATM    1  C5  UNL     1      25.871   2.860  50.757  1.00  0.00     0.066 A 
HETATM    2  C6  UNL     1      26.718   3.744  50.121  1.00  0.00     0.065 A 
HETATM    3  C7  UNL     1      26.278   4.725  49.257  1.00  0.00     0.070 A 
HETATM    4  N3  UNL     1      24.952   4.802  49.039  1.00  0.00    -0.241 NA
HETATM    5  C14 UNL     1      24.107   3.930  49.664  1.00  0.00     0.234 A 
HETATM    6  N4  UNL     1      24.561   2.973  50.510  1.00  0.00    -0.241 NA
ENDROOT
BRANCH   1   7
HETATM    7  P1  UNL     1      26.482   1.572  51.896  1.00  0.00    -0.032 P 
HETATM    8  H8  UNL     1      27.878   1.301  51.716  1.00  0.00     0.069 HD
BRANCH   7   9
HETATM    9  C4  UNL     1      26.109   2.183  53.594  1.00  0.00     0.127 C 
HETATM   10  N2  UNL     1      26.253   1.481  54.691  1.00  0.00    -0.249 NA
BRANCH  10  11
HETATM   11  C2  UNL     1      26.742   0.141  54.482  1.00  0.00     0.137 C 
HETATM   12  C3  UNL     1      25.836  -0.768  54.148  1.00  0.00     0.122 C 
BRANCH  11  13
HETATM   13  S1  UNL     1      28.491   0.157  54.758  1.00  0.00     0.066 S 
HETATM   14  C1  UNL     1      29.271  -0.736  53.407  1.00  0.00     0.134 C 
HETATM   15  O1  UNL     1      28.987   1.610  54.662  1.00  0.00    -0.252 OA
ENDBRANCH  11  13
BRANCH  12  16
HETATM   16  N1  UNL     1      24.439  -0.459  53.996  1.00  0.00    -0.406 N 
HETATM   17  H5  UNL     1      24.141   0.529  54.120  1.00  0.00     0.155 HD
HETATM   18  H6  UNL     1      23.853  -1.296  53.768  1.00  0.00     0.155 HD
ENDBRANCH  12  16
ENDBRANCH  10  11
ENDBRANCH   7   9
ENDBRANCH   1   7
BRANCH   3  19
HETATM   19  C8  UNL     1      27.151   5.672  48.573  1.00  0.00    -0.006 A 
HETATM   20  C9  UNL     1      26.579   6.831  48.090  1.00  0.00     0.014 A 
HETATM   21  C10 UNL     1      27.403   7.727  47.444  1.00  0.00     0.002 A 
HETATM   22  C11 UNL     1      28.771   7.530  47.250  1.00  0.00     0.019 A 
HETATM   23  C12 UNL     1      29.317   6.368  47.740  1.00  0.00     0.011 A 
HETATM   24 BR1  UNL     1      31.181   5.996  47.531  1.00  0.00    -0.051 Br
HETATM   25  C13 UNL     1      28.500   5.458  48.393  1.00  0.00     0.032 A 
ENDBRANCH   3  19
TORSDOF 6
ENDMDL
MODEL 8
REMARK VINA RESULT:      -7.0      5.749      8.168
REMARK  6 active torsions:
REMARK  status: ('A' for Active; 'I' for Inactive)
REMARK    1  A    between atoms: S1_2  and  C2_4 
REMARK    2  A    between atoms: C2_4  and  N2_7 
REMARK    3  A    between atoms: C3_5  and  N1_6 
REMARK    4  A    between atoms: C4_8  and  P1_9 
REMARK    5  A    between atoms: P1_9  and  C5_10 
REMARK    6  A    between atoms: C7_12  and  C8_13 
ROOT
HETATM    1  C5  UNL     1      24.407   4.255  49.533  1.00  0.00     0.066 A 
HETATM    2  C6  UNL     1      24.490   3.192  50.409  1.00  0.00     0.065 A 
HETATM    3  C7  UNL     1      25.687   2.658  50.839  1.00  0.00     0.070 A 
HETATM    4  N3  UNL     1      26.816   3.219  50.366  1.00  0.00    -0.241 NA
HETATM    5  C14 UNL     1      26.742   4.272  49.498  1.00  0.00     0.234 A 
HETATM    6  N4  UNL     1      25.553   4.781  49.088  1.00  0.00    -0.241 NA
ENDROOT
BRANCH   1   7
HETATM    7  P1  UNL     1      22.808   4.941  48.981  1.00  0.00    -0.032 P 
HETATM    8  H8  UNL     1      22.090   4.037  48.130  1.00  0.00     0.069 HD
BRANCH   7   9
HETATM    9  C4  UNL     1      21.871   5.334  50.518  1.00  0.00     0.127 C 
HETATM   10  N2  UNL     1      21.852   6.505  51.106  1.00  0.00    -0.249 NA
BRANCH  10  11
HETATM   11  C2  UNL     1      22.646   7.514  50.449  1.00  0.00     0.137 C 
HETATM   12  C3  UNL     1      23.877   7.683  50.909  1.00  0.00     0.122 C 
BRANCH  11  13
HETATM   13  S1  UNL     1      21.651   8.233  49.173  1.00  0.00     0.066 S 
HETATM   14  C1  UNL     1      20.034   8.594  49.871  1.00  0.00     0.134 C 
HETATM   15  O1  UNL     1      22.266   9.587  48.778  1.00  0.00    -0.252 OA
ENDBRANCH  11  13
BRANCH  12  16
HETATM   16  N1  UNL     1      24.415   6.915  52.001  1.00  0.00    -0.406 N 
HETATM   17  H5  UNL     1      25.435   6.984  52.190  1.00  0.00     0.155 HD
HETATM   18  H6  UNL     1      23.692   6.350  52.506  1.00  0.00     0.155 HD
ENDBRANCH  12  16
ENDBRANCH  10  11
ENDBRANCH   7   9
ENDBRANCH   1   7
BRANCH   3  19
HETATM   19  C8  UNL     1      25.804   1.536  51.763  1.00  0.00    -0.006 A 
HETATM   20  C9  UNL     1      24.637   1.015  52.283  1.00  0.00     0.014 A 
HETATM   21  C10 UNL     1      24.747  -0.046  53.156  1.00  0.00     0.002 A 
HETATM   22  C11 UNL     1      25.960  -0.617  53.542  1.00  0.00     0.019 A 
HETATM   23  C12 UNL     1      27.108  -0.080  53.010  1.00  0.00     0.011 A 
HETATM   24 BR1  UNL     1      28.825  -0.786  53.470  1.00  0.00    -0.051 Br
HETATM   25  C13 UNL     1      27.013   0.987  52.130  1.00  0.00     0.032 A 
ENDBRANCH   3  19
TORSDOF 6
ENDMDL
MODEL 9
REMARK VINA RESULT:      -6.9      1.921      2.262
REMARK  6 active torsions:
REMARK  status: ('A' for Active; 'I' for Inactive)
REMARK    1  A    between atoms: S1_2  and  C2_4 
REMARK    2  A    between atoms: C2_4  and  N2_7 
REMARK    3  A    between atoms: C3_5  and  N1_6 
REMARK    4  A    between atoms: C4_8  and  P1_9 
REMARK    5  A    between atoms: P1_9  and  C5_10 
REMARK    6  A    between atoms: C7_12  and  C8_13 
ROOT
HETATM    1  C5  UNL     1      22.927  -0.327  53.339  1.00  0.00     0.066 A 
HETATM    2  C6  UNL     1      21.964   0.082  52.439  1.00  0.00     0.065 A 
HETATM    3  C7  UNL     1      20.621  -0.195  52.592  1.00  0.00     0.070 A 
HETATM    4  N3  UNL     1      20.258  -0.899  53.680  1.00  0.00    -0.241 NA
HETATM    5  C14 UNL     1      21.206  -1.307  54.575  1.00  0.00     0.234 A 
HETATM    6  N4  UNL     1      22.521  -1.025  54.406  1.00  0.00    -0.241 NA
ENDROOT
BRANCH   1   7
HETATM    7  P1  UNL     1      24.697   0.054  53.112  1.00  0.00    -0.032 P 
HETATM    8  H8  UNL     1      24.926   1.441  52.832  1.00  0.00     0.069 HD
BRANCH   7   9
HETATM    9  C4  UNL     1      25.532  -0.485  54.663  1.00  0.00     0.127 C 
HETATM   10  N2  UNL     1      26.830  -0.570  54.825  1.00  0.00    -0.249 NA
BRANCH  10  11
HETATM   11  C2  UNL     1      27.601  -0.201  53.664  1.00  0.00     0.137 C 
HETATM   12  C3  UNL     1      27.992  -1.196  52.880  1.00  0.00     0.122 C 
BRANCH  11  13
HETATM   13  S1  UNL     1      27.779   1.560  53.675  1.00  0.00     0.066 S 
HETATM   14  C1  UNL     1      29.407   1.946  54.336  1.00  0.00     0.134 C 
HETATM   15  O1  UNL     1      27.772   2.061  52.221  1.00  0.00    -0.252 OA
ENDBRANCH  11  13
BRANCH  12  16
HETATM   16  N1  UNL     1      27.677  -2.574  53.150  1.00  0.00    -0.406 N 
HETATM   17  H5  UNL     1      26.676  -2.852  53.162  1.00  0.00     0.155 HD
HETATM   18  H6  UNL     1      28.524  -3.168  53.310  1.00  0.00     0.155 HD
ENDBRANCH  12  16
ENDBRANCH  10  11
ENDBRANCH   7   9
ENDBRANCH   1   7
BRANCH   3  19
HETATM   19  C8  UNL     1      19.583   0.224  51.657  1.00  0.00    -0.006 A 
HETATM   20  C9  UNL     1      18.351  -0.390  51.758  1.00  0.00     0.014 A 
HETATM   21  C10 UNL     1      17.368   0.006  50.875  1.00  0.00     0.002 A 
HETATM   22  C11 UNL     1      17.548   0.982  49.894  1.00  0.00     0.019 A 
HETATM   23  C12 UNL     1      18.783   1.578  49.814  1.00  0.00     0.011 A 
HETATM   24 BR1  UNL     1      19.138   2.928  48.508  1.00  0.00    -0.051 Br
HETATM   25  C13 UNL     1      19.781   1.191  50.696  1.00  0.00     0.032 A 
ENDBRANCH   3  19
TORSDOF 6
ENDMDL
