MODEL 1
REMARK VINA RESULT:      -8.0      0.000      0.000
REMARK  7 active torsions:
REMARK  status: ('A' for Active; 'I' for Inactive)
REMARK       I    between atoms: C1_2  and  N1_3 
REMARK    1  A    between atoms: C1_2  and  C12_14 
REMARK    2  A    between atoms: N1_3  and  C2_4 
REMARK    3  A    between atoms: C14_16  and  N2_17 
REMARK    4  A    between atoms: N2_17  and  C15_18 
REMARK    5  A    between atoms: N2_17  and  C17_21 
REMARK    6  A    between atoms: C15_18  and  C16_19 
REMARK    7  A    between atoms: C17_21  and  C18_22 
ROOT
HETATM    1  O1  UNL     1      24.824  -0.973  55.094  1.00  0.00    -0.268 OA
HETATM    2  C1  UNL     1      24.373  -0.717  53.927  1.00  0.00     0.252 C 
HETATM    3  N1  UNL     1      25.242  -0.680  52.802  1.00  0.00    -0.322 N 
HETATM    4  H1  UNL     1      24.867  -0.470  51.850  1.00  0.00     0.169 HD
ENDROOT
BRANCH   2   5
HETATM    5  C12 UNL     1      22.938  -0.468  53.819  1.00  0.00     0.015 A 
HETATM    6  C13 UNL     1      22.404   0.256  52.848  1.00  0.00     0.042 A 
HETATM    7  C14 UNL     1      20.943   0.292  53.055  1.00  0.00     0.027 A 
HETATM    8  C19 UNL     1      20.640  -0.419  54.155  1.00  0.00     0.007 A 
HETATM    9  C20 UNL     1      21.889  -0.971  54.745  1.00  0.00     0.073 A 
BRANCH   7  10
HETATM   10  N2  UNL     1      19.987   0.977  52.219  1.00  0.00    -0.379 N 
BRANCH  10  11
HETATM   11  C15 UNL     1      19.823   2.421  52.294  1.00  0.00     0.138 C 
BRANCH  11  12
HETATM   12  C16 UNL     1      20.720   3.161  51.323  1.00  0.00     0.134 C 
HETATM   13 CL1  UNL     1      22.103   3.933  52.139  1.00  0.00    -0.129 Cl
ENDBRANCH  11  12
ENDBRANCH  10  11
BRANCH  10  14
HETATM   14  C17 UNL     1      19.123   0.312  51.252  1.00  0.00     0.138 C 
BRANCH  14  15
HETATM   15  C18 UNL     1      17.709   0.186  51.782  1.00  0.00     0.134 C 
HETATM   16 CL2  UNL     1      17.516  -1.347  52.683  1.00  0.00    -0.129 Cl
ENDBRANCH  14  15
ENDBRANCH  10  14
ENDBRANCH   7  10
ENDBRANCH   2   5
BRANCH   3  17
HETATM   17  C2  UNL     1      26.637  -0.935  52.983  1.00  0.00     0.046 A 
HETATM   18  C3  UNL     1      27.044  -2.249  52.800  1.00  0.00     0.030 A 
HETATM   19  C4  UNL     1      28.382  -2.575  52.958  1.00  0.00     0.003 A 
HETATM   20  C5  UNL     1      29.302  -1.600  53.294  1.00  0.00     0.012 A 
HETATM   21  C6  UNL     1      28.864  -0.309  53.466  1.00  0.00    -0.024 A 
HETATM   22  C7  UNL     1      29.737   0.697  53.799  1.00  0.00     0.012 A 
HETATM   23  C11 UNL     1      27.541   0.048  53.317  1.00  0.00     0.001 A 
HETATM   24  C8  UNL     1      29.321   1.999  53.978  1.00  0.00     0.001 A 
HETATM   25  C9  UNL     1      27.986   2.325  53.821  1.00  0.00     0.001 A 
HETATM   26  C10 UNL     1      27.096   1.342  53.490  1.00  0.00     0.014 A 
ENDBRANCH   3  17
TORSDOF 7
ENDMDL
MODEL 2
REMARK VINA RESULT:      -7.9      0.751      2.365
REMARK  7 active torsions:
REMARK  status: ('A' for Active; 'I' for Inactive)
REMARK       I    between atoms: C1_2  and  N1_3 
REMARK    1  A    between atoms: C1_2  and  C12_14 
REMARK    2  A    between atoms: N1_3  and  C2_4 
REMARK    3  A    between atoms: C14_16  and  N2_17 
REMARK    4  A    between atoms: N2_17  and  C15_18 
REMARK    5  A    between atoms: N2_17  and  C17_21 
REMARK    6  A    between atoms: C15_18  and  C16_19 
REMARK    7  A    between atoms: C17_21  and  C18_22 
ROOT
HETATM    1  O1  UNL     1      24.905  -1.109  55.081  1.00  0.00    -0.268 OA
HETATM    2  C1  UNL     1      24.460  -0.791  53.927  1.00  0.00     0.252 C 
HETATM    3  N1  UNL     1      25.338  -0.683  52.813  1.00  0.00    -0.322 N 
HETATM    4  H1  UNL     1      24.969  -0.422  51.871  1.00  0.00     0.169 HD
ENDROOT
BRANCH   2   5
HETATM    5  C12 UNL     1      23.024  -0.548  53.821  1.00  0.00     0.015 A 
HETATM    6  C13 UNL     1      22.465   0.009  52.759  1.00  0.00     0.042 A 
HETATM    7  C14 UNL     1      21.011   0.095  53.000  1.00  0.00     0.027 A 
HETATM    8  C19 UNL     1      20.738  -0.419  54.211  1.00  0.00     0.007 A 
HETATM    9  C20 UNL     1      22.001  -0.878  54.848  1.00  0.00     0.073 A 
BRANCH   7  10
HETATM   10  N2  UNL     1      20.034   0.640  52.089  1.00  0.00    -0.379 N 
BRANCH  10  11
HETATM   11  C15 UNL     1      18.816  -0.089  51.771  1.00  0.00     0.138 C 
BRANCH  11  12
HETATM   12  C16 UNL     1      17.866   0.710  50.902  1.00  0.00     0.134 C 
HETATM   13 CL1  UNL     1      16.955  -0.324  49.774  1.00  0.00    -0.129 Cl
ENDBRANCH  11  12
ENDBRANCH  10  11
BRANCH  10  14
HETATM   14  C17 UNL     1      20.167   1.930  51.424  1.00  0.00     0.138 C 
BRANCH  14  15
HETATM   15  C18 UNL     1      20.371   3.044  52.430  1.00  0.00     0.134 C 
HETATM   16 CL2  UNL     1      21.768   4.058  51.962  1.00  0.00    -0.129 Cl
ENDBRANCH  14  15
ENDBRANCH  10  14
ENDBRANCH   7  10
ENDBRANCH   2   5
BRANCH   3  17
HETATM   17  C2  UNL     1      26.734  -0.936  52.991  1.00  0.00     0.046 A 
HETATM   18  C3  UNL     1      27.144  -2.247  52.798  1.00  0.00     0.030 A 
HETATM   19  C4  UNL     1      28.483  -2.572  52.953  1.00  0.00     0.003 A 
HETATM   20  C5  UNL     1      29.401  -1.597  53.295  1.00  0.00     0.012 A 
HETATM   21  C6  UNL     1      28.960  -0.309  53.477  1.00  0.00    -0.024 A 
HETATM   22  C7  UNL     1      29.831   0.697  53.817  1.00  0.00     0.012 A 
HETATM   23  C11 UNL     1      27.636   0.047  53.332  1.00  0.00     0.001 A 
HETATM   24  C8  UNL     1      29.412   1.997  54.006  1.00  0.00     0.001 A 
HETATM   25  C9  UNL     1      28.077   2.320  53.852  1.00  0.00     0.001 A 
HETATM   26  C10 UNL     1      27.189   1.338  53.514  1.00  0.00     0.014 A 
ENDBRANCH   3  17
TORSDOF 7
ENDMDL
MODEL 3
REMARK VINA RESULT:      -7.5      2.923      4.516
REMARK  7 active torsions:
REMARK  status: ('A' for Active; 'I' for Inactive)
REMARK       I    between atoms: C1_2  and  N1_3 
REMARK    1  A    between atoms: C1_2  and  C12_14 
REMARK    2  A    between atoms: N1_3  and  C2_4 
REMARK    3  A    between atoms: C14_16  and  N2_17 
REMARK    4  A    between atoms: N2_17  and  C15_18 
REMARK    5  A    between atoms: N2_17  and  C17_21 
REMARK    6  A    between atoms: C15_18  and  C16_19 
REMARK    7  A    between atoms: C17_21  and  C18_22 
ROOT
HETATM    1  O1  UNL     1      27.152   2.784  50.332  1.00  0.00    -0.268 OA
HETATM    2  C1  UNL     1      26.030   2.635  50.923  1.00  0.00     0.252 C 
HETATM    3  N1  UNL     1      25.955   1.997  52.192  1.00  0.00    -0.322 N 
HETATM    4  H1  UNL     1      25.034   1.878  52.671  1.00  0.00     0.169 HD
ENDROOT
BRANCH   2   5
HETATM    5  C12 UNL     1      24.851   3.149  50.232  1.00  0.00     0.015 A 
HETATM    6  C13 UNL     1      23.645   2.623  50.377  1.00  0.00     0.042 A 
HETATM    7  C14 UNL     1      22.706   3.392  49.537  1.00  0.00     0.027 A 
HETATM    8  C19 UNL     1      23.383   4.367  48.905  1.00  0.00     0.007 A 
HETATM    9  C20 UNL     1      24.818   4.301  49.293  1.00  0.00     0.073 A 
BRANCH   7  10
HETATM   10  N2  UNL     1      21.291   3.146  49.407  1.00  0.00    -0.379 N 
BRANCH  10  11
HETATM   11  C15 UNL     1      20.796   1.950  48.742  1.00  0.00     0.138 C 
BRANCH  11  12
HETATM   12  C16 UNL     1      20.024   1.040  49.675  1.00  0.00     0.134 C 
HETATM   13 CL1  UNL     1      21.080   0.259  50.879  1.00  0.00    -0.129 Cl
ENDBRANCH  11  12
ENDBRANCH  10  11
BRANCH  10  14
HETATM   14  C17 UNL     1      20.256   4.039  49.911  1.00  0.00     0.138 C 
BRANCH  14  15
HETATM   15  C18 UNL     1      20.637   4.605  51.264  1.00  0.00     0.134 C 
HETATM   16 CL2  UNL     1      20.502   3.344  52.526  1.00  0.00    -0.129 Cl
ENDBRANCH  14  15
ENDBRANCH  10  14
ENDBRANCH   7  10
ENDBRANCH   2   5
BRANCH   3  17
HETATM   17  C2  UNL     1      27.152   1.519  52.811  1.00  0.00     0.046 A 
HETATM   18  C3  UNL     1      27.964   2.483  53.391  1.00  0.00     0.030 A 
HETATM   19  C4  UNL     1      29.142   2.098  54.010  1.00  0.00     0.003 A 
HETATM   20  C5  UNL     1      29.505   0.765  54.051  1.00  0.00     0.012 A 
HETATM   21  C6  UNL     1      28.677  -0.163  53.467  1.00  0.00    -0.024 A 
HETATM   22  C7  UNL     1      28.990  -1.500  53.480  1.00  0.00     0.012 A 
HETATM   23  C11 UNL     1      27.499   0.187  52.842  1.00  0.00     0.001 A 
HETATM   24  C8  UNL     1      28.175  -2.449  52.900  1.00  0.00     0.001 A 
HETATM   25  C9  UNL     1      27.000  -2.065  52.282  1.00  0.00     0.001 A 
HETATM   26  C10 UNL     1      26.664  -0.740  52.255  1.00  0.00     0.014 A 
ENDBRANCH   3  17
TORSDOF 7
ENDMDL
MODEL 4
REMARK VINA RESULT:      -7.4      6.063      9.031
REMARK  7 active torsions:
REMARK  status: ('A' for Active; 'I' for Inactive)
REMARK       I    between atoms: C1_2  and  N1_3 
REMARK    1  A    between atoms: C1_2  and  C12_14 
REMARK    2  A    between atoms: N1_3  and  C2_4 
REMARK    3  A    between atoms: C14_16  and  N2_17 
REMARK    4  A    between atoms: N2_17  and  C15_18 
REMARK    5  A    between atoms: N2_17  and  C17_21 
REMARK    6  A    between atoms: C15_18  and  C16_19 
REMARK    7  A    between atoms: C17_21  and  C18_22 
ROOT
HETATM    1  O1  UNL     1      24.764   3.327  49.082  1.00  0.00    -0.268 OA
HETATM    2  C1  UNL     1      25.591   3.977  49.807  1.00  0.00     0.252 C 
HETATM    3  N1  UNL     1      25.692   3.722  51.202  1.00  0.00    -0.322 N 
HETATM    4  H1  UNL     1      26.370   4.257  51.791  1.00  0.00     0.169 HD
ENDROOT
BRANCH   2   5
HETATM    5  C12 UNL     1      26.412   4.977  49.130  1.00  0.00     0.015 A 
HETATM    6  C13 UNL     1      27.713   4.830  48.938  1.00  0.00     0.042 A 
HETATM    7  C14 UNL     1      28.208   6.026  48.228  1.00  0.00     0.027 A 
HETATM    8  C19 UNL     1      27.179   6.863  48.011  1.00  0.00     0.007 A 
HETATM    9  C20 UNL     1      25.934   6.268  48.568  1.00  0.00     0.073 A 
BRANCH   7  10
HETATM   10  N2  UNL     1      29.573   6.266  47.827  1.00  0.00    -0.379 N 
BRANCH  10  11
HETATM   11  C15 UNL     1      29.916   7.390  46.968  1.00  0.00     0.138 C 
BRANCH  11  12
HETATM   12  C16 UNL     1      30.697   8.465  47.697  1.00  0.00     0.134 C 
HETATM   13 CL1  UNL     1      29.836   9.061  49.138  1.00  0.00    -0.129 Cl
ENDBRANCH  11  12
ENDBRANCH  10  11
BRANCH  10  14
HETATM   14  C17 UNL     1      30.701   5.436  48.228  1.00  0.00     0.138 C 
BRANCH  14  15
HETATM   15  C18 UNL     1      31.611   5.148  47.051  1.00  0.00     0.134 C 
HETATM   16 CL2  UNL     1      31.703   3.387  46.753  1.00  0.00    -0.129 Cl
ENDBRANCH  14  15
ENDBRANCH  10  14
ENDBRANCH   7  10
ENDBRANCH   2   5
BRANCH   3  17
HETATM   17  C2  UNL     1      24.856   2.727  51.798  1.00  0.00     0.046 A 
HETATM   18  C3  UNL     1      23.529   3.082  51.991  1.00  0.00     0.030 A 
HETATM   19  C4  UNL     1      22.656   2.171  52.563  1.00  0.00     0.003 A 
HETATM   20  C5  UNL     1      23.104   0.918  52.937  1.00  0.00     0.012 A 
HETATM   21  C6  UNL     1      24.425   0.599  52.731  1.00  0.00    -0.024 A 
HETATM   22  C7  UNL     1      24.920  -0.632  53.083  1.00  0.00     0.012 A 
HETATM   23  C11 UNL     1      25.318   1.483  52.165  1.00  0.00     0.001 A 
HETATM   24  C8  UNL     1      26.241  -0.975  52.886  1.00  0.00     0.001 A 
HETATM   25  C9  UNL     1      27.112  -0.065  52.316  1.00  0.00     0.001 A 
HETATM   26  C10 UNL     1      26.644   1.168  51.955  1.00  0.00     0.014 A 
ENDBRANCH   3  17
TORSDOF 7
ENDMDL
MODEL 5
REMARK VINA RESULT:      -7.4      5.891      8.305
REMARK  7 active torsions:
REMARK  status: ('A' for Active; 'I' for Inactive)
REMARK       I    between atoms: C1_2  and  N1_3 
REMARK    1  A    between atoms: C1_2  and  C12_14 
REMARK    2  A    between atoms: N1_3  and  C2_4 
REMARK    3  A    between atoms: C14_16  and  N2_17 
REMARK    4  A    between atoms: N2_17  and  C15_18 
REMARK    5  A    between atoms: N2_17  and  C17_21 
REMARK    6  A    between atoms: C15_18  and  C16_19 
REMARK    7  A    between atoms: C17_21  and  C18_22 
ROOT
HETATM    1  O1  UNL     1      24.808   3.162  49.319  1.00  0.00    -0.268 OA
HETATM    2  C1  UNL     1      25.530   3.874  50.095  1.00  0.00     0.252 C 
HETATM    3  N1  UNL     1      25.560   3.623  51.495  1.00  0.00    -0.322 N 
HETATM    4  H1  UNL     1      26.153   4.209  52.125  1.00  0.00     0.169 HD
ENDROOT
BRANCH   2   5
HETATM    5  C12 UNL     1      26.310   4.940  49.472  1.00  0.00     0.015 A 
HETATM    6  C13 UNL     1      25.984   6.219  49.567  1.00  0.00     0.042 A 
HETATM    7  C14 UNL     1      26.988   7.003  48.821  1.00  0.00     0.027 A 
HETATM    8  C19 UNL     1      27.896   6.163  48.296  1.00  0.00     0.007 A 
HETATM    9  C20 UNL     1      27.546   4.765  48.664  1.00  0.00     0.073 A 
BRANCH   7  10
HETATM   10  N2  UNL     1      27.002   8.438  48.675  1.00  0.00    -0.379 N 
BRANCH  10  11
HETATM   11  C15 UNL     1      27.563   9.293  49.710  1.00  0.00     0.138 C 
BRANCH  11  12
HETATM   12  C16 UNL     1      28.861   9.949  49.287  1.00  0.00     0.134 C 
HETATM   13 CL1  UNL     1      30.189   8.771  49.130  1.00  0.00    -0.129 Cl
ENDBRANCH  11  12
ENDBRANCH  10  11
BRANCH  10  14
HETATM   14  C17 UNL     1      26.475   9.147  47.515  1.00  0.00     0.138 C 
BRANCH  14  15
HETATM   15  C18 UNL     1      25.334  10.062  47.909  1.00  0.00     0.134 C 
HETATM   16 CL2  UNL     1      23.956   9.107  48.533  1.00  0.00    -0.129 Cl
ENDBRANCH  14  15
ENDBRANCH  10  14
ENDBRANCH   7  10
ENDBRANCH   2   5
BRANCH   3  17
HETATM   17  C2  UNL     1      24.771   2.561  52.036  1.00  0.00     0.046 A 
HETATM   18  C3  UNL     1      23.424   2.836  52.220  1.00  0.00     0.030 A 
HETATM   19  C4  UNL     1      22.593   1.856  52.740  1.00  0.00     0.003 A 
HETATM   20  C5  UNL     1      23.103   0.615  53.072  1.00  0.00     0.012 A 
HETATM   21  C6  UNL     1      24.442   0.377  52.875  1.00  0.00    -0.024 A 
HETATM   22  C7  UNL     1      24.998  -0.840  53.187  1.00  0.00     0.012 A 
HETATM   23  C11 UNL     1      25.294   1.330  52.361  1.00  0.00     0.001 A 
HETATM   24  C8  UNL     1      26.339  -1.102  52.999  1.00  0.00     0.001 A 
HETATM   25  C9  UNL     1      27.167  -0.124  52.481  1.00  0.00     0.001 A 
HETATM   26  C10 UNL     1      26.639   1.095  52.162  1.00  0.00     0.014 A 
ENDBRANCH   3  17
TORSDOF 7
ENDMDL
MODEL 6
REMARK VINA RESULT:      -7.4      5.970      8.552
REMARK  7 active torsions:
REMARK  status: ('A' for Active; 'I' for Inactive)
REMARK       I    between atoms: C1_2  and  N1_3 
REMARK    1  A    between atoms: C1_2  and  C12_14 
REMARK    2  A    between atoms: N1_3  and  C2_4 
REMARK    3  A    between atoms: C14_16  and  N2_17 
REMARK    4  A    between atoms: N2_17  and  C15_18 
REMARK    5  A    between atoms: N2_17  and  C17_21 
REMARK    6  A    between atoms: C15_18  and  C16_19 
REMARK    7  A    between atoms: C17_21  and  C18_22 
ROOT
HETATM    1  O1  UNL     1      24.758   3.267  49.269  1.00  0.00    -0.268 OA
HETATM    2  C1  UNL     1      25.577   3.906  50.012  1.00  0.00     0.252 C 
HETATM    3  N1  UNL     1      25.687   3.608  51.398  1.00  0.00    -0.322 N 
HETATM    4  H1  UNL     1      26.359   4.134  52.002  1.00  0.00     0.169 HD
ENDROOT
BRANCH   2   5
HETATM    5  C12 UNL     1      26.379   4.942  49.366  1.00  0.00     0.015 A 
HETATM    6  C13 UNL     1      26.026   6.217  49.345  1.00  0.00     0.042 A 
HETATM    7  C14 UNL     1      27.066   6.967  48.613  1.00  0.00     0.027 A 
HETATM    8  C19 UNL     1      28.021   6.111  48.212  1.00  0.00     0.007 A 
HETATM    9  C20 UNL     1      27.669   4.736  48.658  1.00  0.00     0.073 A 
BRANCH   7  10
HETATM   10  N2  UNL     1      27.065   8.387  48.362  1.00  0.00    -0.379 N 
BRANCH  10  11
HETATM   11  C15 UNL     1      26.605   8.925  47.090  1.00  0.00     0.138 C 
BRANCH  11  12
HETATM   12  C16 UNL     1      25.108   9.152  47.059  1.00  0.00     0.134 C 
HETATM   13 CL1  UNL     1      24.220   7.709  46.511  1.00  0.00    -0.129 Cl
ENDBRANCH  11  12
ENDBRANCH  10  11
BRANCH  10  14
HETATM   14  C17 UNL     1      27.510   9.387  49.325  1.00  0.00     0.138 C 
BRANCH  14  15
HETATM   15  C18 UNL     1      28.803  10.037  48.877  1.00  0.00     0.134 C 
HETATM   16 CL2  UNL     1      30.201   9.014  49.322  1.00  0.00    -0.129 Cl
ENDBRANCH  14  15
ENDBRANCH  10  14
ENDBRANCH   7  10
ENDBRANCH   2   5
BRANCH   3  17
HETATM   17  C2  UNL     1      24.870   2.580  51.963  1.00  0.00     0.046 A 
HETATM   18  C3  UNL     1      23.533   2.899  52.149  1.00  0.00     0.030 A 
HETATM   19  C4  UNL     1      22.676   1.954  52.692  1.00  0.00     0.003 A 
HETATM   20  C5  UNL     1      23.151   0.705  53.045  1.00  0.00     0.012 A 
HETATM   21  C6  UNL     1      24.481   0.423  52.847  1.00  0.00    -0.024 A 
HETATM   22  C7  UNL     1      25.003  -0.803  53.179  1.00  0.00     0.012 A 
HETATM   23  C11 UNL     1      25.358   1.340  52.309  1.00  0.00     0.001 A 
HETATM   24  C8  UNL     1      26.334  -1.109  52.989  1.00  0.00     0.001 A 
HETATM   25  C9  UNL     1      27.188  -0.167  52.448  1.00  0.00     0.001 A 
HETATM   26  C10 UNL     1      26.694   1.062  52.108  1.00  0.00     0.014 A 
ENDBRANCH   3  17
TORSDOF 7
ENDMDL
MODEL 7
REMARK VINA RESULT:      -7.4      5.898      8.919
REMARK  7 active torsions:
REMARK  status: ('A' for Active; 'I' for Inactive)
REMARK       I    between atoms: C1_2  and  N1_3 
REMARK    1  A    between atoms: C1_2  and  C12_14 
REMARK    2  A    between atoms: N1_3  and  C2_4 
REMARK    3  A    between atoms: C14_16  and  N2_17 
REMARK    4  A    between atoms: N2_17  and  C15_18 
REMARK    5  A    between atoms: N2_17  and  C17_21 
REMARK    6  A    between atoms: C15_18  and  C16_19 
REMARK    7  A    between atoms: C17_21  and  C18_22 
ROOT
HETATM    1  O1  UNL     1      24.474   3.091  49.212  1.00  0.00    -0.268 OA
HETATM    2  C1  UNL     1      25.190   3.847  49.951  1.00  0.00     0.252 C 
HETATM    3  N1  UNL     1      25.260   3.639  51.356  1.00  0.00    -0.322 N 
HETATM    4  H1  UNL     1      25.848   4.261  51.956  1.00  0.00     0.169 HD
ENDROOT
BRANCH   2   5
HETATM    5  C12 UNL     1      25.920   4.920  49.279  1.00  0.00     0.015 A 
HETATM    6  C13 UNL     1      27.235   4.914  49.136  1.00  0.00     0.042 A 
HETATM    7  C14 UNL     1      27.621   6.144  48.415  1.00  0.00     0.027 A 
HETATM    8  C19 UNL     1      26.515   6.857  48.145  1.00  0.00     0.007 A 
HETATM    9  C20 UNL     1      25.324   6.139  48.673  1.00  0.00     0.073 A 
BRANCH   7  10
HETATM   10  N2  UNL     1      28.965   6.526  48.055  1.00  0.00    -0.379 N 
BRANCH  10  11
HETATM   11  C15 UNL     1      30.012   5.528  47.896  1.00  0.00     0.138 C 
BRANCH  11  12
HETATM   12  C16 UNL     1      31.397   6.091  48.138  1.00  0.00     0.134 C 
HETATM   13 CL1  UNL     1      31.910   5.908  49.834  1.00  0.00    -0.129 Cl
ENDBRANCH  11  12
ENDBRANCH  10  11
BRANCH  10  14
HETATM   14  C17 UNL     1      29.389   7.901  47.823  1.00  0.00     0.138 C 
BRANCH  14  15
HETATM   15  C18 UNL     1      29.281   8.725  49.090  1.00  0.00     0.134 C 
HETATM   16 CL2  UNL     1      30.872   9.420  49.518  1.00  0.00    -0.129 Cl
ENDBRANCH  14  15
ENDBRANCH  10  14
ENDBRANCH   7  10
ENDBRANCH   2   5
BRANCH   3  17
HETATM   17  C2  UNL     1      24.519   2.568  51.945  1.00  0.00     0.046 A 
HETATM   18  C3  UNL     1      23.165   2.799  52.139  1.00  0.00     0.030 A 
HETATM   19  C4  UNL     1      22.378   1.809  52.705  1.00  0.00     0.003 A 
HETATM   20  C5  UNL     1      22.938   0.600  53.073  1.00  0.00     0.012 A 
HETATM   21  C6  UNL     1      24.283   0.404  52.867  1.00  0.00    -0.024 A 
HETATM   22  C7  UNL     1      24.889  -0.778  53.214  1.00  0.00     0.012 A 
HETATM   23  C11 UNL     1      25.092   1.369  52.306  1.00  0.00     0.001 A 
HETATM   24  C8  UNL     1      26.236  -0.997  53.016  1.00  0.00     0.001 A 
HETATM   25  C9  UNL     1      27.020  -0.008  52.452  1.00  0.00     0.001 A 
HETATM   26  C10 UNL     1      26.442   1.178  52.097  1.00  0.00     0.014 A 
ENDBRANCH   3  17
TORSDOF 7
ENDMDL
MODEL 8
REMARK VINA RESULT:      -7.3      5.357      7.150
REMARK  7 active torsions:
REMARK  status: ('A' for Active; 'I' for Inactive)
REMARK       I    between atoms: C1_2  and  N1_3 
REMARK    1  A    between atoms: C1_2  and  C12_14 
REMARK    2  A    between atoms: N1_3  and  C2_4 
REMARK    3  A    between atoms: C14_16  and  N2_17 
REMARK    4  A    between atoms: N2_17  and  C15_18 
REMARK    5  A    between atoms: N2_17  and  C17_21 
REMARK    6  A    between atoms: C15_18  and  C16_19 
REMARK    7  A    between atoms: C17_21  and  C18_22 
ROOT
HETATM    1  O1  UNL     1      26.817   2.380  49.594  1.00  0.00    -0.268 OA
HETATM    2  C1  UNL     1      26.441   3.478  50.126  1.00  0.00     0.252 C 
HETATM    3  N1  UNL     1      25.867   3.498  51.427  1.00  0.00    -0.322 N 
HETATM    4  H1  UNL     1      25.560   4.400  51.857  1.00  0.00     0.169 HD
ENDROOT
BRANCH   2   5
HETATM    5  C12 UNL     1      26.633   4.691  49.334  1.00  0.00     0.015 A 
HETATM    6  C13 UNL     1      25.665   5.564  49.111  1.00  0.00     0.042 A 
HETATM    7  C14 UNL     1      26.215   6.655  48.281  1.00  0.00     0.027 A 
HETATM    8  C19 UNL     1      27.511   6.401  48.030  1.00  0.00     0.007 A 
HETATM    9  C20 UNL     1      27.897   5.120  48.681  1.00  0.00     0.073 A 
BRANCH   7  10
HETATM   10  N2  UNL     1      25.489   7.809  47.811  1.00  0.00    -0.379 N 
BRANCH  10  11
HETATM   11  C15 UNL     1      25.771   9.137  48.335  1.00  0.00     0.138 C 
BRANCH  11  12
HETATM   12  C16 UNL     1      25.849   9.165  49.847  1.00  0.00     0.134 C 
HETATM   13 CL1  UNL     1      27.525   9.302  50.433  1.00  0.00    -0.129 Cl
ENDBRANCH  11  12
ENDBRANCH  10  11
BRANCH  10  14
HETATM   14  C17 UNL     1      24.439   7.760  46.802  1.00  0.00     0.138 C 
BRANCH  14  15
HETATM   15  C18 UNL     1      23.096   7.447  47.428  1.00  0.00     0.134 C 
HETATM   16 CL2  UNL     1      22.630   5.754  47.088  1.00  0.00    -0.129 Cl
ENDBRANCH  14  15
ENDBRANCH  10  14
ENDBRANCH   7  10
ENDBRANCH   2   5
BRANCH   3  17
HETATM   17  C2  UNL     1      25.710   2.272  52.145  1.00  0.00     0.046 A 
HETATM   18  C3  UNL     1      24.490   1.629  51.993  1.00  0.00     0.030 A 
HETATM   19  C4  UNL     1      24.262   0.435  52.658  1.00  0.00     0.003 A 
HETATM   20  C5  UNL     1      25.242  -0.113  53.464  1.00  0.00     0.012 A 
HETATM   21  C6  UNL     1      26.440   0.550  53.590  1.00  0.00    -0.024 A 
HETATM   22  C7  UNL     1      27.447   0.049  54.377  1.00  0.00     0.012 A 
HETATM   23  C11 UNL     1      26.697   1.740  52.943  1.00  0.00     0.001 A 
HETATM   24  C8  UNL     1      28.656   0.696  54.519  1.00  0.00     0.001 A 
HETATM   25  C9  UNL     1      28.883   1.888  53.857  1.00  0.00     0.001 A 
HETATM   26  C10 UNL     1      27.897   2.408  53.067  1.00  0.00     0.014 A 
ENDBRANCH   3  17
TORSDOF 7
ENDMDL
MODEL 9
REMARK VINA RESULT:      -7.3      5.425      7.890
REMARK  7 active torsions:
REMARK  status: ('A' for Active; 'I' for Inactive)
REMARK       I    between atoms: C1_2  and  N1_3 
REMARK    1  A    between atoms: C1_2  and  C12_14 
REMARK    2  A    between atoms: N1_3  and  C2_4 
REMARK    3  A    between atoms: C14_16  and  N2_17 
REMARK    4  A    between atoms: N2_17  and  C15_18 
REMARK    5  A    between atoms: N2_17  and  C17_21 
REMARK    6  A    between atoms: C15_18  and  C16_19 
REMARK    7  A    between atoms: C17_21  and  C18_22 
ROOT
HETATM    1  O1  UNL     1      26.498   2.335  49.384  1.00  0.00    -0.268 OA
HETATM    2  C1  UNL     1      26.497   3.366  50.138  1.00  0.00     0.252 C 
HETATM    3  N1  UNL     1      26.333   3.239  51.545  1.00  0.00    -0.322 N 
HETATM    4  H1  UNL     1      26.333   4.086  52.157  1.00  0.00     0.169 HD
ENDROOT
BRANCH   2   5
HETATM    5  C12 UNL     1      26.674   4.659  49.482  1.00  0.00     0.015 A 
HETATM    6  C13 UNL     1      25.836   5.669  49.646  1.00  0.00     0.042 A 
HETATM    7  C14 UNL     1      26.325   6.805  48.839  1.00  0.00     0.027 A 
HETATM    8  C19 UNL     1      27.454   6.438  48.209  1.00  0.00     0.007 A 
HETATM    9  C20 UNL     1      27.781   5.031  48.562  1.00  0.00     0.073 A 
BRANCH   7  10
HETATM   10  N2  UNL     1      25.700   8.101  48.736  1.00  0.00    -0.379 N 
BRANCH  10  11
HETATM   11  C15 UNL     1      24.295   8.230  48.383  1.00  0.00     0.138 C 
BRANCH  11  12
HETATM   12  C16 UNL     1      23.982   7.661  47.015  1.00  0.00     0.134 C 
HETATM   13 CL1  UNL     1      22.913   6.238  47.107  1.00  0.00    -0.129 Cl
ENDBRANCH  11  12
ENDBRANCH  10  11
BRANCH  10  14
HETATM   14  C17 UNL     1      26.392   9.362  48.970  1.00  0.00     0.138 C 
BRANCH  14  15
HETATM   15  C18 UNL     1      27.319   9.262  50.164  1.00  0.00     0.134 C 
HETATM   16 CL2  UNL     1      29.025   9.373  49.639  1.00  0.00    -0.129 Cl
ENDBRANCH  14  15
ENDBRANCH  10  14
ENDBRANCH   7  10
ENDBRANCH   2   5
BRANCH   3  17
HETATM   17  C2  UNL     1      26.166   1.940  52.119  1.00  0.00     0.046 A 
HETATM   18  C3  UNL     1      27.330   1.219  52.340  1.00  0.00     0.030 A 
HETATM   19  C4  UNL     1      27.251  -0.049  52.893  1.00  0.00     0.003 A 
HETATM   20  C5  UNL     1      26.022  -0.589  53.224  1.00  0.00     0.012 A 
HETATM   21  C6  UNL     1      24.890   0.154  52.993  1.00  0.00    -0.024 A 
HETATM   22  C7  UNL     1      23.645  -0.336  53.304  1.00  0.00     0.012 A 
HETATM   23  C11 UNL     1      24.935   1.417  52.443  1.00  0.00     0.001 A 
HETATM   24  C8  UNL     1      22.495   0.391  53.081  1.00  0.00     0.001 A 
HETATM   25  C9  UNL     1      22.574   1.656  52.528  1.00  0.00     0.001 A 
HETATM   26  C10 UNL     1      23.801   2.167  52.209  1.00  0.00     0.014 A 
ENDBRANCH   3  17
TORSDOF 7
ENDMDL
