MODEL 1
REMARK VINA RESULT:      -9.6      0.000      0.000
REMARK  1 active torsions:
REMARK  status: ('A' for Active; 'I' for Inactive)
REMARK    1  A    between atoms: O1_2  and  C2_3 
ROOT
HETATM    1  C2  UNL     1      27.161   0.647  53.514  1.00  0.00     0.076 A 
HETATM    2  C3  UNL     1      26.646  -0.095  54.562  1.00  0.00     0.070 A 
HETATM    3  C4  UNL     1      25.319  -0.493  54.603  1.00  0.00     0.075 A 
HETATM    4  N1  UNL     1      24.957  -1.193  55.687  1.00  0.00    -0.241 NA
HETATM    5  C5  UNL     1      23.677  -1.590  55.786  1.00  0.00     0.236 A 
HETATM    6  N2  UNL     1      22.803  -1.266  54.789  1.00  0.00    -0.222 NA
HETATM    7  C6  UNL     1      23.161  -0.566  53.701  1.00  0.00     0.159 A 
HETATM    8  C7  UNL     1      24.468  -0.153  53.583  1.00  0.00     0.041 A 
HETATM    9  C8  UNL     1      25.040   0.572  52.592  1.00  0.00     0.027 A 
HETATM   10  C9  UNL     1      26.339   1.005  52.480  1.00  0.00    -0.024 A 
HETATM   11  C10 UNL     1      26.689   1.861  51.269  1.00  0.00     0.043 C 
HETATM   12  C11 UNL     1      25.502   2.810  51.044  1.00  0.00     0.035 C 
HETATM   13  C12 UNL     1      25.732   3.773  49.938  1.00  0.00     0.273 C 
HETATM   14  N3  UNL     1      24.565   4.618  49.694  1.00  0.00     0.096 N 
HETATM   15  C13 UNL     1      24.376   5.578  50.725  1.00  0.00     0.292 C 
HETATM   16  C14 UNL     1      23.015   6.204  50.697  1.00  0.00     0.147 C 
HETATM   17  N4  UNL     1      21.924   5.259  50.780  1.00  0.00    -0.408 N 
HETATM   18  C15 UNL     1      20.703   5.718  50.268  1.00  0.00     0.143 C 
HETATM   19  C16 UNL     1      22.411   3.980  50.526  1.00  0.00     0.121 C 
HETATM   20  C17 UNL     1      21.426   2.840  50.571  1.00  0.00    -0.006 C 
HETATM   21  C18 UNL     1      20.156   2.626  49.859  1.00  0.00     0.019 C 
HETATM   22  C19 UNL     1      21.353   1.662  51.223  1.00  0.00     0.031 C 
HETATM   23  C20 UNL     1      21.799   0.616  52.129  1.00  0.00     0.141 C 
HETATM   24  N5  UNL     1      22.022  -0.402  52.875  1.00  0.00    -0.263 NA
HETATM   25  C21 UNL     1      23.375   3.850  49.386  1.00  0.00     0.242 C 
HETATM   26  C22 UNL     1      22.865   4.333  48.058  1.00  0.00     0.045 C 
ENDROOT
BRANCH   1  27
HETATM   27  O1  UNL     1      28.484   1.085  53.401  1.00  0.00    -0.355 OA
HETATM   28  C1  UNL     1      29.514   0.183  53.739  1.00  0.00     0.210 C 
ENDBRANCH   1  27
TORSDOF 1
ENDMDL
MODEL 2
REMARK VINA RESULT:      -9.0      1.124      1.290
REMARK  1 active torsions:
REMARK  status: ('A' for Active; 'I' for Inactive)
REMARK    1  A    between atoms: O1_2  and  C2_3 
ROOT
HETATM    1  C2  UNL     1      26.630   0.723  52.853  1.00  0.00     0.076 A 
HETATM    2  C3  UNL     1      25.965  -0.044  53.792  1.00  0.00     0.070 A 
HETATM    3  C4  UNL     1      24.587  -0.183  53.790  1.00  0.00     0.075 A 
HETATM    4  N1  UNL     1      24.079  -0.944  54.770  1.00  0.00    -0.241 NA
HETATM    5  C5  UNL     1      22.745  -1.099  54.825  1.00  0.00     0.236 A 
HETATM    6  N2  UNL     1      21.966  -0.481  53.890  1.00  0.00    -0.222 NA
HETATM    7  C6  UNL     1      22.470   0.282  52.906  1.00  0.00     0.159 A 
HETATM    8  C7  UNL     1      23.834   0.450  52.835  1.00  0.00     0.041 A 
HETATM    9  C8  UNL     1      24.551   1.181  51.949  1.00  0.00     0.027 A 
HETATM   10  C9  UNL     1      25.910   1.370  51.886  1.00  0.00    -0.024 A 
HETATM   11  C10 UNL     1      26.437   2.302  50.802  1.00  0.00     0.043 C 
HETATM   12  C11 UNL     1      25.456   3.481  50.721  1.00  0.00     0.035 C 
HETATM   13  C12 UNL     1      25.884   4.526  49.757  1.00  0.00     0.273 C 
HETATM   14  N3  UNL     1      24.904   5.603  49.643  1.00  0.00     0.096 N 
HETATM   15  C13 UNL     1      24.883   6.431  50.798  1.00  0.00     0.292 C 
HETATM   16  C14 UNL     1      23.667   7.302  50.869  1.00  0.00     0.147 C 
HETATM   17  N4  UNL     1      22.415   6.581  50.831  1.00  0.00    -0.408 N 
HETATM   18  C15 UNL     1      21.312   7.330  50.398  1.00  0.00     0.143 C 
HETATM   19  C16 UNL     1      22.654   5.279  50.398  1.00  0.00     0.121 C 
HETATM   20  C17 UNL     1      21.469   4.353  50.294  1.00  0.00    -0.006 C 
HETATM   21  C18 UNL     1      20.195   4.485  49.570  1.00  0.00     0.019 C 
HETATM   22  C19 UNL     1      21.162   3.132  50.777  1.00  0.00     0.031 C 
HETATM   23  C20 UNL     1      21.386   1.906  51.526  1.00  0.00     0.141 C 
HETATM   24  N5  UNL     1      21.398   0.772  52.121  1.00  0.00    -0.263 NA
HETATM   25  C21 UNL     1      23.595   5.126  49.243  1.00  0.00     0.242 C 
HETATM   26  C22 UNL     1      23.210   5.875  47.998  1.00  0.00     0.045 C 
ENDROOT
BRANCH   1  27
HETATM   27  O1  UNL     1      28.014   0.912  52.790  1.00  0.00    -0.355 OA
HETATM   28  C1  UNL     1      28.629   1.673  53.806  1.00  0.00     0.210 C 
ENDBRANCH   1  27
TORSDOF 1
ENDMDL
MODEL 3
REMARK VINA RESULT:      -8.6      2.325      4.517
REMARK  1 active torsions:
REMARK  status: ('A' for Active; 'I' for Inactive)
REMARK    1  A    between atoms: O1_2  and  C2_3 
ROOT
HETATM    1  C2  UNL     1      22.741  -0.512  54.295  1.00  0.00     0.076 A 
HETATM    2  C3  UNL     1      24.002  -1.080  54.319  1.00  0.00     0.070 A 
HETATM    3  C4  UNL     1      25.086  -0.496  53.685  1.00  0.00     0.075 A 
HETATM    4  N1  UNL     1      26.243  -1.167  53.779  1.00  0.00    -0.241 NA
HETATM    5  C5  UNL     1      27.325  -0.653  53.168  1.00  0.00     0.236 A 
HETATM    6  N2  UNL     1      27.204   0.520  52.481  1.00  0.00    -0.222 NA
HETATM    7  C6  UNL     1      26.048   1.196  52.385  1.00  0.00     0.159 A 
HETATM    8  C7  UNL     1      24.932   0.685  53.005  1.00  0.00     0.041 A 
HETATM    9  C8  UNL     1      23.672   1.183  53.025  1.00  0.00     0.027 A 
HETATM   10  C9  UNL     1      22.549   0.665  53.625  1.00  0.00    -0.024 A 
HETATM   11  C10 UNL     1      21.241   1.422  53.430  1.00  0.00     0.043 C 
HETATM   12  C11 UNL     1      21.225   1.903  51.972  1.00  0.00     0.035 C 
HETATM   13  C12 UNL     1      19.962   2.592  51.603  1.00  0.00     0.273 C 
HETATM   14  N3  UNL     1      19.995   3.104  50.235  1.00  0.00     0.096 N 
HETATM   15  C13 UNL     1      19.912   2.061  49.273  1.00  0.00     0.292 C 
HETATM   16  C14 UNL     1      20.302   2.506  47.896  1.00  0.00     0.147 C 
HETATM   17  N4  UNL     1      21.629   3.072  47.808  1.00  0.00    -0.408 N 
HETATM   18  C15 UNL     1      21.838   3.926  46.716  1.00  0.00     0.143 C 
HETATM   19  C16 UNL     1      22.083   3.370  49.090  1.00  0.00     0.121 C 
HETATM   20  C17 UNL     1      23.460   3.968  49.219  1.00  0.00    -0.006 C 
HETATM   21  C18 UNL     1      24.061   5.161  48.602  1.00  0.00     0.019 C 
HETATM   22  C19 UNL     1      24.575   3.665  49.914  1.00  0.00     0.031 C 
HETATM   23  C20 UNL     1      25.398   2.898  50.835  1.00  0.00     0.141 C 
HETATM   24  N5  UNL     1      26.268   2.358  51.605  1.00  0.00    -0.263 NA
HETATM   25  C21 UNL     1      21.095   4.021  50.009  1.00  0.00     0.242 C 
HETATM   26  C22 UNL     1      20.504   5.308  49.506  1.00  0.00     0.045 C 
ENDROOT
BRANCH   1  27
HETATM   27  O1  UNL     1      21.600  -1.039  54.909  1.00  0.00    -0.355 OA
HETATM   28  C1  UNL     1      20.864  -2.020  54.212  1.00  0.00     0.210 C 
ENDBRANCH   1  27
TORSDOF 1
ENDMDL
MODEL 4
REMARK VINA RESULT:      -8.5      2.820      4.326
REMARK  1 active torsions:
REMARK  status: ('A' for Active; 'I' for Inactive)
REMARK    1  A    between atoms: O1_2  and  C2_3 
ROOT
HETATM    1  C2  UNL     1      24.198   1.311  51.903  1.00  0.00     0.076 A 
HETATM    2  C3  UNL     1      24.529   0.683  53.092  1.00  0.00     0.070 A 
HETATM    3  C4  UNL     1      23.646  -0.153  53.754  1.00  0.00     0.075 A 
HETATM    4  N1  UNL     1      24.097  -0.679  54.903  1.00  0.00    -0.241 NA
HETATM    5  C5  UNL     1      23.275  -1.486  55.596  1.00  0.00     0.236 A 
HETATM    6  N2  UNL     1      22.024  -1.735  55.109  1.00  0.00    -0.222 NA
HETATM    7  C6  UNL     1      21.568  -1.212  53.959  1.00  0.00     0.159 A 
HETATM    8  C7  UNL     1      22.398  -0.385  53.237  1.00  0.00     0.041 A 
HETATM    9  C8  UNL     1      22.144   0.260  52.073  1.00  0.00     0.027 A 
HETATM   10  C9  UNL     1      22.960   1.104  51.359  1.00  0.00    -0.024 A 
HETATM   11  C10 UNL     1      22.381   1.736  50.099  1.00  0.00     0.043 C 
HETATM   12  C11 UNL     1      20.927   2.108  50.424  1.00  0.00     0.035 C 
HETATM   13  C12 UNL     1      20.248   2.817  49.310  1.00  0.00     0.273 C 
HETATM   14  N3  UNL     1      18.846   3.098  49.610  1.00  0.00     0.096 N 
HETATM   15  C13 UNL     1      18.704   4.125  50.584  1.00  0.00     0.292 C 
HETATM   16  C14 UNL     1      17.327   4.184  51.172  1.00  0.00     0.147 C 
HETATM   17  N4  UNL     1      16.886   2.949  51.779  1.00  0.00    -0.408 N 
HETATM   18  C15 UNL     1      15.496   2.801  51.878  1.00  0.00     0.143 C 
HETATM   19  C16 UNL     1      17.722   1.915  51.365  1.00  0.00     0.121 C 
HETATM   20  C17 UNL     1      17.434   0.534  51.895  1.00  0.00    -0.006 C 
HETATM   21  C18 UNL     1      16.211  -0.284  51.858  1.00  0.00     0.019 C 
HETATM   22  C19 UNL     1      18.146  -0.413  52.540  1.00  0.00     0.031 C 
HETATM   23  C20 UNL     1      19.323  -0.993  53.165  1.00  0.00     0.141 C 
HETATM   24  N5  UNL     1      20.243  -1.665  53.751  1.00  0.00    -0.263 NA
HETATM   25  C21 UNL     1      18.089   1.899  49.912  1.00  0.00     0.242 C 
HETATM   26  C22 UNL     1      16.929   1.854  48.959  1.00  0.00     0.045 C 
ENDROOT
BRANCH   1  27
HETATM   27  O1  UNL     1      25.032   2.168  51.177  1.00  0.00    -0.355 OA
HETATM   28  C1  UNL     1      26.426   2.033  51.340  1.00  0.00     0.210 C 
ENDBRANCH   1  27
TORSDOF 1
ENDMDL
MODEL 5
REMARK VINA RESULT:      -8.1      3.226      5.250
REMARK  1 active torsions:
REMARK  status: ('A' for Active; 'I' for Inactive)
REMARK    1  A    between atoms: O1_2  and  C2_3 
ROOT
HETATM    1  C2  UNL     1      26.037   2.650  50.932  1.00  0.00     0.076 A 
HETATM    2  C3  UNL     1      24.871   2.041  51.361  1.00  0.00     0.070 A 
HETATM    3  C4  UNL     1      23.656   2.246  50.728  1.00  0.00     0.075 A 
HETATM    4  N1  UNL     1      22.608   1.603  51.263  1.00  0.00    -0.241 NA
HETATM    5  C5  UNL     1      21.401   1.779  50.699  1.00  0.00     0.236 A 
HETATM    6  N2  UNL     1      21.290   2.598  49.613  1.00  0.00    -0.222 NA
HETATM    7  C6  UNL     1      22.336   3.244  49.073  1.00  0.00     0.159 A 
HETATM    8  C7  UNL     1      23.579   3.074  49.638  1.00  0.00     0.041 A 
HETATM    9  C8  UNL     1      24.758   3.634  49.275  1.00  0.00     0.027 A 
HETATM   10  C9  UNL     1      25.997   3.484  49.848  1.00  0.00    -0.024 A 
HETATM   11  C10 UNL     1      27.145   4.291  49.253  1.00  0.00     0.043 C 
HETATM   12  C11 UNL     1      26.577   5.677  48.914  1.00  0.00     0.035 C 
HETATM   13  C12 UNL     1      27.607   6.614  48.397  1.00  0.00     0.273 C 
HETATM   14  N3  UNL     1      27.035   7.902  48.014  1.00  0.00     0.096 N 
HETATM   15  C13 UNL     1      26.649   8.673  49.144  1.00  0.00     0.292 C 
HETATM   16  C14 UNL     1      25.745   9.814  48.790  1.00  0.00     0.147 C 
HETATM   17  N4  UNL     1      24.537   9.425  48.100  1.00  0.00    -0.408 N 
HETATM   18  C15 UNL     1      23.940  10.435  47.333  1.00  0.00     0.143 C 
HETATM   19  C16 UNL     1      24.678   8.118  47.639  1.00  0.00     0.121 C 
HETATM   20  C17 UNL     1      23.517   7.516  46.891  1.00  0.00    -0.006 C 
HETATM   21  C18 UNL     1      22.781   7.979  45.704  1.00  0.00     0.019 C 
HETATM   22  C19 UNL     1      22.778   6.393  47.010  1.00  0.00     0.031 C 
HETATM   23  C20 UNL     1      22.374   5.127  47.599  1.00  0.00     0.141 C 
HETATM   24  N5  UNL     1      21.877   4.007  47.972  1.00  0.00    -0.263 NA
HETATM   25  C21 UNL     1      25.995   7.775  47.012  1.00  0.00     0.242 C 
HETATM   26  C22 UNL     1      26.393   8.634  45.845  1.00  0.00     0.045 C 
ENDROOT
BRANCH   1  27
HETATM   27  O1  UNL     1      27.298   2.495  51.517  1.00  0.00    -0.355 OA
HETATM   28  C1  UNL     1      27.429   1.578  52.580  1.00  0.00     0.210 C 
ENDBRANCH   1  27
TORSDOF 1
ENDMDL
MODEL 6
REMARK VINA RESULT:      -8.0      3.061      4.337
REMARK  1 active torsions:
REMARK  status: ('A' for Active; 'I' for Inactive)
REMARK    1  A    between atoms: O1_2  and  C2_3 
ROOT
HETATM    1  C2  UNL     1      21.829  -0.322  53.688  1.00  0.00     0.076 A 
HETATM    2  C3  UNL     1      20.605  -0.889  53.998  1.00  0.00     0.070 A 
HETATM    3  C4  UNL     1      19.497  -0.743  53.181  1.00  0.00     0.075 A 
HETATM    4  N1  UNL     1      18.374  -1.333  53.617  1.00  0.00    -0.241 NA
HETATM    5  C5  UNL     1      17.263  -1.210  52.871  1.00  0.00     0.236 A 
HETATM    6  N2  UNL     1      17.320  -0.495  51.709  1.00  0.00    -0.222 NA
HETATM    7  C6  UNL     1      18.441   0.097  51.268  1.00  0.00     0.159 A 
HETATM    8  C7  UNL     1      19.588  -0.021  52.020  1.00  0.00     0.041 A 
HETATM    9  C8  UNL     1      20.814   0.503  51.780  1.00  0.00     0.027 A 
HETATM   10  C9  UNL     1      21.956   0.407  52.537  1.00  0.00    -0.024 A 
HETATM   11  C10 UNL     1      23.188   1.155  52.042  1.00  0.00     0.043 C 
HETATM   12  C11 UNL     1      22.694   2.504  51.498  1.00  0.00     0.035 C 
HETATM   13  C12 UNL     1      23.800   3.388  51.051  1.00  0.00     0.273 C 
HETATM   14  N3  UNL     1      23.306   4.635  50.472  1.00  0.00     0.096 N 
HETATM   15  C13 UNL     1      22.773   5.508  51.459  1.00  0.00     0.292 C 
HETATM   16  C14 UNL     1      21.945   6.612  50.875  1.00  0.00     0.147 C 
HETATM   17  N4  UNL     1      20.843   6.159  50.057  1.00  0.00    -0.408 N 
HETATM   18  C15 UNL     1      20.376   7.094  49.122  1.00  0.00     0.143 C 
HETATM   19  C16 UNL     1      21.031   4.816  49.743  1.00  0.00     0.121 C 
HETATM   20  C17 UNL     1      19.980   4.146  48.895  1.00  0.00    -0.006 C 
HETATM   21  C18 UNL     1      19.429   4.498  47.576  1.00  0.00     0.019 C 
HETATM   22  C19 UNL     1      19.217   3.040  49.010  1.00  0.00     0.031 C 
HETATM   23  C20 UNL     1      18.716   1.835  49.648  1.00  0.00     0.141 C 
HETATM   24  N5  UNL     1      18.155   0.754  50.047  1.00  0.00    -0.263 NA
HETATM   25  C21 UNL     1      22.419   4.415  49.347  1.00  0.00     0.242 C 
HETATM   26  C22 UNL     1      22.992   5.162  48.175  1.00  0.00     0.045 C 
ENDROOT
BRANCH   1  27
HETATM   27  O1  UNL     1      22.991  -0.423  54.459  1.00  0.00    -0.355 OA
HETATM   28  C1  UNL     1      23.078  -1.474  55.396  1.00  0.00     0.210 C 
ENDBRANCH   1  27
TORSDOF 1
ENDMDL
MODEL 7
REMARK VINA RESULT:      -7.9      5.786      9.328
REMARK  1 active torsions:
REMARK  status: ('A' for Active; 'I' for Inactive)
REMARK    1  A    between atoms: O1_2  and  C2_3 
ROOT
HETATM    1  C2  UNL     1      29.110  10.194  46.544  1.00  0.00     0.076 A 
HETATM    2  C3  UNL     1      30.422   9.896  46.866  1.00  0.00     0.070 A 
HETATM    3  C4  UNL     1      30.811   8.635  47.287  1.00  0.00     0.075 A 
HETATM    4  N1  UNL     1      32.112   8.497  47.580  1.00  0.00    -0.241 NA
HETATM    5  C5  UNL     1      32.541   7.297  48.009  1.00  0.00     0.236 A 
HETATM    6  N2  UNL     1      31.643   6.276  48.129  1.00  0.00    -0.222 NA
HETATM    7  C6  UNL     1      30.340   6.409  47.836  1.00  0.00     0.159 A 
HETATM    8  C7  UNL     1      29.884   7.630  47.394  1.00  0.00     0.041 A 
HETATM    9  C8  UNL     1      28.622   7.992  47.062  1.00  0.00     0.027 A 
HETATM   10  C9  UNL     1      28.158   9.215  46.642  1.00  0.00    -0.024 A 
HETATM   11  C10 UNL     1      26.661   9.347  46.391  1.00  0.00     0.043 C 
HETATM   12  C11 UNL     1      25.958   8.560  47.507  1.00  0.00     0.035 C 
HETATM   13  C12 UNL     1      24.478   8.665  47.447  1.00  0.00     0.273 C 
HETATM   14  N3  UNL     1      23.828   7.853  48.472  1.00  0.00     0.096 N 
HETATM   15  C13 UNL     1      23.988   8.406  49.772  1.00  0.00     0.292 C 
HETATM   16  C14 UNL     1      23.657   7.434  50.864  1.00  0.00     0.147 C 
HETATM   17  N4  UNL     1      24.419   6.207  50.819  1.00  0.00    -0.408 N 
HETATM   18  C15 UNL     1      23.823   5.116  51.465  1.00  0.00     0.143 C 
HETATM   19  C16 UNL     1      25.030   6.097  49.572  1.00  0.00     0.121 C 
HETATM   20  C17 UNL     1      25.884   4.880  49.321  1.00  0.00    -0.006 C 
HETATM   21  C18 UNL     1      25.581   3.444  49.430  1.00  0.00     0.019 C 
HETATM   22  C19 UNL     1      27.151   4.666  48.914  1.00  0.00     0.031 C 
HETATM   23  C20 UNL     1      28.484   5.040  48.471  1.00  0.00     0.141 C 
HETATM   24  N5  UNL     1      29.695   5.170  48.073  1.00  0.00    -0.263 NA
HETATM   25  C21 UNL     1      24.187   6.451  48.386  1.00  0.00     0.242 C 
HETATM   26  C22 UNL     1      22.909   5.672  48.252  1.00  0.00     0.045 C 
ENDROOT
BRANCH   1  27
HETATM   27  O1  UNL     1      28.640  11.439  46.114  1.00  0.00    -0.355 OA
HETATM   28  C1  UNL     1      28.993  12.578  46.867  1.00  0.00     0.210 C 
ENDBRANCH   1  27
TORSDOF 1
ENDMDL
MODEL 8
REMARK VINA RESULT:      -7.9      2.448      4.139
REMARK  1 active torsions:
REMARK  status: ('A' for Active; 'I' for Inactive)
REMARK    1  A    between atoms: O1_2  and  C2_3 
ROOT
HETATM    1  C2  UNL     1      25.389   3.453  50.404  1.00  0.00     0.076 A 
HETATM    2  C3  UNL     1      26.069   2.936  51.492  1.00  0.00     0.070 A 
HETATM    3  C4  UNL     1      25.557   1.904  52.260  1.00  0.00     0.075 A 
HETATM    4  N1  UNL     1      26.318   1.517  53.294  1.00  0.00    -0.241 NA
HETATM    5  C5  UNL     1      25.861   0.529  54.082  1.00  0.00     0.236 A 
HETATM    6  N2  UNL     1      24.651  -0.036  53.804  1.00  0.00    -0.222 NA
HETATM    7  C6  UNL     1      23.884   0.347  52.769  1.00  0.00     0.159 A 
HETATM    8  C7  UNL     1      24.338   1.357  51.952  1.00  0.00     0.041 A 
HETATM    9  C8  UNL     1      23.731   1.910  50.874  1.00  0.00     0.027 A 
HETATM   10  C9  UNL     1      24.169   2.932  50.068  1.00  0.00    -0.024 A 
HETATM   11  C10 UNL     1      23.239   3.389  48.951  1.00  0.00     0.043 C 
HETATM   12  C11 UNL     1      21.817   3.375  49.531  1.00  0.00     0.035 C 
HETATM   13  C12 UNL     1      20.797   3.882  48.577  1.00  0.00     0.273 C 
HETATM   14  N3  UNL     1      19.445   3.794  49.121  1.00  0.00     0.096 N 
HETATM   15  C13 UNL     1      19.218   4.754  50.145  1.00  0.00     0.292 C 
HETATM   16  C14 UNL     1      17.995   4.459  50.960  1.00  0.00     0.147 C 
HETATM   17  N4  UNL     1      17.994   3.155  51.582  1.00  0.00    -0.408 N 
HETATM   18  C15 UNL     1      16.726   2.654  51.908  1.00  0.00     0.143 C 
HETATM   19  C16 UNL     1      18.980   2.369  50.991  1.00  0.00     0.121 C 
HETATM   20  C17 UNL     1      19.149   0.962  51.505  1.00  0.00    -0.006 C 
HETATM   21  C18 UNL     1      18.187  -0.143  51.643  1.00  0.00     0.019 C 
HETATM   22  C19 UNL     1      20.178   0.233  51.982  1.00  0.00     0.031 C 
HETATM   23  C20 UNL     1      21.554  -0.021  52.375  1.00  0.00     0.141 C 
HETATM   24  N5  UNL     1      22.702  -0.432  52.770  1.00  0.00    -0.263 NA
HETATM   25  C21 UNL     1      19.081   2.442  49.498  1.00  0.00     0.242 C 
HETATM   26  C22 UNL     1      17.823   2.095  48.753  1.00  0.00     0.045 C 
ENDROOT
BRANCH   1  27
HETATM   27  O1  UNL     1      25.838   4.492  49.582  1.00  0.00    -0.355 OA
HETATM   28  C1  UNL     1      27.103   4.357  48.972  1.00  0.00     0.210 C 
ENDBRANCH   1  27
TORSDOF 1
ENDMDL
MODEL 9
REMARK VINA RESULT:      -7.7      4.914      8.128
REMARK  1 active torsions:
REMARK  status: ('A' for Active; 'I' for Inactive)
REMARK    1  A    between atoms: O1_2  and  C2_3 
ROOT
HETATM    1  C2  UNL     1      25.721   4.119  50.285  1.00  0.00     0.076 A 
HETATM    2  C3  UNL     1      24.516   4.476  50.864  1.00  0.00     0.070 A 
HETATM    3  C4  UNL     1      23.824   5.615  50.486  1.00  0.00     0.075 A 
HETATM    4  N1  UNL     1      22.679   5.843  51.146  1.00  0.00    -0.241 NA
HETATM    5  C5  UNL     1      21.975   6.944  50.830  1.00  0.00     0.236 A 
HETATM    6  N2  UNL     1      22.449   7.779  49.861  1.00  0.00    -0.222 NA
HETATM    7  C6  UNL     1      23.595   7.555  49.197  1.00  0.00     0.159 A 
HETATM    8  C7  UNL     1      24.327   6.432  49.507  1.00  0.00     0.041 A 
HETATM    9  C8  UNL     1      25.507   6.021  48.984  1.00  0.00     0.027 A 
HETATM   10  C9  UNL     1      26.253   4.912  49.305  1.00  0.00    -0.024 A 
HETATM   11  C10 UNL     1      27.583   4.732  48.584  1.00  0.00     0.043 C 
HETATM   12  C11 UNL     1      28.218   6.127  48.478  1.00  0.00     0.035 C 
HETATM   13  C12 UNL     1      29.571   6.103  47.867  1.00  0.00     0.273 C 
HETATM   14  N3  UNL     1      30.128   7.444  47.711  1.00  0.00     0.096 N 
HETATM   15  C13 UNL     1      30.510   8.012  48.957  1.00  0.00     0.292 C 
HETATM   16  C14 UNL     1      30.738   9.491  48.879  1.00  0.00     0.147 C 
HETATM   17  N4  UNL     1      29.604  10.243  48.390  1.00  0.00    -0.408 N 
HETATM   18  C15 UNL     1      29.916  11.493  47.839  1.00  0.00     0.143 C 
HETATM   19  C16 UNL     1      28.699   9.366  47.797  1.00  0.00     0.121 C 
HETATM   20  C17 UNL     1      27.435   9.955  47.224  1.00  0.00    -0.006 C 
HETATM   21  C18 UNL     1      27.223  11.026  46.238  1.00  0.00     0.019 C 
HETATM   22  C19 UNL     1      26.116   9.723  47.377  1.00  0.00     0.031 C 
HETATM   23  C20 UNL     1      24.938   9.062  47.915  1.00  0.00     0.141 C 
HETATM   24  N5  UNL     1      23.794   8.608  48.271  1.00  0.00    -0.263 NA
HETATM   25  C21 UNL     1      29.283   8.309  46.910  1.00  0.00     0.242 C 
HETATM   26  C22 UNL     1      30.121   8.818  45.771  1.00  0.00     0.045 C 
ENDROOT
BRANCH   1  27
HETATM   27  O1  UNL     1      26.477   2.989  50.611  1.00  0.00    -0.355 OA
HETATM   28  C1  UNL     1      25.901   2.029  51.469  1.00  0.00     0.210 C 
ENDBRANCH   1  27
TORSDOF 1
ENDMDL
