MODEL 1
REMARK VINA RESULT:      -7.4      0.000      0.000
REMARK  5 active torsions:
REMARK  status: ('A' for Active; 'I' for Inactive)
REMARK    1  A    between atoms: C3_4  and  N1_5 
REMARK    2  A    between atoms: N1_5  and  C4_6 
REMARK    3  A    between atoms: C8_13  and  C9_14 
REMARK    4  A    between atoms: C9_14  and  N5_15 
REMARK    5  A    between atoms: C12_18  and  N6_19 
ROOT
HETATM    1  C4  UNL     1      27.302   1.953  52.698  1.00  0.00     0.311 C 
HETATM    2  N2  UNL     1      28.638   1.889  52.946  1.00  0.00    -0.202 NA
HETATM    3  C5  UNL     1      29.098   1.042  54.115  1.00  0.00     0.233 C 
HETATM    4  N3  UNL     1      28.368  -0.052  54.773  1.00  0.00    -0.238 NA
HETATM    5  C6  UNL     1      27.018  -0.161  54.141  1.00  0.00     0.295 A 
HETATM    6  C7  UNL     1      26.772  -0.687  52.866  1.00  0.00     0.302 A 
HETATM    7  N4  UNL     1      26.552   0.794  53.074  1.00  0.00     0.049 N 
HETATM    8  C8  UNL     1      25.521   0.216  53.966  1.00  0.00     0.294 A 
ENDROOT
BRANCH   8   9
HETATM    9  C9  UNL     1      24.611  -0.805  53.571  1.00  0.00     0.311 C 
BRANCH   9  10
HETATM   10  N5  UNL     1      23.352  -0.463  52.988  1.00  0.00     0.090 N 
HETATM   11  C10 UNL     1      22.352  -1.426  53.480  1.00  0.00     0.274 C 
HETATM   12  C11 UNL     1      21.660  -0.985  54.732  1.00  0.00     0.065 C 
HETATM   13  C12 UNL     1      20.672   0.117  54.330  1.00  0.00     0.221 C 
HETATM   14  C13 UNL     1      21.331   0.895  53.195  1.00  0.00     0.065 C 
HETATM   15  C14 UNL     1      22.861   0.821  53.376  1.00  0.00     0.274 C 
BRANCH  13  16
HETATM   16  N6  UNL     1      19.456  -0.542  53.872  1.00  0.00     0.083 N 
HETATM   17  H16 UNL     1      19.319  -0.261  52.875  1.00  0.00     0.313 HD
HETATM   18  H17 UNL     1      18.676  -0.174  54.463  1.00  0.00     0.313 HD
ENDBRANCH  13  16
ENDBRANCH   9  10
ENDBRANCH   8   9
BRANCH   1  19
HETATM   19  N1  UNL     1      26.456   2.947  52.187  1.00  0.00    -0.329 N 
HETATM   20  H5  UNL     1      26.444   3.879  52.639  1.00  0.00     0.168 HD
BRANCH  19  21
HETATM   21  C3  UNL     1      25.751   2.454  51.076  1.00  0.00     0.110 C 
HETATM   22  C2  UNL     1      24.526   2.998  51.034  1.00  0.00     0.023 C 
HETATM   23  C1  UNL     1      23.619   2.601  49.920  1.00  0.00     0.063 C 
HETATM   24 CL1  UNL     1      23.866   4.154  52.185  1.00  0.00    -0.088 Cl
ENDBRANCH  19  21
ENDBRANCH   1  19
TORSDOF 5
ENDMDL
MODEL 2
REMARK VINA RESULT:      -7.1      2.146      5.490
REMARK  5 active torsions:
REMARK  status: ('A' for Active; 'I' for Inactive)
REMARK    1  A    between atoms: C3_4  and  N1_5 
REMARK    2  A    between atoms: N1_5  and  C4_6 
REMARK    3  A    between atoms: C8_13  and  C9_14 
REMARK    4  A    between atoms: C9_14  and  N5_15 
REMARK    5  A    between atoms: C12_18  and  N6_19 
ROOT
HETATM    1  C4  UNL     1      25.570  -0.180  54.757  1.00  0.00     0.311 C 
HETATM    2  N2  UNL     1      25.153  -1.237  55.505  1.00  0.00    -0.202 NA
HETATM    3  C5  UNL     1      23.660  -1.442  55.664  1.00  0.00     0.233 C 
HETATM    4  N3  UNL     1      22.586  -0.926  54.802  1.00  0.00    -0.238 NA
HETATM    5  C6  UNL     1      23.206  -0.071  53.744  1.00  0.00     0.295 A 
HETATM    6  C7  UNL     1      23.931  -0.555  52.647  1.00  0.00     0.302 A 
HETATM    7  N4  UNL     1      24.683   0.217  53.707  1.00  0.00     0.049 N 
HETATM    8  C8  UNL     1      23.775   1.258  53.174  1.00  0.00     0.294 A 
ENDROOT
BRANCH   8   9
HETATM    9  C9  UNL     1      23.601   1.526  51.787  1.00  0.00     0.311 C 
BRANCH   9  10
HETATM   10  N5  UNL     1      23.956   2.801  51.249  1.00  0.00     0.090 N 
HETATM   11  C10 UNL     1      25.362   3.064  51.603  1.00  0.00     0.274 C 
HETATM   12  C11 UNL     1      26.339   2.587  50.574  1.00  0.00     0.065 C 
HETATM   13  C12 UNL     1      26.258   3.567  49.397  1.00  0.00     0.221 C 
HETATM   14  C13 UNL     1      24.801   4.008  49.299  1.00  0.00     0.065 C 
HETATM   15  C14 UNL     1      23.909   2.863  49.823  1.00  0.00     0.274 C 
BRANCH  13  16
HETATM   16  N6  UNL     1      27.124   4.695  49.717  1.00  0.00     0.083 N 
HETATM   17  H16 UNL     1      26.582   5.317  50.357  1.00  0.00     0.313 HD
HETATM   18  H17 UNL     1      27.323   5.185  48.815  1.00  0.00     0.313 HD
ENDBRANCH  13  16
ENDBRANCH   9  10
ENDBRANCH   8   9
BRANCH   1  19
HETATM   19  N1  UNL     1      26.685   0.669  54.813  1.00  0.00    -0.329 N 
HETATM   20  H5  UNL     1      26.544   1.669  55.044  1.00  0.00     0.168 HD
BRANCH  19  21
HETATM   21  C3  UNL     1      27.856  -0.057  54.538  1.00  0.00     0.110 C 
HETATM   22  C2  UNL     1      28.763   0.742  53.958  1.00  0.00     0.023 C 
HETATM   23  C1  UNL     1      30.082   0.155  53.589  1.00  0.00     0.063 C 
HETATM   24 CL1  UNL     1      28.548   2.447  53.575  1.00  0.00    -0.088 Cl
ENDBRANCH  19  21
ENDBRANCH   1  19
TORSDOF 5
ENDMDL
MODEL 3
REMARK VINA RESULT:      -6.6      2.569      4.697
REMARK  5 active torsions:
REMARK  status: ('A' for Active; 'I' for Inactive)
REMARK    1  A    between atoms: C3_4  and  N1_5 
REMARK    2  A    between atoms: N1_5  and  C4_6 
REMARK    3  A    between atoms: C8_13  and  C9_14 
REMARK    4  A    between atoms: C9_14  and  N5_15 
REMARK    5  A    between atoms: C12_18  and  N6_19 
ROOT
HETATM    1  C4  UNL     1      25.892  -0.096  54.909  1.00  0.00     0.311 C 
HETATM    2  N2  UNL     1      25.262  -1.178  55.443  1.00  0.00    -0.202 NA
HETATM    3  C5  UNL     1      23.757  -1.263  55.291  1.00  0.00     0.233 C 
HETATM    4  N3  UNL     1      22.915  -0.574  54.302  1.00  0.00    -0.238 NA
HETATM    5  C6  UNL     1      23.789   0.319  53.482  1.00  0.00     0.295 A 
HETATM    6  C7  UNL     1      24.683  -0.122  52.497  1.00  0.00     0.302 A 
HETATM    7  N4  UNL     1      25.261   0.476  53.760  1.00  0.00     0.049 N 
HETATM    8  C8  UNL     1      24.550   1.640  53.182  1.00  0.00     0.294 A 
ENDROOT
BRANCH   8   9
HETATM    9  C9  UNL     1      24.675   2.053  51.826  1.00  0.00     0.311 C 
BRANCH   9  10
HETATM   10  N5  UNL     1      24.062   3.264  51.381  1.00  0.00     0.090 N 
HETATM   11  C10 UNL     1      22.854   2.904  50.619  1.00  0.00     0.274 C 
HETATM   12  C11 UNL     1      21.616   2.828  51.457  1.00  0.00     0.065 C 
HETATM   13  C12 UNL     1      21.208   4.270  51.781  1.00  0.00     0.221 C 
HETATM   14  C13 UNL     1      22.502   5.062  51.935  1.00  0.00     0.065 C 
HETATM   15  C14 UNL     1      23.602   4.106  52.440  1.00  0.00     0.274 C 
BRANCH  13  16
HETATM   16  N6  UNL     1      20.428   4.760  50.651  1.00  0.00     0.083 N 
HETATM   17  H16 UNL     1      20.213   5.763  50.847  1.00  0.00     0.313 HD
HETATM   18  H17 UNL     1      19.548   4.197  50.627  1.00  0.00     0.313 HD
ENDBRANCH  13  16
ENDBRANCH   9  10
ENDBRANCH   8   9
BRANCH   1  19
HETATM   19  N1  UNL     1      27.029   0.642  55.270  1.00  0.00    -0.329 N 
HETATM   20  H5  UNL     1      26.907   1.544  55.763  1.00  0.00     0.168 HD
BRANCH  19  21
HETATM   21  C3  UNL     1      28.190  -0.042  54.875  1.00  0.00     0.110 C 
HETATM   22  C2  UNL     1      28.873   0.693  53.986  1.00  0.00     0.023 C 
HETATM   23  C1  UNL     1      30.146   0.137  53.444  1.00  0.00     0.063 C 
HETATM   24 CL1  UNL     1      28.409   2.278  53.377  1.00  0.00    -0.088 Cl
ENDBRANCH  19  21
ENDBRANCH   1  19
TORSDOF 5
ENDMDL
MODEL 4
REMARK VINA RESULT:      -6.5      1.838      2.243
REMARK  5 active torsions:
REMARK  status: ('A' for Active; 'I' for Inactive)
REMARK    1  A    between atoms: C3_4  and  N1_5 
REMARK    2  A    between atoms: N1_5  and  C4_6 
REMARK    3  A    between atoms: C8_13  and  C9_14 
REMARK    4  A    between atoms: C9_14  and  N5_15 
REMARK    5  A    between atoms: C12_18  and  N6_19 
ROOT
HETATM    1  C4  UNL     1      26.482   2.090  51.839  1.00  0.00     0.311 C 
HETATM    2  N2  UNL     1      27.782   2.057  52.238  1.00  0.00    -0.202 NA
HETATM    3  C5  UNL     1      28.067   1.696  53.682  1.00  0.00     0.233 C 
HETATM    4  N3  UNL     1      27.192   0.974  54.616  1.00  0.00    -0.238 NA
HETATM    5  C6  UNL     1      25.894   0.701  53.926  1.00  0.00     0.295 A 
HETATM    6  C7  UNL     1      25.708  -0.257  52.922  1.00  0.00     0.302 A 
HETATM    7  N4  UNL     1      25.604   1.201  52.536  1.00  0.00     0.049 N 
HETATM    8  C8  UNL     1      24.455   1.059  53.460  1.00  0.00     0.294 A 
ENDROOT
BRANCH   8   9
HETATM    9  C9  UNL     1      23.494   0.012  53.377  1.00  0.00     0.311 C 
BRANCH   9  10
HETATM   10  N5  UNL     1      22.120   0.271  53.665  1.00  0.00     0.090 N 
HETATM   11  C10 UNL     1      21.630   1.252  52.682  1.00  0.00     0.274 C 
HETATM   12  C11 UNL     1      21.042   0.629  51.454  1.00  0.00     0.065 C 
HETATM   13  C12 UNL     1      19.672   0.068  51.853  1.00  0.00     0.221 C 
HETATM   14  C13 UNL     1      19.808  -0.429  53.289  1.00  0.00     0.065 C 
HETATM   15  C14 UNL     1      21.270  -0.867  53.517  1.00  0.00     0.274 C 
BRANCH  13  16
HETATM   16  N6  UNL     1      18.717   1.165  51.770  1.00  0.00     0.083 N 
HETATM   17  H16 UNL     1      17.925   0.830  51.176  1.00  0.00     0.313 HD
HETATM   18  H17 UNL     1      19.212   1.958  51.302  1.00  0.00     0.313 HD
ENDBRANCH  13  16
ENDBRANCH   9  10
ENDBRANCH   8   9
BRANCH   1  19
HETATM   19  N1  UNL     1      25.772   2.857  50.904  1.00  0.00    -0.329 N 
HETATM   20  H5  UNL     1      24.750   2.975  51.023  1.00  0.00     0.168 HD
BRANCH  19  21
HETATM   21  C3  UNL     1      26.650   3.360  49.930  1.00  0.00     0.110 C 
HETATM   22  C2  UNL     1      26.297   4.610  49.598  1.00  0.00     0.023 C 
HETATM   23  C1  UNL     1      27.113   5.323  48.575  1.00  0.00     0.063 C 
HETATM   24 CL1  UNL     1      24.937   5.512  50.259  1.00  0.00    -0.088 Cl
ENDBRANCH  19  21
ENDBRANCH   1  19
TORSDOF 5
ENDMDL
MODEL 5
REMARK VINA RESULT:      -6.5      2.154      4.146
REMARK  5 active torsions:
REMARK  status: ('A' for Active; 'I' for Inactive)
REMARK    1  A    between atoms: C3_4  and  N1_5 
REMARK    2  A    between atoms: N1_5  and  C4_6 
REMARK    3  A    between atoms: C8_13  and  C9_14 
REMARK    4  A    between atoms: C9_14  and  N5_15 
REMARK    5  A    between atoms: C12_18  and  N6_19 
ROOT
HETATM    1  C4  UNL     1      25.963   1.861  51.808  1.00  0.00     0.311 C 
HETATM    2  N2  UNL     1      26.924   2.687  51.312  1.00  0.00    -0.202 NA
HETATM    3  C5  UNL     1      26.631   3.408  50.012  1.00  0.00     0.233 C 
HETATM    4  N3  UNL     1      25.316   3.679  49.413  1.00  0.00    -0.238 NA
HETATM    5  C6  UNL     1      24.270   3.047  50.273  1.00  0.00     0.295 A 
HETATM    6  C7  UNL     1      23.863   3.531  51.523  1.00  0.00     0.302 A 
HETATM    7  N4  UNL     1      24.617   2.221  51.483  1.00  0.00     0.049 N 
HETATM    8  C8  UNL     1      23.378   1.869  50.754  1.00  0.00     0.294 A 
ENDROOT
BRANCH   8   9
HETATM    9  C9  UNL     1      22.068   2.164  51.225  1.00  0.00     0.311 C 
BRANCH   9  10
HETATM   10  N5  UNL     1      21.201   1.112  51.651  1.00  0.00     0.090 N 
HETATM   11  C10 UNL     1      22.032   0.065  52.269  1.00  0.00     0.274 C 
HETATM   12  C11 UNL     1      22.212   0.236  53.746  1.00  0.00     0.065 C 
HETATM   13  C12 UNL     1      20.888  -0.167  54.405  1.00  0.00     0.221 C 
HETATM   14  C13 UNL     1      19.779   0.267  53.451  1.00  0.00     0.065 C 
HETATM   15  C14 UNL     1      20.269   1.499  52.663  1.00  0.00     0.274 C 
BRANCH  13  16
HETATM   16  N6  UNL     1      20.907  -1.616  54.557  1.00  0.00     0.083 N 
HETATM   17  H16 UNL     1      21.910  -1.896  54.643  1.00  0.00     0.313 HD
HETATM   18  H17 UNL     1      20.491  -2.015  53.685  1.00  0.00     0.313 HD
ENDBRANCH  13  16
ENDBRANCH   9  10
ENDBRANCH   8   9
BRANCH   1  19
HETATM   19  N1  UNL     1      25.994   0.670  52.548  1.00  0.00    -0.329 N 
HETATM   20  H5  UNL     1      25.188   0.434  53.154  1.00  0.00     0.168 HD
BRANCH  19  21
HETATM   21  C3  UNL     1      27.189  -0.023  52.294  1.00  0.00     0.110 C 
HETATM   22  C2  UNL     1      27.804  -0.312  53.449  1.00  0.00     0.023 C 
HETATM   23  C1  UNL     1      29.097  -1.052  53.390  1.00  0.00     0.063 C 
HETATM   24 CL1  UNL     1      27.233   0.107  55.060  1.00  0.00    -0.088 Cl
ENDBRANCH  19  21
ENDBRANCH   1  19
TORSDOF 5
ENDMDL
MODEL 6
REMARK VINA RESULT:      -6.4      2.192      5.914
REMARK  5 active torsions:
REMARK  status: ('A' for Active; 'I' for Inactive)
REMARK    1  A    between atoms: C3_4  and  N1_5 
REMARK    2  A    between atoms: N1_5  and  C4_6 
REMARK    3  A    between atoms: C8_13  and  C9_14 
REMARK    4  A    between atoms: C9_14  and  N5_15 
REMARK    5  A    between atoms: C12_18  and  N6_19 
ROOT
HETATM    1  C4  UNL     1      23.628  -0.744  53.798  1.00  0.00     0.311 C 
HETATM    2  N2  UNL     1      22.674  -1.291  54.598  1.00  0.00    -0.202 NA
HETATM    3  C5  UNL     1      21.443  -0.460  54.896  1.00  0.00     0.233 C 
HETATM    4  N3  UNL     1      20.922   0.680  54.127  1.00  0.00    -0.238 NA
HETATM    5  C6  UNL     1      21.867   0.958  53.003  1.00  0.00     0.295 A 
HETATM    6  C7  UNL     1      21.996   0.168  51.853  1.00  0.00     0.302 A 
HETATM    7  N4  UNL     1      23.152   0.192  52.827  1.00  0.00     0.049 N 
HETATM    8  C8  UNL     1      23.129   1.598  52.362  1.00  0.00     0.294 A 
ENDROOT
BRANCH   8   9
HETATM    9  C9  UNL     1      23.069   1.980  50.993  1.00  0.00     0.311 C 
BRANCH   9  10
HETATM   10  N5  UNL     1      23.347   3.328  50.607  1.00  0.00     0.090 N 
HETATM   11  C10 UNL     1      24.588   3.743  51.283  1.00  0.00     0.274 C 
HETATM   12  C11 UNL     1      25.825   3.477  50.484  1.00  0.00     0.065 C 
HETATM   13  C12 UNL     1      25.865   4.524  49.365  1.00  0.00     0.221 C 
HETATM   14  C13 UNL     1      24.418   4.779  48.957  1.00  0.00     0.065 C 
HETATM   15  C14 UNL     1      23.606   3.492  49.212  1.00  0.00     0.274 C 
BRANCH  13  16
HETATM   16  N6  UNL     1      26.469   5.727  49.923  1.00  0.00     0.083 N 
HETATM   17  H16 UNL     1      27.244   5.411  50.548  1.00  0.00     0.313 HD
HETATM   18  H17 UNL     1      25.725   6.205  50.479  1.00  0.00     0.313 HD
ENDBRANCH  13  16
ENDBRANCH   9  10
ENDBRANCH   8   9
BRANCH   1  19
HETATM   19  N1  UNL     1      25.025  -0.854  53.738  1.00  0.00    -0.329 N 
HETATM   20  H5  UNL     1      25.445  -1.716  53.348  1.00  0.00     0.168 HD
BRANCH  19  21
HETATM   21  C3  UNL     1      25.621   0.314  54.241  1.00  0.00     0.110 C 
HETATM   22  C2  UNL     1      26.456   0.831  53.329  1.00  0.00     0.023 C 
HETATM   23  C1  UNL     1      27.189   2.082  53.676  1.00  0.00     0.063 C 
HETATM   24 CL1  UNL     1      26.786   0.167  51.732  1.00  0.00    -0.088 Cl
ENDBRANCH  19  21
ENDBRANCH   1  19
TORSDOF 5
ENDMDL
MODEL 7
REMARK VINA RESULT:      -6.4      2.587      6.164
REMARK  5 active torsions:
REMARK  status: ('A' for Active; 'I' for Inactive)
REMARK    1  A    between atoms: C3_4  and  N1_5 
REMARK    2  A    between atoms: N1_5  and  C4_6 
REMARK    3  A    between atoms: C8_13  and  C9_14 
REMARK    4  A    between atoms: C9_14  and  N5_15 
REMARK    5  A    between atoms: C12_18  and  N6_19 
ROOT
HETATM    1  C4  UNL     1      22.906  -0.003  53.146  1.00  0.00     0.311 C 
HETATM    2  N2  UNL     1      22.351  -1.195  53.495  1.00  0.00    -0.202 NA
HETATM    3  C5  UNL     1      20.881  -1.207  53.863  1.00  0.00     0.233 C 
HETATM    4  N3  UNL     1      19.858  -0.213  53.505  1.00  0.00    -0.238 NA
HETATM    5  C6  UNL     1      20.525   0.897  52.758  1.00  0.00     0.295 A 
HETATM    6  C7  UNL     1      20.983   0.810  51.437  1.00  0.00     0.302 A 
HETATM    7  N4  UNL     1      22.014   0.934  52.536  1.00  0.00     0.049 N 
HETATM    8  C8  UNL     1      21.310   2.233  52.645  1.00  0.00     0.294 A 
ENDROOT
BRANCH   8   9
HETATM    9  C9  UNL     1      21.037   3.083  51.536  1.00  0.00     0.311 C 
BRANCH   9  10
HETATM   10  N5  UNL     1      21.302   4.484  51.620  1.00  0.00     0.090 N 
HETATM   11  C10 UNL     1      22.486   4.668  52.476  1.00  0.00     0.274 C 
HETATM   12  C11 UNL     1      23.778   4.678  51.719  1.00  0.00     0.065 C 
HETATM   13  C12 UNL     1      23.860   6.029  50.997  1.00  0.00     0.221 C 
HETATM   14  C13 UNL     1      22.435   6.392  50.594  1.00  0.00     0.065 C 
HETATM   15  C14 UNL     1      21.643   5.086  50.370  1.00  0.00     0.274 C 
BRANCH  13  16
HETATM   16  N6  UNL     1      24.395   6.993  51.949  1.00  0.00     0.083 N 
HETATM   17  H16 UNL     1      23.769   7.829  51.914  1.00  0.00     0.313 HD
HETATM   18  H17 UNL     1      25.354   7.243  51.616  1.00  0.00     0.313 HD
ENDBRANCH  13  16
ENDBRANCH   9  10
ENDBRANCH   8   9
BRANCH   1  19
HETATM   19  N1  UNL     1      24.184   0.555  53.298  1.00  0.00    -0.329 N 
HETATM   20  H5  UNL     1      24.292   1.583  53.247  1.00  0.00     0.168 HD
BRANCH  19  21
HETATM   21  C3  UNL     1      25.128  -0.461  53.519  1.00  0.00     0.110 C 
HETATM   22  C2  UNL     1      26.213  -0.250  52.761  1.00  0.00     0.023 C 
HETATM   23  C1  UNL     1      27.337  -1.224  52.855  1.00  0.00     0.063 C 
HETATM   24 CL1  UNL     1      26.448   1.087  51.639  1.00  0.00    -0.088 Cl
ENDBRANCH  19  21
ENDBRANCH   1  19
TORSDOF 5
ENDMDL
MODEL 8
REMARK VINA RESULT:      -6.3      2.767      5.918
REMARK  5 active torsions:
REMARK  status: ('A' for Active; 'I' for Inactive)
REMARK    1  A    between atoms: C3_4  and  N1_5 
REMARK    2  A    between atoms: N1_5  and  C4_6 
REMARK    3  A    between atoms: C8_13  and  C9_14 
REMARK    4  A    between atoms: C9_14  and  N5_15 
REMARK    5  A    between atoms: C12_18  and  N6_19 
ROOT
HETATM    1  C4  UNL     1      21.178   3.408  51.975  1.00  0.00     0.311 C 
HETATM    2  N2  UNL     1      21.247   4.593  51.311  1.00  0.00    -0.202 NA
HETATM    3  C5  UNL     1      22.574   5.324  51.310  1.00  0.00     0.233 C 
HETATM    4  N3  UNL     1      23.909   4.762  51.560  1.00  0.00    -0.238 NA
HETATM    5  C6  UNL     1      23.750   3.316  51.905  1.00  0.00     0.295 A 
HETATM    6  C7  UNL     1      23.434   2.305  50.988  1.00  0.00     0.302 A 
HETATM    7  N4  UNL     1      22.398   2.664  52.030  1.00  0.00     0.049 N 
HETATM    8  C8  UNL     1      23.492   2.129  52.873  1.00  0.00     0.294 A 
ENDROOT
BRANCH   8   9
HETATM    9  C9  UNL     1      24.158   0.896  52.622  1.00  0.00     0.311 C 
BRANCH   9  10
HETATM   10  N5  UNL     1      25.069   0.361  53.582  1.00  0.00     0.090 N 
HETATM   11  C10 UNL     1      25.715  -0.819  52.981  1.00  0.00     0.274 C 
HETATM   12  C11 UNL     1      26.986  -0.502  52.256  1.00  0.00     0.065 C 
HETATM   13  C12 UNL     1      28.053  -0.233  53.324  1.00  0.00     0.221 C 
HETATM   14  C13 UNL     1      27.339   0.451  54.486  1.00  0.00     0.065 C 
HETATM   15  C14 UNL     1      26.140   1.243  53.924  1.00  0.00     0.274 C 
BRANCH  13  16
HETATM   16  N6  UNL     1      28.591  -1.525  53.731  1.00  0.00     0.083 N 
HETATM   17  H16 UNL     1      27.852  -1.990  54.304  1.00  0.00     0.313 HD
HETATM   18  H17 UNL     1      29.434  -1.328  54.315  1.00  0.00     0.313 HD
ENDBRANCH  13  16
ENDBRANCH   9  10
ENDBRANCH   8   9
BRANCH   1  19
HETATM   19  N1  UNL     1      20.163   2.750  52.685  1.00  0.00    -0.329 N 
HETATM   20  H5  UNL     1      20.194   2.748  53.720  1.00  0.00     0.168 HD
BRANCH  19  21
HETATM   21  C3  UNL     1      19.233   2.195  51.790  1.00  0.00     0.110 C 
HETATM   22  C2  UNL     1      19.262   0.857  51.872  1.00  0.00     0.023 C 
HETATM   23  C1  UNL     1      18.339   0.080  50.997  1.00  0.00     0.063 C 
HETATM   24 CL1  UNL     1      20.302  -0.094  52.926  1.00  0.00    -0.088 Cl
ENDBRANCH  19  21
ENDBRANCH   1  19
TORSDOF 5
ENDMDL
MODEL 9
REMARK VINA RESULT:      -6.3      2.876      4.461
REMARK  5 active torsions:
REMARK  status: ('A' for Active; 'I' for Inactive)
REMARK    1  A    between atoms: C3_4  and  N1_5 
REMARK    2  A    between atoms: N1_5  and  C4_6 
REMARK    3  A    between atoms: C8_13  and  C9_14 
REMARK    4  A    between atoms: C9_14  and  N5_15 
REMARK    5  A    between atoms: C12_18  and  N6_19 
ROOT
HETATM    1  C4  UNL     1      25.137   5.772  50.320  1.00  0.00     0.311 C 
HETATM    2  N2  UNL     1      25.941   6.128  49.282  1.00  0.00    -0.202 NA
HETATM    3  C5  UNL     1      27.037   5.163  48.877  1.00  0.00     0.233 C 
HETATM    4  N3  UNL     1      27.112   3.722  49.155  1.00  0.00    -0.238 NA
HETATM    5  C6  UNL     1      25.935   3.345  49.996  1.00  0.00     0.295 A 
HETATM    6  C7  UNL     1      24.617   3.245  49.530  1.00  0.00     0.302 A 
HETATM    7  N4  UNL     1      24.943   4.365  50.492  1.00  0.00     0.049 N 
HETATM    8  C8  UNL     1      25.173   3.173  51.340  1.00  0.00     0.294 A 
ENDROOT
BRANCH   8   9
HETATM    9  C9  UNL     1      24.253   2.094  51.459  1.00  0.00     0.311 C 
BRANCH   9  10
HETATM   10  N5  UNL     1      23.975   1.521  52.738  1.00  0.00     0.090 N 
HETATM   11  C10 UNL     1      22.517   1.342  52.844  1.00  0.00     0.274 C 
HETATM   12  C11 UNL     1      22.041   0.004  52.370  1.00  0.00     0.065 C 
HETATM   13  C12 UNL     1      22.431  -1.015  53.448  1.00  0.00     0.221 C 
HETATM   14  C13 UNL     1      23.764  -0.547  54.023  1.00  0.00     0.065 C 
HETATM   15  C14 UNL     1      24.529   0.217  52.923  1.00  0.00     0.274 C 
BRANCH  13  16
HETATM   16  N6  UNL     1      21.386  -0.988  54.463  1.00  0.00     0.083 N 
HETATM   17  H16 UNL     1      21.833  -1.281  55.361  1.00  0.00     0.313 HD
HETATM   18  H17 UNL     1      20.666  -1.686  54.170  1.00  0.00     0.313 HD
ENDBRANCH  13  16
ENDBRANCH   9  10
ENDBRANCH   8   9
BRANCH   1  19
HETATM   19  N1  UNL     1      24.471   6.490  51.323  1.00  0.00    -0.329 N 
HETATM   20  H5  UNL     1      24.713   6.311  52.314  1.00  0.00     0.168 HD
BRANCH  19  21
HETATM   21  C3  UNL     1      23.553   7.383  50.747  1.00  0.00     0.110 C 
HETATM   22  C2  UNL     1      22.306   6.911  50.888  1.00  0.00     0.023 C 
HETATM   23  C1  UNL     1      21.182   7.722  50.340  1.00  0.00     0.063 C 
HETATM   24 CL1  UNL     1      21.852   5.399  51.666  1.00  0.00    -0.088 Cl
ENDBRANCH  19  21
ENDBRANCH   1  19
TORSDOF 5
ENDMDL
