MODEL 1
REMARK VINA RESULT:      -7.9      0.000      0.000
REMARK  7 active torsions:
REMARK  status: ('A' for Active; 'I' for Inactive)
REMARK    1  A    between atoms: C2_2  and  C3_3 
REMARK    2  A    between atoms: C2_2  and  C15_17 
REMARK    3  A    between atoms: C3_3  and  C4_4 
REMARK    4  A    between atoms: C5_5  and  O1_6 
REMARK    5  A    between atoms: O1_6  and  C6_7 
REMARK    6  A    between atoms: C6_7  and  C7_8 
REMARK    7  A    between atoms: C7_8  and  C8_9 
ROOT
HETATM    1  C4  UNL     1      23.858   0.291  52.951  1.00  0.00    -0.024 A 
HETATM    2  C5  UNL     1      23.417   1.553  52.953  1.00  0.00     0.075 A 
HETATM    3  C13 UNL     1      22.045   1.098  52.768  1.00  0.00     0.038 A 
HETATM    4  C14 UNL     1      22.479  -0.152  52.766  1.00  0.00     0.013 A 
ENDROOT
BRANCH   1   5
HETATM    5  C3  UNL     1      25.102  -0.550  53.064  1.00  0.00     0.054 C 
BRANCH   5   6
HETATM    6  C2  UNL     1      25.652  -0.273  54.421  1.00  0.00     0.001 C 
HETATM    7  C1  UNL     1      24.869  -1.026  55.211  1.00  0.00     0.014 C 
BRANCH   6   8
HETATM    8  C15 UNL     1      26.787   0.627  54.713  1.00  0.00     0.159 C 
HETATM    9  N1  UNL     1      26.699   1.928  54.160  1.00  0.00    -0.395 N 
HETATM   10  C16 UNL     1      27.652   2.265  53.148  1.00  0.00     0.233 C 
HETATM   11  H17 UNL     1      26.486   2.688  54.838  1.00  0.00     0.155 HD
HETATM   12  N2  UNL     1      29.012   1.979  53.450  1.00  0.00    -0.400 N 
HETATM   13  C17 UNL     1      29.214   1.034  54.519  1.00  0.00     0.196 C 
HETATM   14  H20 UNL     1      29.652   2.780  53.493  1.00  0.00     0.155 HD
HETATM   15  C18 UNL     1      28.118   0.018  54.408  1.00  0.00     0.167 C 
HETATM   16  O2  UNL     1      28.293  -1.171  54.102  1.00  0.00    -0.294 OA
ENDBRANCH   6   8
ENDBRANCH   5   6
ENDBRANCH   1   5
BRANCH   2  17
HETATM   17  O1  UNL     1      23.956   2.817  53.073  1.00  0.00    -0.350 OA
BRANCH  17  18
HETATM   18  C6  UNL     1      24.193   3.709  52.032  1.00  0.00     0.180 C 
BRANCH  18  19
HETATM   19  C7  UNL     1      24.842   3.102  50.811  1.00  0.00     0.072 C 
BRANCH  19  20
HETATM   20  C8  UNL     1      25.602   4.130  50.065  1.00  0.00    -0.020 A 
HETATM   21  C9  UNL     1      26.715   3.725  49.472  1.00  0.00     0.014 A 
HETATM   22  C10 UNL     1      27.515   4.680  48.721  1.00  0.00    -0.002 A 
HETATM   23  C11 UNL     1      27.202   5.959  48.585  1.00  0.00    -0.016 A 
HETATM   24  C12 UNL     1      26.100   6.808  49.055  1.00  0.00     0.106 A 
HETATM   25  S1  UNL     1      24.960   5.797  50.035  1.00  0.00    -0.131 SA
ENDBRANCH  19  20
ENDBRANCH  18  19
ENDBRANCH  17  18
ENDBRANCH   2  17
TORSDOF 7
ENDMDL
MODEL 2
REMARK VINA RESULT:      -7.1      1.988      2.727
REMARK  7 active torsions:
REMARK  status: ('A' for Active; 'I' for Inactive)
REMARK    1  A    between atoms: C2_2  and  C3_3 
REMARK    2  A    between atoms: C2_2  and  C15_17 
REMARK    3  A    between atoms: C3_3  and  C4_4 
REMARK    4  A    between atoms: C5_5  and  O1_6 
REMARK    5  A    between atoms: O1_6  and  C6_7 
REMARK    6  A    between atoms: C6_7  and  C7_8 
REMARK    7  A    between atoms: C7_8  and  C8_9 
ROOT
HETATM    1  C4  UNL     1      23.221   0.808  52.982  1.00  0.00    -0.024 A 
HETATM    2  C5  UNL     1      22.220   0.217  52.322  1.00  0.00     0.075 A 
HETATM    3  C13 UNL     1      22.365  -0.986  53.133  1.00  0.00     0.038 A 
HETATM    4  C14 UNL     1      23.357  -0.402  53.788  1.00  0.00     0.013 A 
ENDROOT
BRANCH   1   5
HETATM    5  C3  UNL     1      24.023   2.079  53.065  1.00  0.00     0.054 C 
BRANCH   5   6
HETATM    6  C2  UNL     1      25.442   1.675  52.858  1.00  0.00     0.001 C 
HETATM    7  C1  UNL     1      25.497   1.479  51.530  1.00  0.00     0.014 C 
BRANCH   6   8
HETATM    8  C15 UNL     1      26.457   1.551  53.924  1.00  0.00     0.159 C 
HETATM    9  N1  UNL     1      27.401   2.605  54.001  1.00  0.00    -0.395 N 
HETATM   10  C16 UNL     1      28.758   2.278  53.692  1.00  0.00     0.233 C 
HETATM   11  H17 UNL     1      27.274   3.261  54.798  1.00  0.00     0.155 HD
HETATM   12  N2  UNL     1      29.289   1.130  54.343  1.00  0.00    -0.400 N 
HETATM   13  C17 UNL     1      28.305   0.226  54.884  1.00  0.00     0.196 C 
HETATM   14  H20 UNL     1      30.085   1.284  54.971  1.00  0.00     0.155 HD
HETATM   15  C18 UNL     1      27.150   0.226  53.930  1.00  0.00     0.167 C 
HETATM   16  O2  UNL     1      26.814  -0.745  53.235  1.00  0.00    -0.294 OA
ENDBRANCH   6   8
ENDBRANCH   5   6
ENDBRANCH   1   5
BRANCH   2  17
HETATM   17  O1  UNL     1      21.355   0.531  51.295  1.00  0.00    -0.350 OA
BRANCH  17  18
HETATM   18  C6  UNL     1      21.717   0.980  50.029  1.00  0.00     0.180 C 
BRANCH  18  19
HETATM   19  C7  UNL     1      21.243   2.373  49.689  1.00  0.00     0.072 C 
BRANCH  19  20
HETATM   20  C8  UNL     1      22.324   3.358  49.923  1.00  0.00    -0.020 A 
HETATM   21  C9  UNL     1      23.401   3.241  49.162  1.00  0.00     0.014 A 
HETATM   22  C10 UNL     1      24.505   4.173  49.334  1.00  0.00    -0.002 A 
HETATM   23  C11 UNL     1      24.509   5.156  50.221  1.00  0.00    -0.016 A 
HETATM   24  C12 UNL     1      23.560   5.636  51.234  1.00  0.00     0.106 A 
HETATM   25  S1  UNL     1      22.079   4.592  51.191  1.00  0.00    -0.131 SA
ENDBRANCH  19  20
ENDBRANCH  18  19
ENDBRANCH  17  18
ENDBRANCH   2  17
TORSDOF 7
ENDMDL
MODEL 3
REMARK VINA RESULT:      -7.1      2.934      4.020
REMARK  7 active torsions:
REMARK  status: ('A' for Active; 'I' for Inactive)
REMARK    1  A    between atoms: C2_2  and  C3_3 
REMARK    2  A    between atoms: C2_2  and  C15_17 
REMARK    3  A    between atoms: C3_3  and  C4_4 
REMARK    4  A    between atoms: C5_5  and  O1_6 
REMARK    5  A    between atoms: O1_6  and  C6_7 
REMARK    6  A    between atoms: C6_7  and  C7_8 
REMARK    7  A    between atoms: C7_8  and  C8_9 
ROOT
HETATM    1  C4  UNL     1      23.220   0.110  53.248  1.00  0.00    -0.024 A 
HETATM    2  C5  UNL     1      22.033   0.080  53.863  1.00  0.00     0.075 A 
HETATM    3  C13 UNL     1      22.526  -0.903  54.819  1.00  0.00     0.038 A 
HETATM    4  C14 UNL     1      23.703  -0.875  54.213  1.00  0.00     0.013 A 
ENDROOT
BRANCH   1   5
HETATM    5  C3  UNL     1      23.971   0.745  52.109  1.00  0.00     0.054 C 
BRANCH   5   6
HETATM    6  C2  UNL     1      25.154   1.407  52.727  1.00  0.00     0.001 C 
HETATM    7  C1  UNL     1      24.631   2.547  53.208  1.00  0.00     0.014 C 
BRANCH   6   8
HETATM    8  C15 UNL     1      26.524   0.856  52.748  1.00  0.00     0.159 C 
HETATM    9  N1  UNL     1      26.737  -0.295  51.949  1.00  0.00    -0.395 N 
HETATM   10  C16 UNL     1      27.031  -1.513  52.638  1.00  0.00     0.233 C 
HETATM   11  H17 UNL     1      27.281  -0.139  51.076  1.00  0.00     0.155 HD
HETATM   12  N2  UNL     1      28.048  -1.441  53.630  1.00  0.00    -0.400 N 
HETATM   13  C17 UNL     1      28.350  -0.112  54.099  1.00  0.00     0.196 C 
HETATM   14  H20 UNL     1      28.884  -2.014  53.474  1.00  0.00     0.155 HD
HETATM   15  C18 UNL     1      27.054   0.638  54.129  1.00  0.00     0.167 C 
HETATM   16  O2  UNL     1      26.493   1.027  55.165  1.00  0.00    -0.294 OA
ENDBRANCH   6   8
ENDBRANCH   5   6
ENDBRANCH   1   5
BRANCH   2  17
HETATM   17  O1  UNL     1      20.802   0.687  53.724  1.00  0.00    -0.350 OA
BRANCH  17  18
HETATM   18  C6  UNL     1      19.835   0.368  52.777  1.00  0.00     0.180 C 
BRANCH  18  19
HETATM   19  C7  UNL     1      19.413   1.514  51.888  1.00  0.00     0.072 C 
BRANCH  19  20
HETATM   20  C8  UNL     1      20.519   1.898  50.981  1.00  0.00    -0.020 A 
HETATM   21  C9  UNL     1      20.794   1.054  49.999  1.00  0.00     0.014 A 
HETATM   22  C10 UNL     1      21.869   1.364  49.068  1.00  0.00    -0.002 A 
HETATM   23  C11 UNL     1      22.609   2.460  49.135  1.00  0.00    -0.016 A 
HETATM   24  C12 UNL     1      22.650   3.625  50.027  1.00  0.00     0.106 A 
HETATM   25  S1  UNL     1      21.366   3.440  51.292  1.00  0.00    -0.131 SA
ENDBRANCH  19  20
ENDBRANCH  18  19
ENDBRANCH  17  18
ENDBRANCH   2  17
TORSDOF 7
ENDMDL
MODEL 4
REMARK VINA RESULT:      -7.0      1.744      2.280
REMARK  7 active torsions:
REMARK  status: ('A' for Active; 'I' for Inactive)
REMARK    1  A    between atoms: C2_2  and  C3_3 
REMARK    2  A    between atoms: C2_2  and  C15_17 
REMARK    3  A    between atoms: C3_3  and  C4_4 
REMARK    4  A    between atoms: C5_5  and  O1_6 
REMARK    5  A    between atoms: O1_6  and  C6_7 
REMARK    6  A    between atoms: C6_7  and  C7_8 
REMARK    7  A    between atoms: C7_8  and  C8_9 
ROOT
HETATM    1  C4  UNL     1      23.834  -0.067  53.554  1.00  0.00    -0.024 A 
HETATM    2  C5  UNL     1      23.509   1.159  53.133  1.00  0.00     0.075 A 
HETATM    3  C13 UNL     1      22.226   0.676  52.640  1.00  0.00     0.038 A 
HETATM    4  C14 UNL     1      22.545  -0.540  53.057  1.00  0.00     0.013 A 
ENDROOT
BRANCH   1   5
HETATM    5  C3  UNL     1      24.918  -0.859  54.235  1.00  0.00     0.054 C 
BRANCH   5   6
HETATM    6  C2  UNL     1      26.201  -0.341  53.682  1.00  0.00     0.001 C 
HETATM    7  C1  UNL     1      26.309  -1.010  52.522  1.00  0.00     0.014 C 
BRANCH   6   8
HETATM    8  C15 UNL     1      27.066   0.664  54.333  1.00  0.00     0.159 C 
HETATM    9  N1  UNL     1      26.986   1.978  53.808  1.00  0.00    -0.395 N 
HETATM   10  C16 UNL     1      28.153   2.482  53.153  1.00  0.00     0.233 C 
HETATM   11  H17 UNL     1      26.479   2.666  54.401  1.00  0.00     0.155 HD
HETATM   12  N2  UNL     1      29.379   2.337  53.860  1.00  0.00    -0.400 N 
HETATM   13  C17 UNL     1      29.362   1.359  54.919  1.00  0.00     0.196 C 
HETATM   14  H20 UNL     1      29.866   3.203  54.118  1.00  0.00     0.155 HD
HETATM   15  C18 UNL     1      28.493   0.233  54.448  1.00  0.00     0.167 C 
HETATM   16  O2  UNL     1      28.904  -0.908  54.187  1.00  0.00    -0.294 OA
ENDBRANCH   6   8
ENDBRANCH   5   6
ENDBRANCH   1   5
BRANCH   2  17
HETATM   17  O1  UNL     1      24.081   2.414  53.124  1.00  0.00    -0.350 OA
BRANCH  17  18
HETATM   18  C6  UNL     1      23.705   3.480  52.313  1.00  0.00     0.180 C 
BRANCH  18  19
HETATM   19  C7  UNL     1      24.580   3.696  51.102  1.00  0.00     0.072 C 
BRANCH  19  20
HETATM   20  C8  UNL     1      23.765   3.686  49.866  1.00  0.00    -0.020 A 
HETATM   21  C9  UNL     1      23.200   2.532  49.543  1.00  0.00     0.014 A 
HETATM   22  C10 UNL     1      22.385   2.444  48.342  1.00  0.00    -0.002 A 
HETATM   23  C11 UNL     1      22.161   3.463  47.526  1.00  0.00    -0.016 A 
HETATM   24  C12 UNL     1      22.574   4.872  47.497  1.00  0.00     0.106 A 
HETATM   25  S1  UNL     1      23.622   5.205  48.937  1.00  0.00    -0.131 SA
ENDBRANCH  19  20
ENDBRANCH  18  19
ENDBRANCH  17  18
ENDBRANCH   2  17
TORSDOF 7
ENDMDL
MODEL 5
REMARK VINA RESULT:      -6.7      1.966      2.572
REMARK  7 active torsions:
REMARK  status: ('A' for Active; 'I' for Inactive)
REMARK    1  A    between atoms: C2_2  and  C3_3 
REMARK    2  A    between atoms: C2_2  and  C15_17 
REMARK    3  A    between atoms: C3_3  and  C4_4 
REMARK    4  A    between atoms: C5_5  and  O1_6 
REMARK    5  A    between atoms: O1_6  and  C6_7 
REMARK    6  A    between atoms: C6_7  and  C7_8 
REMARK    7  A    between atoms: C7_8  and  C8_9 
ROOT
HETATM    1  C4  UNL     1      23.508   1.810  51.896  1.00  0.00    -0.024 A 
HETATM    2  C5  UNL     1      23.946   2.561  50.880  1.00  0.00     0.075 A 
HETATM    3  C13 UNL     1      22.878   2.064  50.022  1.00  0.00     0.038 A 
HETATM    4  C14 UNL     1      22.442   1.320  51.026  1.00  0.00     0.013 A 
ENDROOT
BRANCH   1   5
HETATM    5  C3  UNL     1      23.780   1.450  53.332  1.00  0.00     0.054 C 
BRANCH   5   6
HETATM    6  C2  UNL     1      24.616   0.217  53.286  1.00  0.00     0.001 C 
HETATM    7  C1  UNL     1      23.733  -0.745  53.603  1.00  0.00     0.014 C 
BRANCH   6   8
HETATM    8  C15 UNL     1      26.056   0.176  52.960  1.00  0.00     0.159 C 
HETATM    9  N1  UNL     1      26.484  -0.940  52.198  1.00  0.00    -0.395 N 
HETATM   10  C16 UNL     1      27.360  -1.865  52.846  1.00  0.00     0.233 C 
HETATM   11  H17 UNL     1      26.707  -0.741  51.201  1.00  0.00     0.155 HD
HETATM   12  N2  UNL     1      28.482  -1.300  53.514  1.00  0.00    -0.400 N 
HETATM   13  C17 UNL     1      28.374   0.107  53.807  1.00  0.00     0.196 C 
HETATM   14  H20 UNL     1      29.408  -1.571  53.166  1.00  0.00     0.155 HD
HETATM   15  C18 UNL     1      26.939   0.365  54.151  1.00  0.00     0.167 C 
HETATM   16  O2  UNL     1      26.536   0.691  55.278  1.00  0.00    -0.294 OA
ENDBRANCH   6   8
ENDBRANCH   5   6
ENDBRANCH   1   5
BRANCH   2  17
HETATM   17  O1  UNL     1      24.968   3.458  50.648  1.00  0.00    -0.350 OA
BRANCH  17  18
HETATM   18  C6  UNL     1      25.477   3.813  49.403  1.00  0.00     0.180 C 
BRANCH  18  19
HETATM   19  C7  UNL     1      25.340   5.276  49.055  1.00  0.00     0.072 C 
BRANCH  19  20
HETATM   20  C8  UNL     1      26.635   5.819  48.583  1.00  0.00    -0.020 A 
HETATM   21  C9  UNL     1      27.677   5.006  48.662  1.00  0.00     0.014 A 
HETATM   22  C10 UNL     1      28.982   5.469  48.218  1.00  0.00    -0.002 A 
HETATM   23  C11 UNL     1      29.208   6.678  47.727  1.00  0.00    -0.016 A 
HETATM   24  C12 UNL     1      28.375   7.859  47.468  1.00  0.00     0.106 A 
HETATM   25  S1  UNL     1      26.671   7.493  47.962  1.00  0.00    -0.131 SA
ENDBRANCH  19  20
ENDBRANCH  18  19
ENDBRANCH  17  18
ENDBRANCH   2  17
TORSDOF 7
ENDMDL
MODEL 6
REMARK VINA RESULT:      -6.7      2.659      4.384
REMARK  7 active torsions:
REMARK  status: ('A' for Active; 'I' for Inactive)
REMARK    1  A    between atoms: C2_2  and  C3_3 
REMARK    2  A    between atoms: C2_2  and  C15_17 
REMARK    3  A    between atoms: C3_3  and  C4_4 
REMARK    4  A    between atoms: C5_5  and  O1_6 
REMARK    5  A    between atoms: O1_6  and  C6_7 
REMARK    6  A    between atoms: C6_7  and  C7_8 
REMARK    7  A    between atoms: C7_8  and  C8_9 
ROOT
HETATM    1  C4  UNL     1      25.345   3.097  50.442  1.00  0.00    -0.024 A 
HETATM    2  C5  UNL     1      25.388   4.401  50.148  1.00  0.00     0.075 A 
HETATM    3  C13 UNL     1      26.622   4.213  49.394  1.00  0.00     0.038 A 
HETATM    4  C14 UNL     1      26.580   2.922  49.683  1.00  0.00     0.013 A 
ENDROOT
BRANCH   1   5
HETATM    5  C3  UNL     1      24.541   2.053  51.170  1.00  0.00     0.054 C 
BRANCH   5   6
HETATM    6  C2  UNL     1      25.218   1.869  52.484  1.00  0.00     0.001 C 
HETATM    7  C1  UNL     1      24.752   2.906  53.200  1.00  0.00     0.014 C 
BRANCH   6   8
HETATM    8  C15 UNL     1      26.156   0.776  52.814  1.00  0.00     0.159 C 
HETATM    9  N1  UNL     1      25.790  -0.039  53.913  1.00  0.00    -0.395 N 
HETATM   10  C16 UNL     1      26.624   0.030  55.073  1.00  0.00     0.233 C 
HETATM   11  H17 UNL     1      25.449  -0.991  53.669  1.00  0.00     0.155 HD
HETATM   12  N2  UNL     1      28.023  -0.096  54.846  1.00  0.00    -0.400 N 
HETATM   13  C17 UNL     1      28.444   0.139  53.487  1.00  0.00     0.196 C 
HETATM   14  H20 UNL     1      28.488  -0.901  55.280  1.00  0.00     0.155 HD
HETATM   15  C18 UNL     1      27.573   1.233  52.951  1.00  0.00     0.167 C 
HETATM   16  O2  UNL     1      27.975   2.370  52.659  1.00  0.00    -0.294 OA
ENDBRANCH   6   8
ENDBRANCH   5   6
ENDBRANCH   1   5
BRANCH   2  17
HETATM   17  O1  UNL     1      24.632   5.525  50.405  1.00  0.00    -0.350 OA
BRANCH  17  18
HETATM   18  C6  UNL     1      23.244   5.577  50.486  1.00  0.00     0.180 C 
BRANCH  18  19
HETATM   19  C7  UNL     1      22.522   5.320  49.185  1.00  0.00     0.072 C 
BRANCH  19  20
HETATM   20  C8  UNL     1      22.087   3.907  49.106  1.00  0.00    -0.020 A 
HETATM   21  C9  UNL     1      22.556   3.203  48.087  1.00  0.00     0.014 A 
HETATM   22  C10 UNL     1      22.172   1.808  47.943  1.00  0.00    -0.002 A 
HETATM   23  C11 UNL     1      21.365   1.175  48.780  1.00  0.00    -0.016 A 
HETATM   24  C12 UNL     1      20.640   1.552  50.000  1.00  0.00     0.106 A 
HETATM   25  S1  UNL     1      20.985   3.292  50.370  1.00  0.00    -0.131 SA
ENDBRANCH  19  20
ENDBRANCH  18  19
ENDBRANCH  17  18
ENDBRANCH   2  17
TORSDOF 7
ENDMDL
MODEL 7
REMARK VINA RESULT:      -6.7      3.140      5.970
REMARK  7 active torsions:
REMARK  status: ('A' for Active; 'I' for Inactive)
REMARK    1  A    between atoms: C2_2  and  C3_3 
REMARK    2  A    between atoms: C2_2  and  C15_17 
REMARK    3  A    between atoms: C3_3  and  C4_4 
REMARK    4  A    between atoms: C5_5  and  O1_6 
REMARK    5  A    between atoms: O1_6  and  C6_7 
REMARK    6  A    between atoms: C6_7  and  C7_8 
REMARK    7  A    between atoms: C7_8  and  C8_9 
ROOT
HETATM    1  C4  UNL     1      21.599   0.258  53.497  1.00  0.00    -0.024 A 
HETATM    2  C5  UNL     1      22.554  -0.669  53.621  1.00  0.00     0.075 A 
HETATM    3  C13 UNL     1      21.635  -1.554  54.326  1.00  0.00     0.038 A 
HETATM    4  C14 UNL     1      20.687  -0.637  54.203  1.00  0.00     0.013 A 
ENDROOT
BRANCH   1   5
HETATM    5  C3  UNL     1      21.320   1.632  52.949  1.00  0.00     0.054 C 
BRANCH   5   6
HETATM    6  C2  UNL     1      22.209   1.781  51.762  1.00  0.00     0.001 C 
HETATM    7  C1  UNL     1      21.815   0.765  50.976  1.00  0.00     0.014 C 
BRANCH   6   8
HETATM    8  C15 UNL     1      23.238   2.827  51.594  1.00  0.00     0.159 C 
HETATM    9  N1  UNL     1      23.867   3.269  52.785  1.00  0.00    -0.395 N 
HETATM   10  C16 UNL     1      23.618   4.619  53.183  1.00  0.00     0.233 C 
HETATM   11  H17 UNL     1      24.845   2.940  52.921  1.00  0.00     0.155 HD
HETATM   12  N2  UNL     1      23.782   5.609  52.175  1.00  0.00    -0.400 N 
HETATM   13  C17 UNL     1      23.766   5.111  50.822  1.00  0.00     0.196 C 
HETATM   14  H20 UNL     1      24.509   6.315  52.337  1.00  0.00     0.155 HD
HETATM   15  C18 UNL     1      22.769   3.994  50.787  1.00  0.00     0.167 C 
HETATM   16  O2  UNL     1      21.694   4.034  50.169  1.00  0.00    -0.294 OA
ENDBRANCH   6   8
ENDBRANCH   5   6
ENDBRANCH   1   5
BRANCH   2  17
HETATM   17  O1  UNL     1      23.879  -0.817  53.266  1.00  0.00    -0.350 OA
BRANCH  17  18
HETATM   18  C6  UNL     1      24.909   0.069  53.562  1.00  0.00     0.180 C 
BRANCH  18  19
HETATM   19  C7  UNL     1      25.924   0.254  52.460  1.00  0.00     0.072 C 
BRANCH  19  20
HETATM   20  C8  UNL     1      27.199  -0.412  52.814  1.00  0.00    -0.020 A 
HETATM   21  C9  UNL     1      27.238  -1.726  52.660  1.00  0.00     0.014 A 
HETATM   22  C10 UNL     1      28.457  -2.450  52.988  1.00  0.00    -0.002 A 
HETATM   23  C11 UNL     1      29.558  -1.872  53.442  1.00  0.00    -0.016 A 
HETATM   24  C12 UNL     1      29.946  -0.491  53.752  1.00  0.00     0.106 A 
HETATM   25  S1  UNL     1      28.543   0.603  53.408  1.00  0.00    -0.131 SA
ENDBRANCH  19  20
ENDBRANCH  18  19
ENDBRANCH  17  18
ENDBRANCH   2  17
TORSDOF 7
ENDMDL
MODEL 8
REMARK VINA RESULT:      -6.7      2.866      5.187
REMARK  7 active torsions:
REMARK  status: ('A' for Active; 'I' for Inactive)
REMARK    1  A    between atoms: C2_2  and  C3_3 
REMARK    2  A    between atoms: C2_2  and  C15_17 
REMARK    3  A    between atoms: C3_3  and  C4_4 
REMARK    4  A    between atoms: C5_5  and  O1_6 
REMARK    5  A    between atoms: O1_6  and  C6_7 
REMARK    6  A    between atoms: C6_7  and  C7_8 
REMARK    7  A    between atoms: C7_8  and  C8_9 
ROOT
HETATM    1  C4  UNL     1      23.896   2.698  51.859  1.00  0.00    -0.024 A 
HETATM    2  C5  UNL     1      23.147   3.515  51.111  1.00  0.00     0.075 A 
HETATM    3  C13 UNL     1      23.051   4.469  52.209  1.00  0.00     0.038 A 
HETATM    4  C14 UNL     1      23.793   3.662  52.951  1.00  0.00     0.013 A 
ENDROOT
BRANCH   1   5
HETATM    5  C3  UNL     1      24.621   1.379  51.843  1.00  0.00     0.054 C 
BRANCH   5   6
HETATM    6  C2  UNL     1      26.045   1.700  52.143  1.00  0.00     0.001 C 
HETATM    7  C1  UNL     1      26.504   2.128  50.955  1.00  0.00     0.014 C 
BRANCH   6   8
HETATM    8  C15 UNL     1      26.693   1.548  53.462  1.00  0.00     0.159 C 
HETATM    9  N1  UNL     1      27.509   2.630  53.876  1.00  0.00    -0.395 N 
HETATM   10  C16 UNL     1      28.912   2.376  53.984  1.00  0.00     0.233 C 
HETATM   11  H17 UNL     1      27.108   3.229  54.627  1.00  0.00     0.155 HD
HETATM   12  N2  UNL     1      29.282   1.210  54.710  1.00  0.00    -0.400 N 
HETATM   13  C17 UNL     1      28.232   0.236  54.878  1.00  0.00     0.196 C 
HETATM   14  H20 UNL     1      29.839   1.354  55.559  1.00  0.00     0.155 HD
HETATM   15  C18 UNL     1      27.424   0.253  53.617  1.00  0.00     0.167 C 
HETATM   16  O2  UNL     1      27.370  -0.684  52.806  1.00  0.00    -0.294 OA
ENDBRANCH   6   8
ENDBRANCH   5   6
ENDBRANCH   1   5
BRANCH   2  17
HETATM   17  O1  UNL     1      22.631   3.534  49.832  1.00  0.00    -0.350 OA
BRANCH  17  18
HETATM   18  C6  UNL     1      21.427   2.967  49.427  1.00  0.00     0.180 C 
BRANCH  18  19
HETATM   19  C7  UNL     1      21.420   1.458  49.378  1.00  0.00     0.072 C 
BRANCH  19  20
HETATM   20  C8  UNL     1      20.518   0.911  50.417  1.00  0.00    -0.020 A 
HETATM   21  C9  UNL     1      21.099   0.355  51.469  1.00  0.00     0.014 A 
HETATM   22  C10 UNL     1      20.277  -0.205  52.530  1.00  0.00    -0.002 A 
HETATM   23  C11 UNL     1      18.953  -0.197  52.519  1.00  0.00    -0.016 A 
HETATM   24  C12 UNL     1      17.931   0.296  51.587  1.00  0.00     0.106 A 
HETATM   25  S1  UNL     1      18.755   1.048  50.160  1.00  0.00    -0.131 SA
ENDBRANCH  19  20
ENDBRANCH  18  19
ENDBRANCH  17  18
ENDBRANCH   2  17
TORSDOF 7
ENDMDL
MODEL 9
REMARK VINA RESULT:      -6.7      3.251      5.985
REMARK  7 active torsions:
REMARK  status: ('A' for Active; 'I' for Inactive)
REMARK    1  A    between atoms: C2_2  and  C3_3 
REMARK    2  A    between atoms: C2_2  and  C15_17 
REMARK    3  A    between atoms: C3_3  and  C4_4 
REMARK    4  A    between atoms: C5_5  and  O1_6 
REMARK    5  A    between atoms: O1_6  and  C6_7 
REMARK    6  A    between atoms: C6_7  and  C7_8 
REMARK    7  A    between atoms: C7_8  and  C8_9 
ROOT
HETATM    1  C4  UNL     1      24.212   0.878  52.639  1.00  0.00    -0.024 A 
HETATM    2  C5  UNL     1      22.987   1.321  52.941  1.00  0.00     0.075 A 
HETATM    3  C13 UNL     1      23.232   2.562  52.216  1.00  0.00     0.038 A 
HETATM    4  C14 UNL     1      24.446   2.125  51.916  1.00  0.00     0.013 A 
ENDROOT
BRANCH   1   5
HETATM    5  C3  UNL     1      25.150  -0.285  52.820  1.00  0.00     0.054 C 
BRANCH   5   6
HETATM    6  C2  UNL     1      25.661  -0.176  54.216  1.00  0.00     0.001 C 
HETATM    7  C1  UNL     1      24.752  -0.877  54.914  1.00  0.00     0.014 C 
BRANCH   6   8
HETATM    8  C15 UNL     1      26.882   0.550  54.622  1.00  0.00     0.159 C 
HETATM    9  N1  UNL     1      26.935   1.918  54.258  1.00  0.00    -0.395 N 
HETATM   10  C16 UNL     1      27.925   2.292  53.296  1.00  0.00     0.233 C 
HETATM   11  H17 UNL     1      26.798   2.593  55.038  1.00  0.00     0.155 HD
HETATM   12  N2  UNL     1      29.245   1.825  53.544  1.00  0.00    -0.400 N 
HETATM   13  C17 UNL     1      29.340   0.723  54.468  1.00  0.00     0.196 C 
HETATM   14  H20 UNL     1      29.965   2.541  53.694  1.00  0.00     0.155 HD
HETATM   15  C18 UNL     1      28.144  -0.146  54.224  1.00  0.00     0.167 C 
HETATM   16  O2  UNL     1      28.195  -1.292  53.753  1.00  0.00    -0.294 OA
ENDBRANCH   6   8
ENDBRANCH   5   6
ENDBRANCH   1   5
BRANCH   2  17
HETATM   17  O1  UNL     1      21.887   0.868  53.638  1.00  0.00    -0.350 OA
BRANCH  17  18
HETATM   18  C6  UNL     1      20.563   0.946  53.217  1.00  0.00     0.180 C 
BRANCH  18  19
HETATM   19  C7  UNL     1      20.268   0.243  51.914  1.00  0.00     0.072 C 
BRANCH  19  20
HETATM   20  C8  UNL     1      18.846  -0.169  51.860  1.00  0.00    -0.020 A 
HETATM   21  C9  UNL     1      18.399  -0.877  52.885  1.00  0.00     0.014 A 
HETATM   22  C10 UNL     1      17.013  -1.318  52.901  1.00  0.00    -0.002 A 
HETATM   23  C11 UNL     1      16.144  -1.054  51.938  1.00  0.00    -0.016 A 
HETATM   24  C12 UNL     1      16.204  -0.328  50.663  1.00  0.00     0.106 A 
HETATM   25  S1  UNL     1      17.882   0.319  50.438  1.00  0.00    -0.131 SA
ENDBRANCH  19  20
ENDBRANCH  18  19
ENDBRANCH  17  18
ENDBRANCH   2  17
TORSDOF 7
ENDMDL
