MODEL 1
REMARK VINA RESULT:      -8.1      0.000      0.000
REMARK  3 active torsions:
REMARK  status: ('A' for Active; 'I' for Inactive)
REMARK    1  A    between atoms: C2_2  and  C3_3 
REMARK    2  A    between atoms: N1_15  and  N2_16 
REMARK    3  A    between atoms: N2_16  and  N3_17 
ROOT
HETATM    1  C3  UNL     1      23.095  -0.303  53.521  1.00  0.00    -0.073 C 
HETATM    2  C4  UNL     1      22.136  -0.986  54.098  1.00  0.00     0.003 C 
HETATM    3  C5  UNL     1      20.780  -0.457  54.080  1.00  0.00    -0.001 C 
HETATM    4  C6  UNL     1      20.684   0.708  53.471  1.00  0.00     0.006 C 
HETATM    5  C7  UNL     1      21.652   1.541  52.840  1.00  0.00     0.160 C 
HETATM    6  O1  UNL     1      21.244   2.226  51.628  1.00  0.00    -0.345 OA
HETATM    7  C8  UNL     1      22.399   2.839  50.971  1.00  0.00     0.054 A 
HETATM    8  C9  UNL     1      22.763   2.108  49.882  1.00  0.00     0.031 A 
HETATM    9  C10 UNL     1      23.819   2.985  49.738  1.00  0.00     0.011 A 
HETATM   10  C11 UNL     1      23.808   3.934  50.694  1.00  0.00     0.099 A 
HETATM   11  C12 UNL     1      23.583   4.768  51.737  1.00  0.00     0.043 A 
HETATM   12  C13 UNL     1      22.545   3.869  51.849  1.00  0.00     0.086 A 
HETATM   13  N1  UNL     1      25.247   4.265  50.608  1.00  0.00    -0.231 N 
HETATM   14  N4  UNL     1      25.838   3.306  51.579  1.00  0.00    -0.315 N 
HETATM   15  C15 UNL     1      25.092   2.762  52.719  1.00  0.00     0.130 C 
HETATM   16  C16 UNL     1      24.085   1.905  53.052  1.00  0.00     0.030 C 
HETATM   17  C17 UNL     1      23.004   0.917  52.723  1.00  0.00     0.054 C 
HETATM   18  H19 UNL     1      26.844   3.042  51.408  1.00  0.00     0.182 HD
ENDROOT
BRANCH  13  19
HETATM   19  N2  UNL     1      26.160   5.107  49.975  1.00  0.00    -0.154 NA
HETATM   20  H14 UNL     1      26.245   6.042  50.427  1.00  0.00     0.168 HD
BRANCH  19  21
HETATM   21  N3  UNL     1      27.361   4.509  49.646  1.00  0.00    -0.246 NA
HETATM   22  C14 UNL     1      27.916   5.255  48.516  1.00  0.00     0.128 C 
HETATM   23  H15 UNL     1      28.045   4.644  50.425  1.00  0.00     0.141 HD
ENDBRANCH  19  21
ENDBRANCH  13  19
BRANCH   1  24
HETATM   24  C2  UNL     1      24.484  -0.767  53.509  1.00  0.00     0.030 C 
HETATM   25  C1  UNL     1      24.947  -0.961  54.937  1.00  0.00     0.010 C 
ENDBRANCH   1  24
TORSDOF 3
ENDMDL
MODEL 2
REMARK VINA RESULT:      -7.5      2.461      5.516
REMARK  3 active torsions:
REMARK  status: ('A' for Active; 'I' for Inactive)
REMARK    1  A    between atoms: C2_2  and  C3_3 
REMARK    2  A    between atoms: N1_15  and  N2_16 
REMARK    3  A    between atoms: N2_16  and  N3_17 
ROOT
HETATM    1  C3  UNL     1      24.271   5.280  48.724  1.00  0.00    -0.073 C 
HETATM    2  C4  UNL     1      23.381   5.612  47.822  1.00  0.00     0.003 C 
HETATM    3  C5  UNL     1      22.114   4.897  47.780  1.00  0.00    -0.001 C 
HETATM    4  C6  UNL     1      22.021   3.947  48.690  1.00  0.00     0.006 C 
HETATM    5  C7  UNL     1      22.926   3.490  49.691  1.00  0.00     0.160 C 
HETATM    6  O1  UNL     1      22.358   3.113  50.971  1.00  0.00    -0.345 OA
HETATM    7  C8  UNL     1      23.415   2.901  51.960  1.00  0.00     0.054 A 
HETATM    8  C9  UNL     1      23.471   3.955  52.820  1.00  0.00     0.031 A 
HETATM    9  C10 UNL     1      24.565   3.336  53.392  1.00  0.00     0.011 A 
HETATM   10  C11 UNL     1      24.848   2.170  52.780  1.00  0.00     0.099 A 
HETATM   11  C12 UNL     1      24.929   1.054  52.017  1.00  0.00     0.043 A 
HETATM   12  C13 UNL     1      23.845   1.706  51.471  1.00  0.00     0.086 A 
HETATM   13  N1  UNL     1      26.267   2.113  53.193  1.00  0.00    -0.231 N 
HETATM   14  N4  UNL     1      26.935   2.847  52.085  1.00  0.00    -0.315 N 
HETATM   15  C15 UNL     1      26.381   2.924  50.729  1.00  0.00     0.130 C 
HETATM   16  C16 UNL     1      25.376   3.481  49.994  1.00  0.00     0.030 C 
HETATM   17  C17 UNL     1      24.152   4.333  49.829  1.00  0.00     0.054 C 
HETATM   18  H19 UNL     1      27.853   3.307  52.328  1.00  0.00     0.182 HD
ENDROOT
BRANCH  13  19
HETATM   19  N2  UNL     1      27.119   1.639  54.190  1.00  0.00    -0.154 NA
HETATM   20  H14 UNL     1      27.072   0.606  54.320  1.00  0.00     0.168 HD
BRANCH  19  21
HETATM   21  N3  UNL     1      28.397   2.162  54.151  1.00  0.00    -0.246 NA
HETATM   22  C14 UNL     1      29.324   1.030  54.163  1.00  0.00     0.128 C 
HETATM   23  H15 UNL     1      28.554   2.634  53.231  1.00  0.00     0.141 HD
ENDBRANCH  19  21
ENDBRANCH  13  19
BRANCH   1  24
HETATM   24  C2  UNL     1      25.571   5.947  48.819  1.00  0.00     0.030 C 
HETATM   25  C1  UNL     1      25.484   7.288  48.123  1.00  0.00     0.010 C 
ENDBRANCH   1  24
TORSDOF 3
ENDMDL
MODEL 3
REMARK VINA RESULT:      -7.4      3.048      4.731
REMARK  3 active torsions:
REMARK  status: ('A' for Active; 'I' for Inactive)
REMARK    1  A    between atoms: C2_2  and  C3_3 
REMARK    2  A    between atoms: N1_15  and  N2_16 
REMARK    3  A    between atoms: N2_16  and  N3_17 
ROOT
HETATM    1  C3  UNL     1      24.678  -0.289  53.468  1.00  0.00    -0.073 C 
HETATM    2  C4  UNL     1      25.866  -0.838  53.533  1.00  0.00     0.003 C 
HETATM    3  C5  UNL     1      26.923  -0.341  52.664  1.00  0.00    -0.001 C 
HETATM    4  C6  UNL     1      26.531   0.635  51.871  1.00  0.00     0.006 C 
HETATM    5  C7  UNL     1      25.274   1.283  51.701  1.00  0.00     0.160 C 
HETATM    6  O1  UNL     1      25.295   2.714  51.467  1.00  0.00    -0.345 OA
HETATM    7  C8  UNL     1      23.945   3.270  51.555  1.00  0.00     0.054 A 
HETATM    8  C9  UNL     1      23.786   3.935  52.733  1.00  0.00     0.031 A 
HETATM    9  C10 UNL     1      22.472   4.134  52.359  1.00  0.00     0.011 A 
HETATM   10  C11 UNL     1      22.213   3.588  51.155  1.00  0.00     0.099 A 
HETATM   11  C12 UNL     1      22.200   2.971  49.950  1.00  0.00     0.043 A 
HETATM   12  C13 UNL     1      23.503   2.789  50.361  1.00  0.00     0.086 A 
HETATM   13  N1  UNL     1      20.752   3.463  51.348  1.00  0.00    -0.231 N 
HETATM   14  N4  UNL     1      20.642   2.118  51.972  1.00  0.00    -0.315 N 
HETATM   15  C15 UNL     1      21.629   1.054  51.757  1.00  0.00     0.130 C 
HETATM   16  C16 UNL     1      22.906   0.678  52.054  1.00  0.00     0.030 C 
HETATM   17  C17 UNL     1      24.244   0.878  52.705  1.00  0.00     0.054 C 
HETATM   18  H19 UNL     1      19.793   1.962  52.579  1.00  0.00     0.182 HD
ENDROOT
BRANCH  13  19
HETATM   19  N2  UNL     1      19.542   4.129  51.154  1.00  0.00    -0.154 NA
HETATM   20  H14 UNL     1      19.311   4.287  50.151  1.00  0.00     0.168 HD
BRANCH  19  21
HETATM   21  N3  UNL     1      18.496   3.655  51.923  1.00  0.00    -0.246 NA
HETATM   22  C14 UNL     1      17.258   4.013  51.230  1.00  0.00     0.128 C 
HETATM   23  H15 UNL     1      18.513   2.609  51.931  1.00  0.00     0.141 HD
ENDBRANCH  19  21
ENDBRANCH  13  19
BRANCH   1  24
HETATM   24  C2  UNL     1      23.563  -0.742  54.302  1.00  0.00     0.030 C 
HETATM   25  C1  UNL     1      24.117  -1.327  55.583  1.00  0.00     0.010 C 
ENDBRANCH   1  24
TORSDOF 3
ENDMDL
MODEL 4
REMARK VINA RESULT:      -7.3      8.814     11.371
REMARK  3 active torsions:
REMARK  status: ('A' for Active; 'I' for Inactive)
REMARK    1  A    between atoms: C2_2  and  C3_3 
REMARK    2  A    between atoms: N1_15  and  N2_16 
REMARK    3  A    between atoms: N2_16  and  N3_17 
ROOT
HETATM    1  C3  UNL     1      33.933   5.117  45.351  1.00  0.00    -0.073 C 
HETATM    2  C4  UNL     1      34.754   4.107  45.194  1.00  0.00     0.003 C 
HETATM    3  C5  UNL     1      34.997   3.211  46.315  1.00  0.00    -0.001 C 
HETATM    4  C6  UNL     1      34.341   3.553  47.407  1.00  0.00     0.006 C 
HETATM    5  C7  UNL     1      33.455   4.630  47.692  1.00  0.00     0.160 C 
HETATM    6  O1  UNL     1      32.316   4.340  48.542  1.00  0.00    -0.345 OA
HETATM    7  C8  UNL     1      31.379   5.464  48.547  1.00  0.00     0.054 A 
HETATM    8  C9  UNL     1      30.292   5.172  47.781  1.00  0.00     0.031 A 
HETATM    9  C10 UNL     1      29.856   6.456  48.040  1.00  0.00     0.011 A 
HETATM   10  C11 UNL     1      30.720   7.121  48.831  1.00  0.00     0.099 A 
HETATM   11  C12 UNL     1      31.723   7.570  49.622  1.00  0.00     0.043 A 
HETATM   12  C13 UNL     1      32.126   6.284  49.335  1.00  0.00     0.086 A 
HETATM   13  N1  UNL     1      30.296   8.479  48.425  1.00  0.00    -0.231 N 
HETATM   14  N4  UNL     1      31.180   8.736  47.257  1.00  0.00    -0.315 N 
HETATM   15  C15 UNL     1      32.492   8.102  47.094  1.00  0.00     0.130 C 
HETATM   16  C16 UNL     1      33.100   6.913  46.819  1.00  0.00     0.030 C 
HETATM   17  C17 UNL     1      33.088   5.447  46.496  1.00  0.00     0.054 C 
HETATM   18  H19 UNL     1      30.811   9.422  46.546  1.00  0.00     0.182 HD
ENDROOT
BRANCH  13  19
HETATM   19  N2  UNL     1      29.418   9.514  48.746  1.00  0.00    -0.154 NA
HETATM   20  H14 UNL     1      28.670   9.659  48.035  1.00  0.00     0.168 HD
BRANCH  19  21
HETATM   21  N3  UNL     1      28.981   9.511  50.057  1.00  0.00    -0.246 NA
HETATM   22  C14 UNL     1      27.543   9.241  50.028  1.00  0.00     0.128 C 
HETATM   23  H15 UNL     1      29.402   8.700  50.565  1.00  0.00     0.141 HD
ENDBRANCH  19  21
ENDBRANCH  13  19
BRANCH   1  24
HETATM   24  C2  UNL     1      33.650   6.066  44.272  1.00  0.00     0.030 C 
HETATM   25  C1  UNL     1      33.211   5.295  43.046  1.00  0.00     0.010 C 
ENDBRANCH   1  24
TORSDOF 3
ENDMDL
MODEL 5
REMARK VINA RESULT:      -7.2      9.668     11.363
REMARK  3 active torsions:
REMARK  status: ('A' for Active; 'I' for Inactive)
REMARK    1  A    between atoms: C2_2  and  C3_3 
REMARK    2  A    between atoms: N1_15  and  N2_16 
REMARK    3  A    between atoms: N2_16  and  N3_17 
ROOT
HETATM    1  C3  UNL     1      34.538   4.753  47.912  1.00  0.00    -0.073 C 
HETATM    2  C4  UNL     1      35.012   3.794  47.156  1.00  0.00     0.003 C 
HETATM    3  C5  UNL     1      34.324   3.463  45.917  1.00  0.00    -0.001 C 
HETATM    4  C6  UNL     1      33.248   4.195  45.707  1.00  0.00     0.006 C 
HETATM    5  C7  UNL     1      32.635   5.234  46.465  1.00  0.00     0.160 C 
HETATM    6  O1  UNL     1      32.073   6.347  45.724  1.00  0.00    -0.345 OA
HETATM    7  C8  UNL     1      31.703   7.433  46.632  1.00  0.00     0.054 A 
HETATM    8  C9  UNL     1      32.613   8.443  46.552  1.00  0.00     0.031 A 
HETATM    9  C10 UNL     1      31.903   9.064  47.560  1.00  0.00     0.011 A 
HETATM   10  C11 UNL     1      30.841   8.329  47.942  1.00  0.00     0.099 A 
HETATM   11  C12 UNL     1      29.853   7.425  48.144  1.00  0.00     0.043 A 
HETATM   12  C13 UNL     1      30.592   6.836  47.142  1.00  0.00     0.086 A 
HETATM   13  N1  UNL     1      30.707   8.927  49.288  1.00  0.00    -0.231 N 
HETATM   14  N4  UNL     1      31.595   8.051  50.099  1.00  0.00    -0.315 N 
HETATM   15  C15 UNL     1      31.883   6.657  49.743  1.00  0.00     0.130 C 
HETATM   16  C16 UNL     1      32.555   5.880  48.847  1.00  0.00     0.030 C 
HETATM   17  C17 UNL     1      33.434   5.673  47.648  1.00  0.00     0.054 C 
HETATM   18  H19 UNL     1      32.004   8.490  50.966  1.00  0.00     0.182 HD
ENDROOT
BRANCH  13  19
HETATM   19  N2  UNL     1      30.079   9.952  49.994  1.00  0.00    -0.154 NA
HETATM   20  H14 UNL     1      30.610  10.264  50.834  1.00  0.00     0.168 HD
BRANCH  19  21
HETATM   21  N3  UNL     1      29.586  10.974  49.206  1.00  0.00    -0.246 NA
HETATM   22  C14 UNL     1      30.600  12.029  49.188  1.00  0.00     0.128 C 
HETATM   23  H15 UNL     1      29.513  10.648  48.215  1.00  0.00     0.141 HD
ENDBRANCH  19  21
ENDBRANCH  13  19
BRANCH   1  24
HETATM   24  C2  UNL     1      35.170   5.133  49.178  1.00  0.00     0.030 C 
HETATM   25  C1  UNL     1      36.018   6.366  48.950  1.00  0.00     0.010 C 
ENDBRANCH   1  24
TORSDOF 3
ENDMDL
MODEL 6
REMARK VINA RESULT:      -7.0      2.609      3.860
REMARK  3 active torsions:
REMARK  status: ('A' for Active; 'I' for Inactive)
REMARK    1  A    between atoms: C2_2  and  C3_3 
REMARK    2  A    between atoms: N1_15  and  N2_16 
REMARK    3  A    between atoms: N2_16  and  N3_17 
ROOT
HETATM    1  C3  UNL     1      23.361  -0.100  53.534  1.00  0.00    -0.073 C 
HETATM    2  C4  UNL     1      24.269  -0.892  54.048  1.00  0.00     0.003 C 
HETATM    3  C5  UNL     1      25.668  -0.683  53.703  1.00  0.00    -0.001 C 
HETATM    4  C6  UNL     1      25.853   0.316  52.863  1.00  0.00     0.006 C 
HETATM    5  C7  UNL     1      24.947   1.215  52.230  1.00  0.00     0.160 C 
HETATM    6  O1  UNL     1      25.375   2.593  52.089  1.00  0.00    -0.345 OA
HETATM    7  C8  UNL     1      24.262   3.435  51.651  1.00  0.00     0.054 A 
HETATM    8  C9  UNL     1      23.792   4.175  52.693  1.00  0.00     0.031 A 
HETATM    9  C10 UNL     1      22.819   4.638  51.831  1.00  0.00     0.011 A 
HETATM   10  C11 UNL     1      22.954   4.105  50.601  1.00  0.00     0.099 A 
HETATM   11  C12 UNL     1      23.292   3.448  49.467  1.00  0.00     0.043 A 
HETATM   12  C13 UNL     1      24.243   3.005  50.360  1.00  0.00     0.086 A 
HETATM   13  N1  UNL     1      21.550   4.313  50.183  1.00  0.00    -0.231 N 
HETATM   14  N4  UNL     1      20.906   3.056  50.648  1.00  0.00    -0.315 N 
HETATM   15  C15 UNL     1      21.636   1.793  50.802  1.00  0.00     0.130 C 
HETATM   16  C16 UNL     1      22.568   1.161  51.571  1.00  0.00     0.030 C 
HETATM   17  C17 UNL     1      23.538   1.095  52.714  1.00  0.00     0.054 C 
HETATM   18  H19 UNL     1      19.873   3.119  50.854  1.00  0.00     0.182 HD
ENDROOT
BRANCH  13  19
HETATM   19  N2  UNL     1      20.699   5.217  49.548  1.00  0.00    -0.154 NA
HETATM   20  H14 UNL     1      19.801   5.366  50.054  1.00  0.00     0.168 HD
BRANCH  19  21
HETATM   21  N3  UNL     1      21.316   6.371  49.104  1.00  0.00    -0.246 NA
HETATM   22  C14 UNL     1      21.019   7.418  50.083  1.00  0.00     0.128 C 
HETATM   23  H15 UNL     1      22.354   6.250  49.139  1.00  0.00     0.141 HD
ENDBRANCH  19  21
ENDBRANCH  13  19
BRANCH   1  24
HETATM   24  C2  UNL     1      21.934  -0.258  53.827  1.00  0.00     0.030 C 
HETATM   25  C1  UNL     1      21.730  -1.553  54.582  1.00  0.00     0.010 C 
ENDBRANCH   1  24
TORSDOF 3
ENDMDL
MODEL 7
REMARK VINA RESULT:      -6.9      3.278      6.835
REMARK  3 active torsions:
REMARK  status: ('A' for Active; 'I' for Inactive)
REMARK    1  A    between atoms: C2_2  and  C3_3 
REMARK    2  A    between atoms: N1_15  and  N2_16 
REMARK    3  A    between atoms: N2_16  and  N3_17 
ROOT
HETATM    1  C3  UNL     1      25.859   6.562  48.685  1.00  0.00    -0.073 C 
HETATM    2  C4  UNL     1      27.063   6.617  48.171  1.00  0.00     0.003 C 
HETATM    3  C5  UNL     1      27.957   5.480  48.335  1.00  0.00    -0.001 C 
HETATM    4  C6  UNL     1      27.423   4.494  49.029  1.00  0.00     0.006 C 
HETATM    5  C7  UNL     1      26.150   4.340  49.648  1.00  0.00     0.160 C 
HETATM    6  O1  UNL     1      25.539   3.026  49.581  1.00  0.00    -0.345 OA
HETATM    7  C8  UNL     1      24.150   3.082  50.038  1.00  0.00     0.054 A 
HETATM    8  C9  UNL     1      23.302   3.020  48.974  1.00  0.00     0.031 A 
HETATM    9  C10 UNL     1      22.273   3.191  49.878  1.00  0.00     0.011 A 
HETATM   10  C11 UNL     1      22.734   3.296  51.139  1.00  0.00     0.099 A 
HETATM   11  C12 UNL     1      23.430   3.371  52.298  1.00  0.00     0.043 A 
HETATM   12  C13 UNL     1      24.429   3.203  51.365  1.00  0.00     0.086 A 
HETATM   13  N1  UNL     1      21.558   4.010  51.681  1.00  0.00    -0.231 N 
HETATM   14  N4  UNL     1      21.927   5.430  51.437  1.00  0.00    -0.315 N 
HETATM   15  C15 UNL     1      23.317   5.892  51.352  1.00  0.00     0.130 C 
HETATM   16  C16 UNL     1      24.429   5.856  50.564  1.00  0.00     0.030 C 
HETATM   17  C17 UNL     1      25.188   5.440  49.337  1.00  0.00     0.054 C 
HETATM   18  H19 UNL     1      21.120   6.103  51.339  1.00  0.00     0.182 HD
ENDROOT
BRANCH  13  19
HETATM   19  N2  UNL     1      20.322   3.815  52.296  1.00  0.00    -0.154 NA
HETATM   20  H14 UNL     1      19.523   4.209  51.756  1.00  0.00     0.168 HD
BRANCH  19  21
HETATM   21  N3  UNL     1      20.119   2.539  52.786  1.00  0.00    -0.246 NA
HETATM   22  C14 UNL     1      19.262   1.843  51.826  1.00  0.00     0.128 C 
HETATM   23  H15 UNL     1      21.023   2.012  52.777  1.00  0.00     0.141 HD
ENDBRANCH  19  21
ENDBRANCH  13  19
BRANCH   1  24
HETATM   24  C2  UNL     1      24.910   7.671  48.570  1.00  0.00     0.030 C 
HETATM   25  C1  UNL     1      25.579   8.812  47.834  1.00  0.00     0.010 C 
ENDBRANCH   1  24
TORSDOF 3
ENDMDL
MODEL 8
REMARK VINA RESULT:      -6.9      3.102      4.474
REMARK  3 active torsions:
REMARK  status: ('A' for Active; 'I' for Inactive)
REMARK    1  A    between atoms: C2_2  and  C3_3 
REMARK    2  A    between atoms: N1_15  and  N2_16 
REMARK    3  A    between atoms: N2_16  and  N3_17 
ROOT
HETATM    1  C3  UNL     1      23.351  -0.192  53.313  1.00  0.00    -0.073 C 
HETATM    2  C4  UNL     1      24.442  -0.547  53.946  1.00  0.00     0.003 C 
HETATM    3  C5  UNL     1      25.680   0.171  53.682  1.00  0.00    -0.001 C 
HETATM    4  C6  UNL     1      25.546   1.126  52.783  1.00  0.00     0.006 C 
HETATM    5  C7  UNL     1      24.428   1.576  52.024  1.00  0.00     0.160 C 
HETATM    6  O1  UNL     1      24.309   3.005  51.808  1.00  0.00    -0.345 OA
HETATM    7  C8  UNL     1      23.004   3.331  51.232  1.00  0.00     0.054 A 
HETATM    8  C9  UNL     1      22.194   3.876  52.181  1.00  0.00     0.031 A 
HETATM    9  C10 UNL     1      21.201   3.889  51.222  1.00  0.00     0.011 A 
HETATM   10  C11 UNL     1      21.642   3.396  50.048  1.00  0.00     0.099 A 
HETATM   11  C12 UNL     1      22.308   2.872  48.993  1.00  0.00     0.043 A 
HETATM   12  C13 UNL     1      23.270   2.871  49.979  1.00  0.00     0.086 A 
HETATM   13  N1  UNL     1      20.310   3.026  49.521  1.00  0.00    -0.231 N 
HETATM   14  N4  UNL     1      20.154   1.640  50.036  1.00  0.00    -0.315 N 
HETATM   15  C15 UNL     1      21.294   0.765  50.334  1.00  0.00     0.130 C 
HETATM   16  C16 UNL     1      22.321   0.578  51.211  1.00  0.00     0.030 C 
HETATM   17  C17 UNL     1      23.134   0.942  52.419  1.00  0.00     0.054 C 
HETATM   18  H19 UNL     1      19.161   1.308  50.165  1.00  0.00     0.182 HD
ENDROOT
BRANCH  13  19
HETATM   19  N2  UNL     1      19.241   3.502  48.763  1.00  0.00    -0.154 NA
HETATM   20  H14 UNL     1      19.303   4.520  48.551  1.00  0.00     0.168 HD
BRANCH  19  21
HETATM   21  N3  UNL     1      18.898   2.704  47.689  1.00  0.00    -0.246 NA
HETATM   22  C14 UNL     1      19.451   3.338  46.491  1.00  0.00     0.128 C 
HETATM   23  H15 UNL     1      19.391   1.785  47.764  1.00  0.00     0.141 HD
ENDBRANCH  19  21
ENDBRANCH  13  19
BRANCH   1  24
HETATM   24  C2  UNL     1      22.072  -0.875  53.519  1.00  0.00     0.030 C 
HETATM   25  C1  UNL     1      21.497  -0.445  54.851  1.00  0.00     0.010 C 
ENDBRANCH   1  24
TORSDOF 3
ENDMDL
MODEL 9
REMARK VINA RESULT:      -6.9      2.004      3.381
REMARK  3 active torsions:
REMARK  status: ('A' for Active; 'I' for Inactive)
REMARK    1  A    between atoms: C2_2  and  C3_3 
REMARK    2  A    between atoms: N1_15  and  N2_16 
REMARK    3  A    between atoms: N2_16  and  N3_17 
ROOT
HETATM    1  C3  UNL     1      21.367   0.139  53.055  1.00  0.00    -0.073 C 
HETATM    2  C4  UNL     1      21.424  -0.845  53.918  1.00  0.00     0.003 C 
HETATM    3  C5  UNL     1      22.712  -1.215  54.486  1.00  0.00    -0.001 C 
HETATM    4  C6  UNL     1      23.712  -0.489  54.027  1.00  0.00     0.006 C 
HETATM    5  C7  UNL     1      23.767   0.574  53.081  1.00  0.00     0.160 C 
HETATM    6  O1  UNL     1      24.682   1.663  53.364  1.00  0.00    -0.345 OA
HETATM    7  C8  UNL     1      24.453   2.779  52.445  1.00  0.00     0.054 A 
HETATM    8  C9  UNL     1      23.793   3.785  53.083  1.00  0.00     0.031 A 
HETATM    9  C10 UNL     1      23.767   4.438  51.867  1.00  0.00     0.011 A 
HETATM   10  C11 UNL     1      24.373   3.717  50.904  1.00  0.00     0.099 A 
HETATM   11  C12 UNL     1      25.024   2.821  50.125  1.00  0.00     0.043 A 
HETATM   12  C13 UNL     1      25.024   2.199  51.355  1.00  0.00     0.086 A 
HETATM   13  N1  UNL     1      23.682   4.359  49.764  1.00  0.00    -0.231 N 
HETATM   14  N4  UNL     1      22.470   3.509  49.627  1.00  0.00    -0.315 N 
HETATM   15  C15 UNL     1      22.427   2.104  50.047  1.00  0.00     0.130 C 
HETATM   16  C16 UNL     1      22.413   1.297  51.146  1.00  0.00     0.030 C 
HETATM   17  C17 UNL     1      22.425   1.051  52.627  1.00  0.00     0.054 C 
HETATM   18  H19 UNL     1      21.630   3.975  49.190  1.00  0.00     0.182 HD
ENDROOT
BRANCH  13  19
HETATM   19  N2  UNL     1      23.780   5.406  48.850  1.00  0.00    -0.154 NA
HETATM   20  H14 UNL     1      24.432   5.209  48.061  1.00  0.00     0.168 HD
BRANCH  19  21
HETATM   21  N3  UNL     1      22.570   5.960  48.479  1.00  0.00    -0.246 NA
HETATM   22  C14 UNL     1      22.667   6.289  47.057  1.00  0.00     0.128 C 
HETATM   23  H15 UNL     1      21.819   5.236  48.542  1.00  0.00     0.141 HD
ENDBRANCH  19  21
ENDBRANCH  13  19
BRANCH   1  24
HETATM   24  C2  UNL     1      20.110   0.560  52.433  1.00  0.00     0.030 C 
HETATM   25  C1  UNL     1      19.054  -0.490  52.708  1.00  0.00     0.010 C 
ENDBRANCH   1  24
TORSDOF 3
ENDMDL
