MODEL 1
REMARK VINA RESULT:      -8.9      0.000      0.000
REMARK  6 active torsions:
REMARK  status: ('A' for Active; 'I' for Inactive)
REMARK    1  A    between atoms: C4_5  and  C5_6 
REMARK    2  A    between atoms: C6_7  and  C7_8 
REMARK    3  A    between atoms: N2_10  and  C8_11 
REMARK    4  A    between atoms: C9_13  and  O1_14 
REMARK    5  A    between atoms: C10_15  and  S1_16 
REMARK    6  A    between atoms: C11_17  and  C12_18 
ROOT
HETATM    1  C1  UNL     1      28.561   5.449  48.388  1.00  0.00     0.020 C 
HETATM    2  C2  UNL     1      27.530   6.102  48.268  1.00  0.00    -0.047 C 
HETATM    3  C3  UNL     1      26.317   6.845  48.131  1.00  0.00     0.168 C 
HETATM    4  F1  UNL     1      26.197   7.907  47.300  1.00  0.00    -0.196 F 
HETATM    5  C4  UNL     1      25.307   6.400  48.894  1.00  0.00     0.052 C 
ENDROOT
BRANCH   5   6
HETATM    6  C5  UNL     1      25.537   5.263  49.743  1.00  0.00     0.006 C 
HETATM    7  C6  UNL     1      24.492   4.638  50.274  1.00  0.00     0.029 C 
BRANCH   7   8
HETATM    8  C7  UNL     1      24.702   3.469  51.149  1.00  0.00     0.057 C 
HETATM    9  N1  UNL     1      23.915   3.031  52.042  1.00  0.00    -0.178 NA
HETATM   10  N2  UNL     1      24.388   1.901  52.711  1.00  0.00    -0.243 N 
HETATM   11  C11 UNL     1      25.818   2.032  52.567  1.00  0.00     0.147 C 
HETATM   12  C19 UNL     1      25.893   2.580  51.135  1.00  0.00     0.093 C 
BRANCH  10  13
HETATM   13  C8  UNL     1      23.763   0.810  53.406  1.00  0.00     0.369 A 
HETATM   14  N3  UNL     1      22.788  -0.076  53.448  1.00  0.00     0.084 N 
HETATM   15  C9  UNL     1      22.908  -0.852  54.570  1.00  0.00     0.349 A 
HETATM   16  C10 UNL     1      21.807  -1.206  53.797  1.00  0.00     0.364 A 
HETATM   17  S1  UNL     1      22.223   0.160  52.523  1.00  0.00     0.088 SA
BRANCH  15  18
HETATM   18  O1  UNL     1      23.146  -1.583  55.762  1.00  0.00    -0.357 OA
HETATM   19  H5  UNL     1      23.002  -1.075  56.628  1.00  0.00     0.213 HD
ENDBRANCH  15  18
ENDBRANCH  10  13
BRANCH  11  20
HETATM   20  C12 UNL     1      26.586   0.801  52.716  1.00  0.00    -0.033 A 
HETATM   21  C13 UNL     1      26.259  -0.475  52.360  1.00  0.00     0.010 A 
HETATM   22  C14 UNL     1      27.086  -1.547  52.553  1.00  0.00     0.007 A 
HETATM   23  C15 UNL     1      28.340  -1.382  53.139  1.00  0.00    -0.062 A 
HETATM   24  C16 UNL     1      29.213  -2.567  53.335  1.00  0.00     0.048 C 
HETATM   25  C17 UNL     1      28.734  -0.101  53.526  1.00  0.00     0.007 A 
HETATM   26  C18 UNL     1      27.849   0.931  53.301  1.00  0.00     0.010 A 
ENDBRANCH  11  20
ENDBRANCH   7   8
ENDBRANCH   5   6
TORSDOF 6
ENDMDL
MODEL 2
REMARK VINA RESULT:      -8.9      2.462      4.179
REMARK  6 active torsions:
REMARK  status: ('A' for Active; 'I' for Inactive)
REMARK    1  A    between atoms: C4_5  and  C5_6 
REMARK    2  A    between atoms: C6_7  and  C7_8 
REMARK    3  A    between atoms: N2_10  and  C8_11 
REMARK    4  A    between atoms: C9_13  and  O1_14 
REMARK    5  A    between atoms: C10_15  and  S1_16 
REMARK    6  A    between atoms: C11_17  and  C12_18 
ROOT
HETATM    1  C1  UNL     1      30.131   5.698  48.091  1.00  0.00     0.020 C 
HETATM    2  C2  UNL     1      29.158   6.402  47.845  1.00  0.00    -0.047 C 
HETATM    3  C3  UNL     1      28.012   7.205  47.557  1.00  0.00     0.168 C 
HETATM    4  F1  UNL     1      28.073   8.329  46.805  1.00  0.00    -0.196 F 
HETATM    5  C4  UNL     1      26.870   6.750  48.094  1.00  0.00     0.052 C 
ENDROOT
BRANCH   5   6
HETATM    6  C5  UNL     1      26.910   5.545  48.877  1.00  0.00     0.006 C 
HETATM    7  C6  UNL     1      25.801   5.137  49.483  1.00  0.00     0.029 C 
BRANCH   7   8
HETATM    8  C7  UNL     1      25.818   3.903  50.293  1.00  0.00     0.057 C 
HETATM    9  N1  UNL     1      26.821   3.171  50.549  1.00  0.00    -0.178 NA
HETATM   10  N2  UNL     1      26.527   2.064  51.345  1.00  0.00    -0.243 N 
HETATM   11  C11 UNL     1      25.130   1.841  51.062  1.00  0.00     0.147 C 
HETATM   12  C19 UNL     1      24.642   3.293  50.967  1.00  0.00     0.093 C 
BRANCH  10  13
HETATM   13  C8  UNL     1      27.286   1.250  52.254  1.00  0.00     0.369 A 
HETATM   14  N3  UNL     1      28.118   1.193  53.276  1.00  0.00     0.084 N 
HETATM   15  C9  UNL     1      28.397  -0.113  53.580  1.00  0.00     0.349 A 
HETATM   16  C10 UNL     1      29.058   0.780  54.419  1.00  0.00     0.364 A 
HETATM   17  S1  UNL     1      28.277   2.267  53.502  1.00  0.00     0.088 SA
BRANCH  15  18
HETATM   18  O1  UNL     1      28.602  -1.500  53.792  1.00  0.00    -0.357 OA
HETATM   19  H5  UNL     1      28.643  -1.799  54.760  1.00  0.00     0.213 HD
ENDBRANCH  15  18
ENDBRANCH  10  13
BRANCH  11  20
HETATM   20  C12 UNL     1      24.391   1.088  52.070  1.00  0.00    -0.033 A 
HETATM   21  C13 UNL     1      24.818   0.087  52.893  1.00  0.00     0.010 A 
HETATM   22  C14 UNL     1      24.011  -0.533  53.807  1.00  0.00     0.007 A 
HETATM   23  C15 UNL     1      22.675  -0.161  53.946  1.00  0.00    -0.062 A 
HETATM   24  C16 UNL     1      21.826  -0.855  54.948  1.00  0.00     0.048 C 
HETATM   25  C17 UNL     1      22.177   0.857  53.133  1.00  0.00     0.007 A 
HETATM   26  C18 UNL     1      23.047   1.436  52.235  1.00  0.00     0.010 A 
ENDBRANCH  11  20
ENDBRANCH   7   8
ENDBRANCH   5   6
TORSDOF 6
ENDMDL
MODEL 3
REMARK VINA RESULT:      -8.8      4.123      7.025
REMARK  6 active torsions:
REMARK  status: ('A' for Active; 'I' for Inactive)
REMARK    1  A    between atoms: C4_5  and  C5_6 
REMARK    2  A    between atoms: C6_7  and  C7_8 
REMARK    3  A    between atoms: N2_10  and  C8_11 
REMARK    4  A    between atoms: C9_13  and  O1_14 
REMARK    5  A    between atoms: C10_15  and  S1_16 
REMARK    6  A    between atoms: C11_17  and  C12_18 
ROOT
HETATM    1  C1  UNL     1      17.858   0.401  50.296  1.00  0.00     0.020 C 
HETATM    2  C2  UNL     1      17.539  -0.136  51.351  1.00  0.00    -0.047 C 
HETATM    3  C3  UNL     1      17.183  -0.774  52.579  1.00  0.00     0.168 C 
HETATM    4  F1  UNL     1      15.901  -1.038  52.925  1.00  0.00    -0.196 F 
HETATM    5  C4  UNL     1      18.228  -1.089  53.360  1.00  0.00     0.052 C 
ENDROOT
BRANCH   5   6
HETATM    6  C5  UNL     1      19.551  -0.766  52.901  1.00  0.00     0.006 C 
HETATM    7  C6  UNL     1      20.470  -0.415  53.793  1.00  0.00     0.029 C 
BRANCH   7   8
HETATM    8  C7  UNL     1      21.836  -0.078  53.346  1.00  0.00     0.057 C 
HETATM    9  N1  UNL     1      22.160   0.608  52.331  1.00  0.00    -0.178 NA
HETATM   10  N2  UNL     1      23.538   0.759  52.163  1.00  0.00    -0.243 N 
HETATM   11  C11 UNL     1      24.060  -0.409  52.832  1.00  0.00     0.147 C 
HETATM   12  C19 UNL     1      23.095  -0.488  54.023  1.00  0.00     0.093 C 
BRANCH  10  13
HETATM   13  C8  UNL     1      24.371   1.742  51.529  1.00  0.00     0.369 A 
HETATM   14  N3  UNL     1      24.477   2.716  50.647  1.00  0.00     0.084 N 
HETATM   15  C9  UNL     1      25.758   3.203  50.638  1.00  0.00     0.349 A 
HETATM   16  C10 UNL     1      24.934   3.860  49.728  1.00  0.00     0.364 A 
HETATM   17  S1  UNL     1      23.448   2.767  50.236  1.00  0.00     0.088 SA
BRANCH  15  18
HETATM   18  O1  UNL     1      27.112   3.614  50.727  1.00  0.00    -0.357 OA
HETATM   19  H5  UNL     1      27.801   2.870  50.734  1.00  0.00     0.213 HD
ENDBRANCH  15  18
ENDBRANCH  10  13
BRANCH  11  20
HETATM   20  C12 UNL     1      25.449  -0.321  53.269  1.00  0.00    -0.033 A 
HETATM   21  C13 UNL     1      25.990   0.369  54.315  1.00  0.00     0.010 A 
HETATM   22  C14 UNL     1      27.323   0.357  54.617  1.00  0.00     0.007 A 
HETATM   23  C15 UNL     1      28.221  -0.383  53.849  1.00  0.00    -0.062 A 
HETATM   24  C16 UNL     1      29.663  -0.374  54.205  1.00  0.00     0.048 C 
HETATM   25  C17 UNL     1      27.731  -1.110  52.765  1.00  0.00     0.007 A 
HETATM   26  C18 UNL     1      26.376  -1.051  52.519  1.00  0.00     0.010 A 
ENDBRANCH  11  20
ENDBRANCH   7   8
ENDBRANCH   5   6
TORSDOF 6
ENDMDL
MODEL 4
REMARK VINA RESULT:      -8.7      3.902      7.341
REMARK  6 active torsions:
REMARK  status: ('A' for Active; 'I' for Inactive)
REMARK    1  A    between atoms: C4_5  and  C5_6 
REMARK    2  A    between atoms: C6_7  and  C7_8 
REMARK    3  A    between atoms: N2_10  and  C8_11 
REMARK    4  A    between atoms: C9_13  and  O1_14 
REMARK    5  A    between atoms: C10_15  and  S1_16 
REMARK    6  A    between atoms: C11_17  and  C12_18 
ROOT
HETATM    1  C1  UNL     1      18.626   0.859  50.812  1.00  0.00     0.020 C 
HETATM    2  C2  UNL     1      18.483   0.003  51.677  1.00  0.00    -0.047 C 
HETATM    3  C3  UNL     1      18.336  -1.001  52.684  1.00  0.00     0.168 C 
HETATM    4  F1  UNL     1      17.220  -1.756  52.811  1.00  0.00    -0.196 F 
HETATM    5  C4  UNL     1      19.399  -1.132  53.492  1.00  0.00     0.052 C 
ENDROOT
BRANCH   5   6
HETATM    6  C5  UNL     1      20.538  -0.282  53.274  1.00  0.00     0.006 C 
HETATM    7  C6  UNL     1      21.755  -0.796  53.400  1.00  0.00     0.029 C 
BRANCH   7   8
HETATM    8  C7  UNL     1      22.939   0.057  53.181  1.00  0.00     0.057 C 
HETATM    9  N1  UNL     1      23.965   0.145  53.921  1.00  0.00    -0.178 NA
HETATM   10  N2  UNL     1      24.927   1.042  53.454  1.00  0.00    -0.243 N 
HETATM   11  C11 UNL     1      24.139   1.960  52.667  1.00  0.00     0.147 C 
HETATM   12  C19 UNL     1      23.142   0.979  52.032  1.00  0.00     0.093 C 
BRANCH  10  13
HETATM   13  C8  UNL     1      26.349   1.164  53.615  1.00  0.00     0.369 A 
HETATM   14  N3  UNL     1      27.539   0.606  53.503  1.00  0.00     0.084 N 
HETATM   15  C9  UNL     1      28.508   1.485  53.910  1.00  0.00     0.349 A 
HETATM   16  C10 UNL     1      29.038   0.265  53.497  1.00  0.00     0.364 A 
HETATM   17  S1  UNL     1      27.285  -0.398  53.107  1.00  0.00     0.088 SA
BRANCH  15  18
HETATM   18  O1  UNL     1      29.410   2.484  54.356  1.00  0.00    -0.357 OA
HETATM   19  H5  UNL     1      29.358   2.719  55.342  1.00  0.00     0.213 HD
ENDBRANCH  15  18
ENDBRANCH  10  13
BRANCH  11  20
HETATM   20  C12 UNL     1      24.868   2.718  51.657  1.00  0.00    -0.033 A 
HETATM   21  C13 UNL     1      25.950   2.352  50.910  1.00  0.00     0.010 A 
HETATM   22  C14 UNL     1      26.536   3.169  49.982  1.00  0.00     0.007 A 
HETATM   23  C15 UNL     1      26.042   4.451  49.750  1.00  0.00    -0.062 A 
HETATM   24  C16 UNL     1      26.702   5.313  48.736  1.00  0.00     0.048 C 
HETATM   25  C17 UNL     1      24.937   4.885  50.482  1.00  0.00     0.007 A 
HETATM   26  C18 UNL     1      24.398   4.008  51.399  1.00  0.00     0.010 A 
ENDBRANCH  11  20
ENDBRANCH   7   8
ENDBRANCH   5   6
TORSDOF 6
ENDMDL
MODEL 5
REMARK VINA RESULT:      -8.6      4.016      7.286
REMARK  6 active torsions:
REMARK  status: ('A' for Active; 'I' for Inactive)
REMARK    1  A    between atoms: C4_5  and  C5_6 
REMARK    2  A    between atoms: C6_7  and  C7_8 
REMARK    3  A    between atoms: N2_10  and  C8_11 
REMARK    4  A    between atoms: C9_13  and  O1_14 
REMARK    5  A    between atoms: C10_15  and  S1_16 
REMARK    6  A    between atoms: C11_17  and  C12_18 
ROOT
HETATM    1  C1  UNL     1      29.296   1.979  54.182  1.00  0.00     0.020 C 
HETATM    2  C2  UNL     1      29.390   0.770  54.002  1.00  0.00    -0.047 C 
HETATM    3  C3  UNL     1      29.480  -0.641  53.796  1.00  0.00     0.168 C 
HETATM    4  F1  UNL     1      30.553  -1.372  54.181  1.00  0.00    -0.196 F 
HETATM    5  C4  UNL     1      28.411  -1.180  53.190  1.00  0.00     0.052 C 
ENDROOT
BRANCH   5   6
HETATM    6  C5  UNL     1      27.322  -0.317  52.822  1.00  0.00     0.006 C 
HETATM    7  C6  UNL     1      26.170  -0.427  53.472  1.00  0.00     0.029 C 
BRANCH   7   8
HETATM    8  C7  UNL     1      25.037   0.448  53.111  1.00  0.00     0.057 C 
HETATM    9  N1  UNL     1      25.029   1.715  53.084  1.00  0.00    -0.178 NA
HETATM   10  N2  UNL     1      23.805   2.267  52.702  1.00  0.00    -0.243 N 
HETATM   11  C11 UNL     1      22.869   1.235  53.079  1.00  0.00     0.147 C 
HETATM   12  C19 UNL     1      23.683  -0.012  52.706  1.00  0.00     0.093 C 
BRANCH  10  13
HETATM   13  C8  UNL     1      23.408   3.505  52.091  1.00  0.00     0.369 A 
HETATM   14  N3  UNL     1      23.362   4.251  51.005  1.00  0.00     0.084 N 
HETATM   15  C9  UNL     1      22.747   5.444  51.282  1.00  0.00     0.349 A 
HETATM   16  C10 UNL     1      23.147   5.350  49.952  1.00  0.00     0.364 A 
HETATM   17  S1  UNL     1      23.859   3.600  50.258  1.00  0.00     0.088 SA
BRANCH  15  18
HETATM   18  O1  UNL     1      22.095   6.633  51.698  1.00  0.00    -0.357 OA
HETATM   19  H5  UNL     1      22.695   7.356  52.080  1.00  0.00     0.213 HD
ENDBRANCH  15  18
ENDBRANCH  10  13
BRANCH  11  20
HETATM   20  C12 UNL     1      21.582   1.265  52.393  1.00  0.00    -0.033 A 
HETATM   21  C13 UNL     1      20.402   1.829  52.784  1.00  0.00     0.010 A 
HETATM   22  C14 UNL     1      19.261   1.789  52.031  1.00  0.00     0.007 A 
HETATM   23  C15 UNL     1      19.249   1.151  50.792  1.00  0.00    -0.062 A 
HETATM   24  C16 UNL     1      17.992   1.125  50.000  1.00  0.00     0.048 C 
HETATM   25  C17 UNL     1      20.424   0.555  50.335  1.00  0.00     0.007 A 
HETATM   26  C18 UNL     1      21.534   0.635  51.147  1.00  0.00     0.010 A 
ENDBRANCH  11  20
ENDBRANCH   7   8
ENDBRANCH   5   6
TORSDOF 6
ENDMDL
MODEL 6
REMARK VINA RESULT:      -8.5      4.164      7.238
REMARK  6 active torsions:
REMARK  status: ('A' for Active; 'I' for Inactive)
REMARK    1  A    between atoms: C4_5  and  C5_6 
REMARK    2  A    between atoms: C6_7  and  C7_8 
REMARK    3  A    between atoms: N2_10  and  C8_11 
REMARK    4  A    between atoms: C9_13  and  O1_14 
REMARK    5  A    between atoms: C10_15  and  S1_16 
REMARK    6  A    between atoms: C11_17  and  C12_18 
ROOT
HETATM    1  C1  UNL     1      28.869   2.109  53.823  1.00  0.00     0.020 C 
HETATM    2  C2  UNL     1      29.113   0.910  53.750  1.00  0.00    -0.047 C 
HETATM    3  C3  UNL     1      29.377  -0.492  53.671  1.00  0.00     0.168 C 
HETATM    4  F1  UNL     1      30.555  -1.040  54.050  1.00  0.00    -0.196 F 
HETATM    5  C4  UNL     1      28.358  -1.220  53.189  1.00  0.00     0.052 C 
ENDROOT
BRANCH   5   6
HETATM    6  C5  UNL     1      27.146  -0.543  52.814  1.00  0.00     0.006 C 
HETATM    7  C6  UNL     1      26.079  -0.661  53.595  1.00  0.00     0.029 C 
BRANCH   7   8
HETATM    8  C7  UNL     1      24.823   0.024  53.230  1.00  0.00     0.057 C 
HETATM    9  N1  UNL     1      24.662   1.265  53.024  1.00  0.00    -0.178 NA
HETATM   10  N2  UNL     1      23.354   1.620  52.694  1.00  0.00    -0.243 N 
HETATM   11  C11 UNL     1      22.582   0.565  53.306  1.00  0.00     0.147 C 
HETATM   12  C19 UNL     1      23.504  -0.632  53.033  1.00  0.00     0.093 C 
BRANCH  10  13
HETATM   13  C8  UNL     1      22.762   2.702  51.957  1.00  0.00     0.369 A 
HETATM   14  N3  UNL     1      22.589   4.003  51.826  1.00  0.00     0.084 N 
HETATM   15  C9  UNL     1      21.798   4.263  50.738  1.00  0.00     0.349 A 
HETATM   16  C10 UNL     1      22.195   5.424  51.394  1.00  0.00     0.364 A 
HETATM   17  S1  UNL     1      23.174   4.399  52.681  1.00  0.00     0.088 SA
BRANCH  15  18
HETATM   18  O1  UNL     1      20.973   4.396  49.592  1.00  0.00    -0.357 OA
HETATM   19  H5  UNL     1      20.298   3.654  49.444  1.00  0.00     0.213 HD
ENDBRANCH  15  18
ENDBRANCH  10  13
BRANCH  11  20
HETATM   20  C12 UNL     1      21.247   0.355  52.758  1.00  0.00    -0.033 A 
HETATM   21  C13 UNL     1      20.741   0.714  51.542  1.00  0.00     0.010 A 
HETATM   22  C14 UNL     1      19.459   0.445  51.150  1.00  0.00     0.007 A 
HETATM   23  C15 UNL     1      18.582  -0.230  51.998  1.00  0.00    -0.062 A 
HETATM   24  C16 UNL     1      17.196  -0.506  51.542  1.00  0.00     0.048 C 
HETATM   25  C17 UNL     1      19.039  -0.624  53.255  1.00  0.00     0.007 A 
HETATM   26  C18 UNL     1      20.342  -0.319  53.583  1.00  0.00     0.010 A 
ENDBRANCH  11  20
ENDBRANCH   7   8
ENDBRANCH   5   6
TORSDOF 6
ENDMDL
MODEL 7
REMARK VINA RESULT:      -8.5      4.488      7.466
REMARK  6 active torsions:
REMARK  status: ('A' for Active; 'I' for Inactive)
REMARK    1  A    between atoms: C4_5  and  C5_6 
REMARK    2  A    between atoms: C6_7  and  C7_8 
REMARK    3  A    between atoms: N2_10  and  C8_11 
REMARK    4  A    between atoms: C9_13  and  O1_14 
REMARK    5  A    between atoms: C10_15  and  S1_16 
REMARK    6  A    between atoms: C11_17  and  C12_18 
ROOT
HETATM    1  C1  UNL     1      17.117   0.133  50.123  1.00  0.00     0.020 C 
HETATM    2  C2  UNL     1      17.047  -0.516  51.161  1.00  0.00    -0.047 C 
HETATM    3  C3  UNL     1      16.987  -1.278  52.368  1.00  0.00     0.168 C 
HETATM    4  F1  UNL     1      15.910  -2.024  52.712  1.00  0.00    -0.196 F 
HETATM    5  C4  UNL     1      18.087  -1.192  53.132  1.00  0.00     0.052 C 
ENDROOT
BRANCH   5   6
HETATM    6  C5  UNL     1      19.177  -0.372  52.677  1.00  0.00     0.006 C 
HETATM    7  C6  UNL     1      20.195  -0.147  53.498  1.00  0.00     0.029 C 
BRANCH   7   8
HETATM    8  C7  UNL     1      21.326   0.691  53.054  1.00  0.00     0.057 C 
HETATM    9  N1  UNL     1      21.264   1.757  52.369  1.00  0.00    -0.178 NA
HETATM   10  N2  UNL     1      22.507   2.332  52.101  1.00  0.00    -0.243 N 
HETATM   11  C11 UNL     1      23.395   1.196  52.168  1.00  0.00     0.147 C 
HETATM   12  C19 UNL     1      22.761   0.431  53.339  1.00  0.00     0.093 C 
BRANCH  10  13
HETATM   13  C8  UNL     1      22.955   3.667  51.816  1.00  0.00     0.369 A 
HETATM   14  N3  UNL     1      23.134   4.619  50.922  1.00  0.00     0.084 N 
HETATM   15  C9  UNL     1      23.676   5.727  51.519  1.00  0.00     0.349 A 
HETATM   16  C10 UNL     1      23.467   5.909  50.155  1.00  0.00     0.364 A 
HETATM   17  S1  UNL     1      22.763   4.136  49.995  1.00  0.00     0.088 SA
BRANCH  15  18
HETATM   18  O1  UNL     1      24.233   6.803  52.256  1.00  0.00    -0.357 OA
HETATM   19  H5  UNL     1      24.983   7.311  51.799  1.00  0.00     0.213 HD
ENDBRANCH  15  18
ENDBRANCH  10  13
BRANCH  11  20
HETATM   20  C12 UNL     1      24.798   1.503  52.420  1.00  0.00    -0.033 A 
HETATM   21  C13 UNL     1      25.762   1.936  51.556  1.00  0.00     0.010 A 
HETATM   22  C14 UNL     1      27.051   2.195  51.932  1.00  0.00     0.007 A 
HETATM   23  C15 UNL     1      27.454   2.024  53.255  1.00  0.00    -0.062 A 
HETATM   24  C16 UNL     1      28.862   2.314  53.630  1.00  0.00     0.048 C 
HETATM   25  C17 UNL     1      26.516   1.583  54.188  1.00  0.00     0.007 A 
HETATM   26  C18 UNL     1      25.236   1.342  53.738  1.00  0.00     0.010 A 
ENDBRANCH  11  20
ENDBRANCH   7   8
ENDBRANCH   5   6
TORSDOF 6
ENDMDL
MODEL 8
REMARK VINA RESULT:      -8.4      1.753      2.269
REMARK  6 active torsions:
REMARK  status: ('A' for Active; 'I' for Inactive)
REMARK    1  A    between atoms: C4_5  and  C5_6 
REMARK    2  A    between atoms: C6_7  and  C7_8 
REMARK    3  A    between atoms: N2_10  and  C8_11 
REMARK    4  A    between atoms: C9_13  and  O1_14 
REMARK    5  A    between atoms: C10_15  and  S1_16 
REMARK    6  A    between atoms: C11_17  and  C12_18 
ROOT
HETATM    1  C1  UNL     1      21.955   2.891  47.079  1.00  0.00     0.020 C 
HETATM    2  C2  UNL     1      22.321   4.054  47.204  1.00  0.00    -0.047 C 
HETATM    3  C3  UNL     1      22.747   5.408  47.371  1.00  0.00     0.168 C 
HETATM    4  F1  UNL     1      22.343   6.410  46.556  1.00  0.00    -0.196 F 
HETATM    5  C4  UNL     1      23.580   5.601  48.405  1.00  0.00     0.052 C 
ENDROOT
BRANCH   5   6
HETATM    6  C5  UNL     1      23.949   4.470  49.212  1.00  0.00     0.006 C 
HETATM    7  C6  UNL     1      23.713   4.510  50.518  1.00  0.00     0.029 C 
BRANCH   7   8
HETATM    8  C7  UNL     1      24.083   3.361  51.367  1.00  0.00     0.057 C 
HETATM    9  N1  UNL     1      23.388   2.836  52.288  1.00  0.00    -0.178 NA
HETATM   10  N2  UNL     1      24.005   1.756  52.920  1.00  0.00    -0.243 N 
HETATM   11  C11 UNL     1      25.406   2.036  52.714  1.00  0.00     0.147 C 
HETATM   12  C19 UNL     1      25.358   2.601  51.287  1.00  0.00     0.093 C 
BRANCH  10  13
HETATM   13  C8  UNL     1      23.529   0.599  53.627  1.00  0.00     0.369 A 
HETATM   14  N3  UNL     1      22.669  -0.398  53.687  1.00  0.00     0.084 N 
HETATM   15  C9  UNL     1      22.901  -1.150  54.808  1.00  0.00     0.349 A 
HETATM   16  C10 UNL     1      21.838  -1.638  54.054  1.00  0.00     0.364 A 
HETATM   17  S1  UNL     1      22.065  -0.237  52.771  1.00  0.00     0.088 SA
BRANCH  15  18
HETATM   18  O1  UNL     1      23.245  -1.842  55.997  1.00  0.00    -0.357 OA
HETATM   19  H5  UNL     1      23.860  -2.640  55.883  1.00  0.00     0.213 HD
ENDBRANCH  15  18
ENDBRANCH  10  13
BRANCH  11  20
HETATM   20  C12 UNL     1      26.303   0.890  52.812  1.00  0.00    -0.033 A 
HETATM   21  C13 UNL     1      26.152  -0.375  52.323  1.00  0.00     0.010 A 
HETATM   22  C14 UNL     1      27.087  -1.361  52.483  1.00  0.00     0.007 A 
HETATM   23  C15 UNL     1      28.272  -1.113  53.173  1.00  0.00    -0.062 A 
HETATM   24  C16 UNL     1      29.265  -2.207  53.329  1.00  0.00     0.048 C 
HETATM   25  C17 UNL     1      28.486   0.161  53.697  1.00  0.00     0.007 A 
HETATM   26  C18 UNL     1      27.501   1.104  53.498  1.00  0.00     0.010 A 
ENDBRANCH  11  20
ENDBRANCH   7   8
ENDBRANCH   5   6
TORSDOF 6
ENDMDL
MODEL 9
REMARK VINA RESULT:      -8.3      4.159      7.221
REMARK  6 active torsions:
REMARK  status: ('A' for Active; 'I' for Inactive)
REMARK    1  A    between atoms: C4_5  and  C5_6 
REMARK    2  A    between atoms: C6_7  and  C7_8 
REMARK    3  A    between atoms: N2_10  and  C8_11 
REMARK    4  A    between atoms: C9_13  and  O1_14 
REMARK    5  A    between atoms: C10_15  and  S1_16 
REMARK    6  A    between atoms: C11_17  and  C12_18 
ROOT
HETATM    1  C1  UNL     1      27.973  -2.658  52.707  1.00  0.00     0.020 C 
HETATM    2  C2  UNL     1      28.763  -1.866  53.209  1.00  0.00    -0.047 C 
HETATM    3  C3  UNL     1      29.677  -0.927  53.779  1.00  0.00     0.168 C 
HETATM    4  F1  UNL     1      30.915  -1.274  54.205  1.00  0.00    -0.196 F 
HETATM    5  C4  UNL     1      29.206   0.327  53.856  1.00  0.00     0.052 C 
ENDROOT
BRANCH   5   6
HETATM    6  C5  UNL     1      27.877   0.592  53.375  1.00  0.00     0.006 C 
HETATM    7  C6  UNL     1      27.653   1.712  52.698  1.00  0.00     0.029 C 
BRANCH   7   8
HETATM    8  C7  UNL     1      26.298   2.007  52.195  1.00  0.00     0.057 C 
HETATM    9  N1  UNL     1      25.985   2.817  51.270  1.00  0.00    -0.178 NA
HETATM   10  N2  UNL     1      24.615   2.884  51.014  1.00  0.00    -0.243 N 
HETATM   11  C11 UNL     1      24.043   2.488  52.279  1.00  0.00     0.147 C 
HETATM   12  C19 UNL     1      25.037   1.393  52.689  1.00  0.00     0.093 C 
BRANCH  10  13
HETATM   13  C8  UNL     1      23.823   3.231  49.866  1.00  0.00     0.369 A 
HETATM   14  N3  UNL     1      23.297   4.180  49.117  1.00  0.00     0.084 N 
HETATM   15  C9  UNL     1      22.595   3.623  48.081  1.00  0.00     0.349 A 
HETATM   16  C10 UNL     1      22.560   5.015  48.057  1.00  0.00     0.364 A 
HETATM   17  S1  UNL     1      23.640   5.099  49.635  1.00  0.00     0.088 SA
BRANCH  15  18
HETATM   18  O1  UNL     1      21.904   2.924  47.059  1.00  0.00    -0.357 OA
HETATM   19  H5  UNL     1      21.102   3.399  46.661  1.00  0.00     0.213 HD
ENDBRANCH  15  18
ENDBRANCH  10  13
BRANCH  11  20
HETATM   20  C12 UNL     1      22.675   1.983  52.226  1.00  0.00    -0.033 A 
HETATM   21  C13 UNL     1      21.495   2.660  52.331  1.00  0.00     0.010 A 
HETATM   22  C14 UNL     1      20.270   2.055  52.255  1.00  0.00     0.007 A 
HETATM   23  C15 UNL     1      20.167   0.679  52.061  1.00  0.00    -0.062 A 
HETATM   24  C16 UNL     1      18.821   0.054  51.985  1.00  0.00     0.048 C 
HETATM   25  C17 UNL     1      21.338  -0.070  51.946  1.00  0.00     0.007 A 
HETATM   26  C18 UNL     1      22.535   0.606  52.032  1.00  0.00     0.010 A 
ENDBRANCH  11  20
ENDBRANCH   7   8
ENDBRANCH   5   6
TORSDOF 6
ENDMDL
