MODEL 1
REMARK VINA RESULT:      -9.0      0.000      0.000
REMARK  5 active torsions:
REMARK  status: ('A' for Active; 'I' for Inactive)
REMARK    1  A    between atoms: N1_1  and  C1_2 
REMARK    2  A    between atoms: C2_3  and  C3_4 
REMARK    3  A    between atoms: C7_8  and  C8_9 
REMARK    4  A    between atoms: C12_15  and  O1_16 
REMARK    5  A    between atoms: O1_16  and  C13_17 
ROOT
HETATM    1  C8  UNL     1      21.826  -0.035  52.522  1.00  0.00     0.084 A 
HETATM    2  N2  UNL     1      20.982  -0.918  53.137  1.00  0.00    -0.240 NA
HETATM    3  C9  UNL     1      21.319  -1.610  54.237  1.00  0.00     0.234 A 
HETATM    4  N3  UNL     1      22.542  -1.439  54.777  1.00  0.00    -0.241 NA
HETATM    5  C10 UNL     1      23.422  -0.591  54.233  1.00  0.00     0.076 A 
HETATM    6  C11 UNL     1      24.672  -0.370  54.759  1.00  0.00     0.072 A 
HETATM    7  C12 UNL     1      25.568   0.522  54.208  1.00  0.00     0.107 A 
HETATM    8  C18 UNL     1      25.137   1.206  53.064  1.00  0.00     0.136 A 
HETATM    9  C19 UNL     1      23.894   0.995  52.527  1.00  0.00     0.119 A 
HETATM   10  C20 UNL     1      23.057   0.101  53.117  1.00  0.00     0.059 A 
HETATM   11  O3  UNL     1      23.549   1.717  51.405  1.00  0.00    -0.345 OA
HETATM   12  C21 UNL     1      24.326   2.794  50.988  1.00  0.00     0.202 C 
HETATM   13  C22 UNL     1      25.807   2.419  51.108  1.00  0.00     0.202 C 
HETATM   14  O4  UNL     1      26.045   2.118  52.493  1.00  0.00    -0.344 OA
ENDROOT
BRANCH   1  15
HETATM   15  C7  UNL     1      21.235   0.583  51.352  1.00  0.00    -0.005 A 
HETATM   16  C6  UNL     1      21.484   0.567  49.997  1.00  0.00     0.014 A 
HETATM   17  C5  UNL     1      20.781   1.306  49.082  1.00  0.00     0.002 A 
HETATM   18  C4  UNL     1      19.753   2.132  49.479  1.00  0.00     0.021 A 
HETATM   19  C3  UNL     1      19.455   2.190  50.822  1.00  0.00     0.020 A 
HETATM   20  C23 UNL     1      20.181   1.435  51.717  1.00  0.00     0.034 A 
BRANCH  19  21
HETATM   21  C2  UNL     1      18.378   3.061  51.187  1.00  0.00    -0.044 C 
HETATM   22  C1  UNL     1      17.462   3.789  51.475  1.00  0.00     0.009 C 
BRANCH  22  23
HETATM   23  N1  UNL     1      16.388   4.624  51.825  1.00  0.00    -0.359 N 
HETATM   24  H1  UNL     1      16.557   5.387  52.527  1.00  0.00     0.166 HD
HETATM   25  H2  UNL     1      15.457   4.468  51.386  1.00  0.00     0.166 HD
ENDBRANCH  22  23
ENDBRANCH  19  21
ENDBRANCH   1  15
BRANCH   7  26
HETATM   26  O1  UNL     1      26.836   0.780  54.697  1.00  0.00    -0.343 OA
BRANCH  26  27
HETATM   27  C13 UNL     1      27.956  -0.030  54.534  1.00  0.00     0.133 C 
HETATM   28  C14 UNL     1      27.859  -0.881  53.264  1.00  0.00     0.058 C 
HETATM   29  C15 UNL     1      29.006  -1.868  53.280  1.00  0.00     0.170 C 
HETATM   30  O2  UNL     1      30.157  -1.265  53.781  1.00  0.00    -0.391 OA
HETATM   31  C16 UNL     1      30.182   0.094  53.473  1.00  0.00     0.170 C 
HETATM   32  C17 UNL     1      29.173   0.876  54.289  1.00  0.00     0.058 C 
ENDBRANCH  26  27
ENDBRANCH   7  26
TORSDOF 5
ENDMDL
MODEL 2
REMARK VINA RESULT:      -8.8      2.220      2.744
REMARK  5 active torsions:
REMARK  status: ('A' for Active; 'I' for Inactive)
REMARK    1  A    between atoms: N1_1  and  C1_2 
REMARK    2  A    between atoms: C2_3  and  C3_4 
REMARK    3  A    between atoms: C7_8  and  C8_9 
REMARK    4  A    between atoms: C12_15  and  O1_16 
REMARK    5  A    between atoms: O1_16  and  C13_17 
ROOT
HETATM    1  C8  UNL     1      20.527   0.249  52.731  1.00  0.00     0.084 A 
HETATM    2  N2  UNL     1      20.008  -0.690  53.578  1.00  0.00    -0.240 NA
HETATM    3  C9  UNL     1      20.768  -1.513  54.318  1.00  0.00     0.234 A 
HETATM    4  N3  UNL     1      22.110  -1.424  54.237  1.00  0.00    -0.241 NA
HETATM    5  C10 UNL     1      22.693  -0.530  53.431  1.00  0.00     0.076 A 
HETATM    6  C11 UNL     1      24.057  -0.390  53.330  1.00  0.00     0.072 A 
HETATM    7  C12 UNL     1      24.653   0.548  52.515  1.00  0.00     0.107 A 
HETATM    8  C18 UNL     1      23.789   1.370  51.780  1.00  0.00     0.136 A 
HETATM    9  C19 UNL     1      22.427   1.242  51.869  1.00  0.00     0.119 A 
HETATM   10  C20 UNL     1      21.901   0.296  52.690  1.00  0.00     0.059 A 
HETATM   11  O3  UNL     1      21.652   2.097  51.117  1.00  0.00    -0.345 OA
HETATM   12  C21 UNL     1      22.218   3.205  50.494  1.00  0.00     0.202 C 
HETATM   13  C22 UNL     1      23.557   2.799  49.869  1.00  0.00     0.202 C 
HETATM   14  O4  UNL     1      24.389   2.332  50.944  1.00  0.00    -0.344 OA
ENDROOT
BRANCH   1  15
HETATM   15  C7  UNL     1      19.506   1.009  52.041  1.00  0.00    -0.005 A 
HETATM   16  C6  UNL     1      19.102   2.327  52.020  1.00  0.00     0.014 A 
HETATM   17  C5  UNL     1      18.038   2.788  51.291  1.00  0.00     0.002 A 
HETATM   18  C4  UNL     1      17.288   1.934  50.513  1.00  0.00     0.021 A 
HETATM   19  C3  UNL     1      17.644   0.603  50.492  1.00  0.00     0.020 A 
HETATM   20  C23 UNL     1      18.718   0.170  51.236  1.00  0.00     0.034 A 
BRANCH  19  21
HETATM   21  C2  UNL     1      16.835  -0.246  49.669  1.00  0.00    -0.044 C 
HETATM   22  C1  UNL     1      16.171  -0.961  48.962  1.00  0.00     0.009 C 
BRANCH  22  23
HETATM   23  N1  UNL     1      15.401  -1.810  48.151  1.00  0.00    -0.359 N 
HETATM   24  H1  UNL     1      14.622  -1.389  47.586  1.00  0.00     0.166 HD
HETATM   25  H2  UNL     1      15.616  -2.828  48.130  1.00  0.00     0.166 HD
ENDBRANCH  22  23
ENDBRANCH  19  21
ENDBRANCH   1  15
BRANCH   7  26
HETATM   26  O1  UNL     1      26.017   0.729  52.376  1.00  0.00    -0.343 OA
BRANCH  26  27
HETATM   27  C13 UNL     1      26.930   0.906  53.413  1.00  0.00     0.133 C 
HETATM   28  C14 UNL     1      28.070  -0.114  53.341  1.00  0.00     0.058 C 
HETATM   29  C15 UNL     1      28.889   0.017  54.608  1.00  0.00     0.170 C 
HETATM   30  O2  UNL     1      29.003   1.356  54.974  1.00  0.00    -0.391 OA
HETATM   31  C16 UNL     1      28.997   2.182  53.851  1.00  0.00     0.170 C 
HETATM   32  C17 UNL     1      27.624   2.262  53.217  1.00  0.00     0.058 C 
ENDBRANCH  26  27
ENDBRANCH   7  26
TORSDOF 5
ENDMDL
MODEL 3
REMARK VINA RESULT:      -8.7      2.867      3.955
REMARK  5 active torsions:
REMARK  status: ('A' for Active; 'I' for Inactive)
REMARK    1  A    between atoms: N1_1  and  C1_2 
REMARK    2  A    between atoms: C2_3  and  C3_4 
REMARK    3  A    between atoms: C7_8  and  C8_9 
REMARK    4  A    between atoms: C12_15  and  O1_16 
REMARK    5  A    between atoms: O1_16  and  C13_17 
ROOT
HETATM    1  C8  UNL     1      24.390   3.225  49.707  1.00  0.00     0.084 A 
HETATM    2  N2  UNL     1      25.198   4.040  48.963  1.00  0.00    -0.240 NA
HETATM    3  C9  UNL     1      26.492   4.251  49.249  1.00  0.00     0.234 A 
HETATM    4  N3  UNL     1      27.041   3.637  50.317  1.00  0.00    -0.241 NA
HETATM    5  C10 UNL     1      26.316   2.824  51.091  1.00  0.00     0.076 A 
HETATM    6  C11 UNL     1      26.837   2.162  52.178  1.00  0.00     0.072 A 
HETATM    7  C12 UNL     1      26.090   1.307  52.960  1.00  0.00     0.107 A 
HETATM    8  C18 UNL     1      24.750   1.139  52.591  1.00  0.00     0.136 A 
HETATM    9  C19 UNL     1      24.215   1.793  51.512  1.00  0.00     0.119 A 
HETATM   10  C20 UNL     1      25.003   2.625  50.780  1.00  0.00     0.059 A 
HETATM   11  O3  UNL     1      22.889   1.564  51.215  1.00  0.00    -0.345 OA
HETATM   12  C21 UNL     1      22.195   0.524  51.826  1.00  0.00     0.202 C 
HETATM   13  C22 UNL     1      22.559   0.485  53.314  1.00  0.00     0.202 C 
HETATM   14  O4  UNL     1      23.978   0.268  53.385  1.00  0.00    -0.344 OA
ENDROOT
BRANCH   1  15
HETATM   15  C7  UNL     1      23.034   3.165  49.200  1.00  0.00    -0.005 A 
HETATM   16  C6  UNL     1      22.276   2.237  48.520  1.00  0.00     0.014 A 
HETATM   17  C5  UNL     1      20.990   2.459  48.102  1.00  0.00     0.002 A 
HETATM   18  C4  UNL     1      20.363   3.661  48.347  1.00  0.00     0.021 A 
HETATM   19  C3  UNL     1      21.070   4.629  49.026  1.00  0.00     0.020 A 
HETATM   20  C23 UNL     1      22.361   4.375  49.432  1.00  0.00     0.034 A 
BRANCH  19  21
HETATM   21  C2  UNL     1      20.376   5.861  49.258  1.00  0.00    -0.044 C 
HETATM   22  C1  UNL     1      19.804   6.906  49.438  1.00  0.00     0.009 C 
BRANCH  22  23
HETATM   23  N1  UNL     1      19.120   8.116  49.638  1.00  0.00    -0.359 N 
HETATM   24  H1  UNL     1      19.099   8.523  50.606  1.00  0.00     0.166 HD
HETATM   25  H2  UNL     1      18.653   8.577  48.830  1.00  0.00     0.166 HD
ENDBRANCH  22  23
ENDBRANCH  19  21
ENDBRANCH   1  15
BRANCH   7  26
HETATM   26  O1  UNL     1      26.565   0.619  54.062  1.00  0.00    -0.343 OA
BRANCH  26  27
HETATM   27  C13 UNL     1      27.347  -0.533  54.034  1.00  0.00     0.133 C 
HETATM   28  C14 UNL     1      27.206  -1.279  52.704  1.00  0.00     0.058 C 
HETATM   29  C15 UNL     1      27.917  -2.608  52.841  1.00  0.00     0.170 C 
HETATM   30  O2  UNL     1      29.087  -2.457  53.580  1.00  0.00    -0.391 OA
HETATM   31  C16 UNL     1      29.638  -1.190  53.389  1.00  0.00     0.170 C 
HETATM   32  C17 UNL     1      28.824  -0.113  54.077  1.00  0.00     0.058 C 
ENDBRANCH  26  27
ENDBRANCH   7  26
TORSDOF 5
ENDMDL
MODEL 4
REMARK VINA RESULT:      -8.7      3.399      8.732
REMARK  5 active torsions:
REMARK  status: ('A' for Active; 'I' for Inactive)
REMARK    1  A    between atoms: N1_1  and  C1_2 
REMARK    2  A    between atoms: C2_3  and  C3_4 
REMARK    3  A    between atoms: C7_8  and  C8_9 
REMARK    4  A    between atoms: C12_15  and  O1_16 
REMARK    5  A    between atoms: O1_16  and  C13_17 
ROOT
HETATM    1  C8  UNL     1      23.306   1.793  51.201  1.00  0.00     0.084 A 
HETATM    2  N2  UNL     1      23.709   2.475  50.087  1.00  0.00    -0.240 NA
HETATM    3  C9  UNL     1      22.932   2.639  49.004  1.00  0.00     0.234 A 
HETATM    4  N3  UNL     1      21.691   2.114  48.996  1.00  0.00    -0.241 NA
HETATM    5  C10 UNL     1      21.224   1.435  50.049  1.00  0.00     0.076 A 
HETATM    6  C11 UNL     1      19.959   0.899  50.094  1.00  0.00     0.072 A 
HETATM    7  C12 UNL     1      19.474   0.219  51.191  1.00  0.00     0.107 A 
HETATM    8  C18 UNL     1      20.346   0.096  52.280  1.00  0.00     0.136 A 
HETATM    9  C19 UNL     1      21.611   0.624  52.250  1.00  0.00     0.119 A 
HETATM   10  C20 UNL     1      22.031   1.282  51.138  1.00  0.00     0.059 A 
HETATM   11  O3  UNL     1      22.400   0.463  53.368  1.00  0.00    -0.345 OA
HETATM   12  C21 UNL     1      21.850   0.012  54.565  1.00  0.00     0.202 C 
HETATM   13  C22 UNL     1      20.877  -1.134  54.268  1.00  0.00     0.202 C 
HETATM   14  O4  UNL     1      19.861  -0.598  53.405  1.00  0.00    -0.344 OA
ENDROOT
BRANCH   1  15
HETATM   15  C7  UNL     1      24.322   1.749  52.231  1.00  0.00    -0.005 A 
HETATM   16  C6  UNL     1      24.766   2.605  53.216  1.00  0.00     0.014 A 
HETATM   17  C5  UNL     1      25.814   2.328  54.053  1.00  0.00     0.002 A 
HETATM   18  C4  UNL     1      26.505   1.141  53.956  1.00  0.00     0.021 A 
HETATM   19  C3  UNL     1      26.107   0.242  52.990  1.00  0.00     0.020 A 
HETATM   20  C23 UNL     1      25.050   0.550  52.164  1.00  0.00     0.034 A 
BRANCH  19  21
HETATM   21  C2  UNL     1      26.855  -0.978  52.927  1.00  0.00    -0.044 C 
HETATM   22  C1  UNL     1      27.484  -2.005  52.895  1.00  0.00     0.009 C 
BRANCH  22  23
HETATM   23  N1  UNL     1      28.200  -3.212  52.854  1.00  0.00    -0.359 N 
HETATM   24  H1  UNL     1      28.812  -3.458  53.672  1.00  0.00     0.166 HD
HETATM   25  H2  UNL     1      28.112  -3.830  52.020  1.00  0.00     0.166 HD
ENDBRANCH  22  23
ENDBRANCH  19  21
ENDBRANCH   1  15
BRANCH   7  26
HETATM   26  O1  UNL     1      18.212  -0.339  51.287  1.00  0.00    -0.343 OA
BRANCH  26  27
HETATM   27  C13 UNL     1      17.123   0.208  51.960  1.00  0.00     0.133 C 
HETATM   28  C14 UNL     1      16.177   0.940  51.003  1.00  0.00     0.058 C 
HETATM   29  C15 UNL     1      15.149   1.671  51.839  1.00  0.00     0.170 C 
HETATM   30  O2  UNL     1      14.775   0.897  52.934  1.00  0.00    -0.391 OA
HETATM   31  C16 UNL     1      14.844  -0.462  52.631  1.00  0.00     0.170 C 
HETATM   32  C17 UNL     1      16.276  -0.944  52.521  1.00  0.00     0.058 C 
ENDBRANCH  26  27
ENDBRANCH   7  26
TORSDOF 5
ENDMDL
MODEL 5
REMARK VINA RESULT:      -8.7      1.940      2.259
REMARK  5 active torsions:
REMARK  status: ('A' for Active; 'I' for Inactive)
REMARK    1  A    between atoms: N1_1  and  C1_2 
REMARK    2  A    between atoms: C2_3  and  C3_4 
REMARK    3  A    between atoms: C7_8  and  C8_9 
REMARK    4  A    between atoms: C12_15  and  O1_16 
REMARK    5  A    between atoms: O1_16  and  C13_17 
ROOT
HETATM    1  C8  UNL     1      21.990   1.355  50.726  1.00  0.00     0.084 A 
HETATM    2  N2  UNL     1      20.849   0.684  51.071  1.00  0.00    -0.240 NA
HETATM    3  C9  UNL     1      20.755  -0.092  52.163  1.00  0.00     0.234 A 
HETATM    4  N3  UNL     1      21.826  -0.228  52.971  1.00  0.00    -0.241 NA
HETATM    5  C10 UNL     1      22.976   0.398  52.701  1.00  0.00     0.076 A 
HETATM    6  C11 UNL     1      24.086   0.305  53.505  1.00  0.00     0.072 A 
HETATM    7  C12 UNL     1      25.263   0.971  53.234  1.00  0.00     0.107 A 
HETATM    8  C18 UNL     1      25.277   1.762  52.079  1.00  0.00     0.136 A 
HETATM    9  C19 UNL     1      24.178   1.864  51.266  1.00  0.00     0.119 A 
HETATM   10  C20 UNL     1      23.047   1.181  51.587  1.00  0.00     0.059 A 
HETATM   11  O3  UNL     1      24.275   2.671  50.154  1.00  0.00    -0.345 OA
HETATM   12  C21 UNL     1      25.350   3.542  50.001  1.00  0.00     0.202 C 
HETATM   13  C22 UNL     1      26.639   2.824  50.416  1.00  0.00     0.202 C 
HETATM   14  O4  UNL     1      26.474   2.445  51.793  1.00  0.00    -0.344 OA
ENDROOT
BRANCH   1  15
HETATM   15  C7  UNL     1      21.842   2.120  49.505  1.00  0.00    -0.005 A 
HETATM   16  C6  UNL     1      22.241   1.972  48.194  1.00  0.00     0.014 A 
HETATM   17  C5  UNL     1      22.005   2.900  47.214  1.00  0.00     0.002 A 
HETATM   18  C4  UNL     1      21.334   4.070  47.493  1.00  0.00     0.021 A 
HETATM   19  C3  UNL     1      20.908   4.275  48.787  1.00  0.00     0.020 A 
HETATM   20  C23 UNL     1      21.161   3.323  49.750  1.00  0.00     0.034 A 
BRANCH  19  21
HETATM   21  C2  UNL     1      20.214   5.505  49.029  1.00  0.00    -0.044 C 
HETATM   22  C1  UNL     1      19.622   6.538  49.213  1.00  0.00     0.009 C 
BRANCH  22  23
HETATM   23  N1  UNL     1      18.918   7.732  49.440  1.00  0.00    -0.359 N 
HETATM   24  H1  UNL     1      19.389   8.490  49.994  1.00  0.00     0.166 HD
HETATM   25  H2  UNL     1      17.955   7.837  49.058  1.00  0.00     0.166 HD
ENDBRANCH  22  23
ENDBRANCH  19  21
ENDBRANCH   1  15
BRANCH   7  26
HETATM   26  O1  UNL     1      26.408   0.910  54.009  1.00  0.00    -0.343 OA
BRANCH  26  27
HETATM   27  C13 UNL     1      27.305  -0.153  54.063  1.00  0.00     0.133 C 
HETATM   28  C14 UNL     1      27.333  -0.936  52.746  1.00  0.00     0.058 C 
HETATM   29  C15 UNL     1      28.167  -2.180  52.965  1.00  0.00     0.170 C 
HETATM   30  O2  UNL     1      29.261  -1.892  53.776  1.00  0.00    -0.391 OA
HETATM   31  C16 UNL     1      29.690  -0.579  53.588  1.00  0.00     0.170 C 
HETATM   32  C17 UNL     1      28.724   0.420  54.192  1.00  0.00     0.058 C 
ENDBRANCH  26  27
ENDBRANCH   7  26
TORSDOF 5
ENDMDL
MODEL 6
REMARK VINA RESULT:      -8.3      2.489      4.006
REMARK  5 active torsions:
REMARK  status: ('A' for Active; 'I' for Inactive)
REMARK    1  A    between atoms: N1_1  and  C1_2 
REMARK    2  A    between atoms: C2_3  and  C3_4 
REMARK    3  A    between atoms: C7_8  and  C8_9 
REMARK    4  A    between atoms: C12_15  and  O1_16 
REMARK    5  A    between atoms: O1_16  and  C13_17 
ROOT
HETATM    1  C8  UNL     1      21.008   4.044  51.038  1.00  0.00     0.084 A 
HETATM    2  N2  UNL     1      21.358   5.342  50.785  1.00  0.00    -0.240 NA
HETATM    3  C9  UNL     1      22.527   5.876  51.173  1.00  0.00     0.234 A 
HETATM    4  N3  UNL     1      23.412   5.112  51.845  1.00  0.00    -0.241 NA
HETATM    5  C10 UNL     1      23.142   3.834  52.129  1.00  0.00     0.076 A 
HETATM    6  C11 UNL     1      24.020   3.013  52.794  1.00  0.00     0.072 A 
HETATM    7  C12 UNL     1      23.747   1.689  53.064  1.00  0.00     0.107 A 
HETATM    8  C18 UNL     1      22.508   1.209  52.622  1.00  0.00     0.136 A 
HETATM    9  C19 UNL     1      21.620   2.015  51.958  1.00  0.00     0.119 A 
HETATM   10  C20 UNL     1      21.948   3.313  51.723  1.00  0.00     0.059 A 
HETATM   11  O3  UNL     1      20.427   1.459  51.552  1.00  0.00    -0.345 OA
HETATM   12  C21 UNL     1      20.240   0.080  51.586  1.00  0.00     0.202 C 
HETATM   13  C22 UNL     1      20.819  -0.472  52.893  1.00  0.00     0.202 C 
HETATM   14  O4  UNL     1      22.218  -0.143  52.894  1.00  0.00    -0.344 OA
ENDROOT
BRANCH   1  15
HETATM   15  C7  UNL     1      19.697   3.707  50.523  1.00  0.00    -0.005 A 
HETATM   16  C6  UNL     1      19.198   3.233  49.329  1.00  0.00     0.014 A 
HETATM   17  C5  UNL     1      17.864   3.041  49.081  1.00  0.00     0.002 A 
HETATM   18  C4  UNL     1      16.917   3.319  50.042  1.00  0.00     0.021 A 
HETATM   19  C3  UNL     1      17.355   3.795  51.259  1.00  0.00     0.020 A 
HETATM   20  C23 UNL     1      18.702   3.977  51.477  1.00  0.00     0.034 A 
BRANCH  19  21
HETATM   21  C2  UNL     1      16.334   4.069  52.226  1.00  0.00    -0.044 C 
HETATM   22  C1  UNL     1      15.471   4.278  53.041  1.00  0.00     0.009 C 
BRANCH  22  23
HETATM   23  N1  UNL     1      14.480   4.525  54.004  1.00  0.00    -0.359 N 
HETATM   24  H1  UNL     1      13.549   4.052  53.894  1.00  0.00     0.166 HD
HETATM   25  H2  UNL     1      14.688   5.167  54.797  1.00  0.00     0.166 HD
ENDBRANCH  22  23
ENDBRANCH  19  21
ENDBRANCH   1  15
BRANCH   7  26
HETATM   26  O1  UNL     1      24.594   0.821  53.730  1.00  0.00    -0.343 OA
BRANCH  26  27
HETATM   27  C13 UNL     1      25.971   0.722  53.550  1.00  0.00     0.133 C 
HETATM   28  C14 UNL     1      26.679   0.285  54.836  1.00  0.00     0.058 C 
HETATM   29  C15 UNL     1      28.170   0.406  54.607  1.00  0.00     0.170 C 
HETATM   30  O2  UNL     1      28.495   0.009  53.313  1.00  0.00    -0.391 OA
HETATM   31  C16 UNL     1      27.622  -0.979  52.860  1.00  0.00     0.170 C 
HETATM   32  C17 UNL     1      26.246  -0.420  52.561  1.00  0.00     0.058 C 
ENDBRANCH  26  27
ENDBRANCH   7  26
TORSDOF 5
ENDMDL
MODEL 7
REMARK VINA RESULT:      -8.2      2.724      8.467
REMARK  5 active torsions:
REMARK  status: ('A' for Active; 'I' for Inactive)
REMARK    1  A    between atoms: N1_1  and  C1_2 
REMARK    2  A    between atoms: C2_3  and  C3_4 
REMARK    3  A    between atoms: C7_8  and  C8_9 
REMARK    4  A    between atoms: C12_15  and  O1_16 
REMARK    5  A    between atoms: O1_16  and  C13_17 
ROOT
HETATM    1  C8  UNL     1      22.455   0.413  53.136  1.00  0.00     0.084 A 
HETATM    2  N2  UNL     1      22.182  -0.369  54.224  1.00  0.00    -0.240 NA
HETATM    3  C9  UNL     1      20.969  -0.888  54.469  1.00  0.00     0.234 A 
HETATM    4  N3  UNL     1      19.957  -0.639  53.614  1.00  0.00    -0.241 NA
HETATM    5  C10 UNL     1      20.146   0.116  52.527  1.00  0.00     0.076 A 
HETATM    6  C11 UNL     1      19.151   0.382  51.617  1.00  0.00     0.072 A 
HETATM    7  C12 UNL     1      19.356   1.143  50.485  1.00  0.00     0.107 A 
HETATM    8  C18 UNL     1      20.651   1.643  50.301  1.00  0.00     0.136 A 
HETATM    9  C19 UNL     1      21.654   1.388  51.200  1.00  0.00     0.119 A 
HETATM   10  C20 UNL     1      21.388   0.632  52.297  1.00  0.00     0.059 A 
HETATM   11  O3  UNL     1      22.900   1.913  50.937  1.00  0.00    -0.345 OA
HETATM   12  C21 UNL     1      23.191   2.460  49.690  1.00  0.00     0.202 C 
HETATM   13  C22 UNL     1      22.001   3.307  49.225  1.00  0.00     0.202 C 
HETATM   14  O4  UNL     1      20.871   2.422  49.149  1.00  0.00    -0.344 OA
ENDROOT
BRANCH   1  15
HETATM   15  C7  UNL     1      23.833   0.856  53.094  1.00  0.00    -0.005 A 
HETATM   16  C6  UNL     1      24.477   2.072  53.027  1.00  0.00     0.014 A 
HETATM   17  C5  UNL     1      25.838   2.213  52.947  1.00  0.00     0.002 A 
HETATM   18  C4  UNL     1      26.664   1.112  52.929  1.00  0.00     0.021 A 
HETATM   19  C3  UNL     1      26.079  -0.134  52.995  1.00  0.00     0.020 A 
HETATM   20  C23 UNL     1      24.709  -0.242  53.074  1.00  0.00     0.034 A 
BRANCH  19  21
HETATM   21  C2  UNL     1      26.979  -1.248  52.974  1.00  0.00    -0.044 C 
HETATM   22  C1  UNL     1      27.736  -2.186  52.978  1.00  0.00     0.009 C 
BRANCH  22  23
HETATM   23  N1  UNL     1      28.602  -3.291  52.977  1.00  0.00    -0.359 N 
HETATM   24  H1  UNL     1      29.583  -3.156  53.329  1.00  0.00     0.166 HD
HETATM   25  H2  UNL     1      28.258  -4.209  52.630  1.00  0.00     0.166 HD
ENDBRANCH  22  23
ENDBRANCH  19  21
ENDBRANCH   1  15
BRANCH   7  26
HETATM   26  O1  UNL     1      18.391   1.440  49.541  1.00  0.00    -0.343 OA
BRANCH  26  27
HETATM   27  C13 UNL     1      17.261   2.227  49.744  1.00  0.00     0.133 C 
HETATM   28  C14 UNL     1      17.578   3.459  50.599  1.00  0.00     0.058 C 
HETATM   29  C15 UNL     1      16.267   4.135  50.940  1.00  0.00     0.170 C 
HETATM   30  O2  UNL     1      15.401   4.089  49.850  1.00  0.00    -0.391 OA
HETATM   31  C16 UNL     1      16.109   4.117  48.649  1.00  0.00     0.170 C 
HETATM   32  C17 UNL     1      16.829   2.809  48.390  1.00  0.00     0.058 C 
ENDBRANCH  26  27
ENDBRANCH   7  26
TORSDOF 5
ENDMDL
MODEL 8
REMARK VINA RESULT:      -8.1      3.644      5.060
REMARK  5 active torsions:
REMARK  status: ('A' for Active; 'I' for Inactive)
REMARK    1  A    between atoms: N1_1  and  C1_2 
REMARK    2  A    between atoms: C2_3  and  C3_4 
REMARK    3  A    between atoms: C7_8  and  C8_9 
REMARK    4  A    between atoms: C12_15  and  O1_16 
REMARK    5  A    between atoms: O1_16  and  C13_17 
ROOT
HETATM    1  C8  UNL     1      24.436   4.431  49.505  1.00  0.00     0.084 A 
HETATM    2  N2  UNL     1      25.373   5.207  48.880  1.00  0.00    -0.240 NA
HETATM    3  C9  UNL     1      26.695   5.013  49.013  1.00  0.00     0.234 A 
HETATM    4  N3  UNL     1      27.140   4.010  49.796  1.00  0.00    -0.241 NA
HETATM    5  C10 UNL     1      26.285   3.208  50.439  1.00  0.00     0.076 A 
HETATM    6  C11 UNL     1      26.692   2.162  51.232  1.00  0.00     0.072 A 
HETATM    7  C12 UNL     1      25.807   1.323  51.875  1.00  0.00     0.107 A 
HETATM    8  C18 UNL     1      24.446   1.591  51.680  1.00  0.00     0.136 A 
HETATM    9  C19 UNL     1      24.024   2.631  50.894  1.00  0.00     0.119 A 
HETATM   10  C20 UNL     1      24.947   3.424  50.288  1.00  0.00     0.059 A 
HETATM   11  O3  UNL     1      22.667   2.818  50.751  1.00  0.00    -0.345 OA
HETATM   12  C21 UNL     1      21.768   1.844  51.175  1.00  0.00     0.202 C 
HETATM   13  C22 UNL     1      22.224   1.299  52.533  1.00  0.00     0.202 C 
HETATM   14  O4  UNL     1      23.533   0.740  52.334  1.00  0.00    -0.344 OA
ENDROOT
BRANCH   1  15
HETATM   15  C7  UNL     1      23.080   4.841  49.208  1.00  0.00    -0.005 A 
HETATM   16  C6  UNL     1      22.059   5.454  49.903  1.00  0.00     0.014 A 
HETATM   17  C5  UNL     1      20.814   5.689  49.383  1.00  0.00     0.002 A 
HETATM   18  C4  UNL     1      20.502   5.316  48.094  1.00  0.00     0.021 A 
HETATM   19  C3  UNL     1      21.482   4.700  47.347  1.00  0.00     0.020 A 
HETATM   20  C23 UNL     1      22.724   4.477  47.899  1.00  0.00     0.034 A 
BRANCH  19  21
HETATM   21  C2  UNL     1      21.112   4.331  46.014  1.00  0.00    -0.044 C 
HETATM   22  C1  UNL     1      20.802   4.040  44.886  1.00  0.00     0.009 C 
BRANCH  22  23
HETATM   23  N1  UNL     1      20.460   3.694  43.569  1.00  0.00    -0.359 N 
HETATM   24  H1  UNL     1      21.116   3.076  43.029  1.00  0.00     0.166 HD
HETATM   25  H2  UNL     1      19.573   4.055  43.160  1.00  0.00     0.166 HD
ENDBRANCH  22  23
ENDBRANCH  19  21
ENDBRANCH   1  15
BRANCH   7  26
HETATM   26  O1  UNL     1      26.163   0.258  52.683  1.00  0.00    -0.343 OA
BRANCH  26  27
HETATM   27  C13 UNL     1      27.384  -0.411  52.664  1.00  0.00     0.133 C 
HETATM   28  C14 UNL     1      28.112  -0.296  54.007  1.00  0.00     0.058 C 
HETATM   29  C15 UNL     1      29.502  -0.867  53.830  1.00  0.00     0.170 C 
HETATM   30  O2  UNL     1      29.464  -1.990  53.008  1.00  0.00    -0.391 OA
HETATM   31  C16 UNL     1      28.255  -2.670  53.149  1.00  0.00     0.170 C 
HETATM   32  C17 UNL     1      27.106  -1.914  52.513  1.00  0.00     0.058 C 
ENDBRANCH  26  27
ENDBRANCH   7  26
TORSDOF 5
ENDMDL
MODEL 9
REMARK VINA RESULT:      -7.9      5.010      6.670
REMARK  5 active torsions:
REMARK  status: ('A' for Active; 'I' for Inactive)
REMARK    1  A    between atoms: N1_1  and  C1_2 
REMARK    2  A    between atoms: C2_3  and  C3_4 
REMARK    3  A    between atoms: C7_8  and  C8_9 
REMARK    4  A    between atoms: C12_15  and  O1_16 
REMARK    5  A    between atoms: O1_16  and  C13_17 
ROOT
HETATM    1  C8  UNL     1      25.521   6.165  48.866  1.00  0.00     0.084 A 
HETATM    2  N2  UNL     1      26.720   6.456  48.274  1.00  0.00    -0.240 NA
HETATM    3  C9  UNL     1      27.789   5.647  48.344  1.00  0.00     0.234 A 
HETATM    4  N3  UNL     1      27.697   4.488  49.026  1.00  0.00    -0.241 NA
HETATM    5  C10 UNL     1      26.559   4.133  49.630  1.00  0.00     0.076 A 
HETATM    6  C11 UNL     1      26.413   2.954  50.320  1.00  0.00     0.072 A 
HETATM    7  C12 UNL     1      25.230   2.581  50.923  1.00  0.00     0.107 A 
HETATM    8  C18 UNL     1      24.162   3.479  50.799  1.00  0.00     0.136 A 
HETATM    9  C19 UNL     1      24.292   4.660  50.115  1.00  0.00     0.119 A 
HETATM   10  C20 UNL     1      25.486   4.970  49.544  1.00  0.00     0.059 A 
HETATM   11  O3  UNL     1      23.188   5.480  50.036  1.00  0.00    -0.345 OA
HETATM   12  C21 UNL     1      21.931   5.015  50.410  1.00  0.00     0.202 C 
HETATM   13  C22 UNL     1      22.062   4.201  51.702  1.00  0.00     0.202 C 
HETATM   14  O4  UNL     1      22.949   3.109  51.412  1.00  0.00    -0.344 OA
ENDROOT
BRANCH   1  15
HETATM   15  C7  UNL     1      24.525   7.194  48.651  1.00  0.00    -0.005 A 
HETATM   16  C6  UNL     1      24.006   8.234  49.391  1.00  0.00     0.014 A 
HETATM   17  C5  UNL     1      23.001   9.055  48.953  1.00  0.00     0.002 A 
HETATM   18  C4  UNL     1      22.434   8.882  47.710  1.00  0.00     0.021 A 
HETATM   19  C3  UNL     1      22.913   7.859  46.922  1.00  0.00     0.020 A 
HETATM   20  C23 UNL     1      23.924   7.050  47.390  1.00  0.00     0.034 A 
BRANCH  19  21
HETATM   21  C2  UNL     1      22.294   7.719  45.637  1.00  0.00    -0.044 C 
HETATM   22  C1  UNL     1      21.784   7.583  44.554  1.00  0.00     0.009 C 
BRANCH  22  23
HETATM   23  N1  UNL     1      21.172   7.419  43.301  1.00  0.00    -0.359 N 
HETATM   24  H1  UNL     1      21.568   7.942  42.480  1.00  0.00     0.166 HD
HETATM   25  H2  UNL     1      20.347   6.789  43.214  1.00  0.00     0.166 HD
ENDBRANCH  22  23
ENDBRANCH  19  21
ENDBRANCH   1  15
BRANCH   7  26
HETATM   26  O1  UNL     1      25.031   1.408  51.628  1.00  0.00    -0.343 OA
BRANCH  26  27
HETATM   27  C13 UNL     1      25.879   0.883  52.600  1.00  0.00     0.133 C 
HETATM   28  C14 UNL     1      25.094   0.198  53.723  1.00  0.00     0.058 C 
HETATM   29  C15 UNL     1      26.072  -0.153  54.823  1.00  0.00     0.170 C 
HETATM   30  O2  UNL     1      27.278  -0.586  54.278  1.00  0.00    -0.391 OA
HETATM   31  C16 UNL     1      27.073  -1.229  53.058  1.00  0.00     0.170 C 
HETATM   32  C17 UNL     1      26.696  -0.251  51.964  1.00  0.00     0.058 C 
ENDBRANCH  26  27
ENDBRANCH   7  26
TORSDOF 5
ENDMDL
