MODEL 1
REMARK VINA RESULT:      -6.8      0.000      0.000
REMARK  5 active torsions:
REMARK  status: ('A' for Active; 'I' for Inactive)
REMARK    1  A    between atoms: C3_3  and  N1_4 
REMARK    2  A    between atoms: N1_4  and  C4_5 
REMARK    3  A    between atoms: C4_5  and  N2_6 
REMARK    4  A    between atoms: C5_7  and  N3_8 
REMARK    5  A    between atoms: C14_18  and  O1_19 
ROOT
HETATM    1  N1  UNL     1      26.112   3.693  49.392  1.00  0.00    -0.241 NA
ENDROOT
BRANCH   1   2
HETATM    2  C3  UNL     1      25.883   5.073  49.645  1.00  0.00     0.073 A 
HETATM    3  C2  UNL     1      26.766   6.067  49.110  1.00  0.00     0.005 A 
HETATM    4  C1  UNL     1      27.786   5.649  48.380  1.00  0.00     0.048 C 
HETATM    5  C14 UNL     1      26.573   7.483  49.343  1.00  0.00     0.083 A 
HETATM    6  C13 UNL     1      25.614   8.025  50.040  1.00  0.00     0.087 A 
HETATM    7  S1  UNL     1      24.392   6.971  50.804  1.00  0.00    -0.109 SA
HETATM    8  C12 UNL     1      24.820   5.301  50.391  1.00  0.00     0.081 A 
BRANCH   5   9
HETATM    9  O1  UNL     1      27.498   8.341  48.770  1.00  0.00    -0.355 OA
HETATM   10  C15 UNL     1      28.249   9.247  49.537  1.00  0.00     0.210 C 
ENDBRANCH   5   9
ENDBRANCH   1   2
BRANCH   1  11
HETATM   11  C4  UNL     1      26.429   2.877  50.313  1.00  0.00     0.234 C 
BRANCH  11  12
HETATM   12  N2  UNL     1      26.928   1.951  51.275  1.00  0.00    -0.237 NA
HETATM   13  C5  UNL     1      26.577   2.114  52.505  1.00  0.00     0.214 C 
BRANCH  13  14
HETATM   14  N3  UNL     1      27.342   0.975  52.891  1.00  0.00    -0.327 N 
HETATM   15  C6  UNL     1      26.773  -0.328  52.670  1.00  0.00     0.097 C 
HETATM   16  C7  UNL     1      27.364  -1.505  52.774  1.00  0.00     0.018 C 
HETATM   17  C8  UNL     1      28.738  -1.854  53.134  1.00  0.00     0.001 C 
HETATM   18  C9  UNL     1      29.666  -1.001  53.541  1.00  0.00     0.001 C 
HETATM   19  C10 UNL     1      29.598   0.461  53.739  1.00  0.00     0.018 C 
HETATM   20  C11 UNL     1      28.606   1.293  53.460  1.00  0.00     0.097 C 
ENDBRANCH  13  14
ENDBRANCH  11  12
ENDBRANCH   1  11
TORSDOF 5
ENDMDL
MODEL 2
REMARK VINA RESULT:      -6.5      1.419      1.893
REMARK  5 active torsions:
REMARK  status: ('A' for Active; 'I' for Inactive)
REMARK    1  A    between atoms: C3_3  and  N1_4 
REMARK    2  A    between atoms: N1_4  and  C4_5 
REMARK    3  A    between atoms: C4_5  and  N2_6 
REMARK    4  A    between atoms: C5_7  and  N3_8 
REMARK    5  A    between atoms: C14_18  and  O1_19 
ROOT
HETATM    1  N1  UNL     1      25.890   3.812  49.664  1.00  0.00    -0.241 NA
ENDROOT
BRANCH   1   2
HETATM    2  C3  UNL     1      26.543   5.016  49.283  1.00  0.00     0.073 A 
HETATM    3  C2  UNL     1      25.984   6.289  49.635  1.00  0.00     0.005 A 
HETATM    4  C1  UNL     1      24.852   6.291  50.320  1.00  0.00     0.048 C 
HETATM    5  C14 UNL     1      26.612   7.541  49.267  1.00  0.00     0.083 A 
HETATM    6  C13 UNL     1      27.721   7.678  48.597  1.00  0.00     0.087 A 
HETATM    7  S1  UNL     1      28.594   6.218  48.053  1.00  0.00    -0.109 SA
HETATM    8  C12 UNL     1      27.656   4.819  48.607  1.00  0.00     0.081 A 
BRANCH   5   9
HETATM    9  O1  UNL     1      25.970   8.701  49.667  1.00  0.00    -0.355 OA
HETATM   10  C15 UNL     1      25.475   9.636  48.743  1.00  0.00     0.210 C 
ENDBRANCH   5   9
ENDBRANCH   1   2
BRANCH   1  11
HETATM   11  C4  UNL     1      26.444   2.947  50.413  1.00  0.00     0.234 C 
BRANCH  11  12
HETATM   12  N2  UNL     1      26.928   1.975  51.336  1.00  0.00    -0.237 NA
HETATM   13  C5  UNL     1      26.149   1.620  52.300  1.00  0.00     0.214 C 
BRANCH  13  14
HETATM   14  N3  UNL     1      27.142   0.724  52.794  1.00  0.00    -0.327 N 
HETATM   15  C6  UNL     1      26.886  -0.688  52.695  1.00  0.00     0.097 C 
HETATM   16  C7  UNL     1      27.724  -1.687  52.911  1.00  0.00     0.018 C 
HETATM   17  C8  UNL     1      29.132  -1.681  53.306  1.00  0.00     0.001 C 
HETATM   18  C9  UNL     1      29.834  -0.606  53.634  1.00  0.00     0.001 C 
HETATM   19  C10 UNL     1      29.434   0.814  53.694  1.00  0.00     0.018 C 
HETATM   20  C11 UNL     1      28.287   1.371  53.335  1.00  0.00     0.097 C 
ENDBRANCH  13  14
ENDBRANCH  11  12
ENDBRANCH   1  11
TORSDOF 5
ENDMDL
MODEL 3
REMARK VINA RESULT:      -6.4      4.988      5.922
REMARK  5 active torsions:
REMARK  status: ('A' for Active; 'I' for Inactive)
REMARK    1  A    between atoms: C3_3  and  N1_4 
REMARK    2  A    between atoms: N1_4  and  C4_5 
REMARK    3  A    between atoms: C4_5  and  N2_6 
REMARK    4  A    between atoms: C5_7  and  N3_8 
REMARK    5  A    between atoms: C14_18  and  O1_19 
ROOT
HETATM    1  N1  UNL     1      22.564   0.169  53.264  1.00  0.00    -0.241 NA
ENDROOT
BRANCH   1   2
HETATM    2  C3  UNL     1      22.081   1.420  52.793  1.00  0.00     0.073 A 
HETATM    3  C2  UNL     1      20.673   1.651  52.656  1.00  0.00     0.005 A 
HETATM    4  C1  UNL     1      19.857   0.662  52.984  1.00  0.00     0.048 C 
HETATM    5  C14 UNL     1      20.135   2.908  52.180  1.00  0.00     0.083 A 
HETATM    6  C13 UNL     1      20.825   3.956  51.826  1.00  0.00     0.087 A 
HETATM    7  S1  UNL     1      22.606   3.894  51.916  1.00  0.00    -0.109 SA
HETATM    8  C12 UNL     1      23.038   2.283  52.516  1.00  0.00     0.081 A 
BRANCH   5   9
HETATM    9  O1  UNL     1      18.755   3.003  52.093  1.00  0.00    -0.355 OA
HETATM   10  C15 UNL     1      18.123   3.849  51.167  1.00  0.00     0.210 C 
ENDBRANCH   5   9
ENDBRANCH   1   2
BRANCH   1  11
HETATM   11  C4  UNL     1      23.805  -0.087  53.360  1.00  0.00     0.234 C 
BRANCH  11  12
HETATM   12  N2  UNL     1      25.203  -0.362  53.308  1.00  0.00    -0.237 NA
HETATM   13  C5  UNL     1      25.874   0.113  52.314  1.00  0.00     0.214 C 
BRANCH  13  14
HETATM   14  N3  UNL     1      27.071  -0.470  52.822  1.00  0.00    -0.327 N 
HETATM   15  C6  UNL     1      27.232  -1.894  52.704  1.00  0.00     0.097 C 
HETATM   16  C7  UNL     1      28.316  -2.615  52.930  1.00  0.00     0.018 C 
HETATM   17  C8  UNL     1      29.656  -2.214  53.357  1.00  0.00     0.001 C 
HETATM   18  C9  UNL     1      30.015  -0.989  53.711  1.00  0.00     0.001 C 
HETATM   19  C10 UNL     1      29.224   0.257  53.775  1.00  0.00     0.018 C 
HETATM   20  C11 UNL     1      27.973   0.469  53.395  1.00  0.00     0.097 C 
ENDBRANCH  13  14
ENDBRANCH  11  12
ENDBRANCH   1  11
TORSDOF 5
ENDMDL
MODEL 4
REMARK VINA RESULT:      -6.3      5.859      7.334
REMARK  5 active torsions:
REMARK  status: ('A' for Active; 'I' for Inactive)
REMARK    1  A    between atoms: C3_3  and  N1_4 
REMARK    2  A    between atoms: N1_4  and  C4_5 
REMARK    3  A    between atoms: C4_5  and  N2_6 
REMARK    4  A    between atoms: C5_7  and  N3_8 
REMARK    5  A    between atoms: C14_18  and  O1_19 
ROOT
HETATM    1  N1  UNL     1      22.700   1.852  52.888  1.00  0.00    -0.241 NA
ENDROOT
BRANCH   1   2
HETATM    2  C3  UNL     1      21.512   1.323  52.314  1.00  0.00     0.073 A 
HETATM    3  C2  UNL     1      20.593   0.566  53.113  1.00  0.00     0.005 A 
HETATM    4  C1  UNL     1      20.897   0.386  54.387  1.00  0.00     0.048 C 
HETATM    5  C14 UNL     1      19.372   0.008  52.572  1.00  0.00     0.083 A 
HETATM    6  C13 UNL     1      18.957   0.111  51.340  1.00  0.00     0.087 A 
HETATM    7  S1  UNL     1      19.949   1.016  50.163  1.00  0.00    -0.109 SA
HETATM    8  C12 UNL     1      21.377   1.603  51.033  1.00  0.00     0.081 A 
BRANCH   5   9
HETATM    9  O1  UNL     1      18.570  -0.705  53.449  1.00  0.00    -0.355 OA
HETATM   10  C15 UNL     1      17.292  -1.161  53.087  1.00  0.00     0.210 C 
ENDBRANCH   5   9
ENDBRANCH   1   2
BRANCH   1  11
HETATM   11  C4  UNL     1      23.771   1.174  52.977  1.00  0.00     0.234 C 
BRANCH  11  12
HETATM   12  N2  UNL     1      25.027   0.528  53.175  1.00  0.00    -0.237 NA
HETATM   13  C5  UNL     1      25.046  -0.544  53.890  1.00  0.00     0.214 C 
BRANCH  13  14
HETATM   14  N3  UNL     1      26.455  -0.661  53.705  1.00  0.00    -0.327 N 
HETATM   15  C6  UNL     1      27.305   0.295  54.363  1.00  0.00     0.097 C 
HETATM   16  C7  UNL     1      28.620   0.270  54.485  1.00  0.00     0.018 C 
HETATM   17  C8  UNL     1      29.604  -0.701  54.009  1.00  0.00     0.001 C 
HETATM   18  C9  UNL     1      29.341  -1.745  53.236  1.00  0.00     0.001 C 
HETATM   19  C10 UNL     1      28.063  -2.211  52.663  1.00  0.00     0.018 C 
HETATM   20  C11 UNL     1      26.840  -1.745  52.867  1.00  0.00     0.097 C 
ENDBRANCH  13  14
ENDBRANCH  11  12
ENDBRANCH   1  11
TORSDOF 5
ENDMDL
MODEL 5
REMARK VINA RESULT:      -6.1      1.709      2.196
REMARK  5 active torsions:
REMARK  status: ('A' for Active; 'I' for Inactive)
REMARK    1  A    between atoms: C3_3  and  N1_4 
REMARK    2  A    between atoms: N1_4  and  C4_5 
REMARK    3  A    between atoms: C4_5  and  N2_6 
REMARK    4  A    between atoms: C5_7  and  N3_8 
REMARK    5  A    between atoms: C14_18  and  O1_19 
ROOT
HETATM    1  N1  UNL     1      26.224   3.852  49.698  1.00  0.00    -0.241 NA
ENDROOT
BRANCH   1   2
HETATM    2  C3  UNL     1      24.943   4.469  49.689  1.00  0.00     0.073 A 
HETATM    3  C2  UNL     1      24.772   5.781  49.140  1.00  0.00     0.005 A 
HETATM    4  C1  UNL     1      25.843   6.382  48.648  1.00  0.00     0.048 C 
HETATM    5  C14 UNL     1      23.487   6.449  49.110  1.00  0.00     0.083 A 
HETATM    6  C13 UNL     1      22.361   5.971  49.560  1.00  0.00     0.087 A 
HETATM    7  S1  UNL     1      22.338   4.343  50.291  1.00  0.00    -0.109 SA
HETATM    8  C12 UNL     1      23.996   3.722  50.221  1.00  0.00     0.081 A 
BRANCH   5   9
HETATM    9  O1  UNL     1      23.456   7.717  48.552  1.00  0.00    -0.355 OA
HETATM   10  C15 UNL     1      22.873   8.809  49.215  1.00  0.00     0.210 C 
ENDBRANCH   5   9
ENDBRANCH   1   2
BRANCH   1  11
HETATM   11  C4  UNL     1      26.516   2.905  50.494  1.00  0.00     0.234 C 
BRANCH  11  12
HETATM   12  N2  UNL     1      26.985   1.915  51.406  1.00  0.00    -0.237 NA
HETATM   13  C5  UNL     1      26.640   2.027  52.644  1.00  0.00     0.214 C 
BRANCH  13  14
HETATM   14  N3  UNL     1      27.367   0.844  52.970  1.00  0.00    -0.327 N 
HETATM   15  C6  UNL     1      26.732  -0.425  52.736  1.00  0.00     0.097 C 
HETATM   16  C7  UNL     1      27.272  -1.630  52.785  1.00  0.00     0.018 C 
HETATM   17  C8  UNL     1      28.641  -2.049  53.083  1.00  0.00     0.001 C 
HETATM   18  C9  UNL     1      29.621  -1.250  53.476  1.00  0.00     0.001 C 
HETATM   19  C10 UNL     1      29.627   0.207  53.716  1.00  0.00     0.018 C 
HETATM   20  C11 UNL     1      28.665   1.090  53.498  1.00  0.00     0.097 C 
ENDBRANCH  13  14
ENDBRANCH  11  12
ENDBRANCH   1  11
TORSDOF 5
ENDMDL
MODEL 6
REMARK VINA RESULT:      -6.0      3.134      4.027
REMARK  5 active torsions:
REMARK  status: ('A' for Active; 'I' for Inactive)
REMARK    1  A    between atoms: C3_3  and  N1_4 
REMARK    2  A    between atoms: N1_4  and  C4_5 
REMARK    3  A    between atoms: C4_5  and  N2_6 
REMARK    4  A    between atoms: C5_7  and  N3_8 
REMARK    5  A    between atoms: C14_18  and  O1_19 
ROOT
HETATM    1  N1  UNL     1      25.305   3.492  49.712  1.00  0.00    -0.241 NA
ENDROOT
BRANCH   1   2
HETATM    2  C3  UNL     1      25.403   4.910  49.756  1.00  0.00     0.073 A 
HETATM    3  C2  UNL     1      26.548   5.577  49.210  1.00  0.00     0.005 A 
HETATM    4  C1  UNL     1      27.493   4.826  48.672  1.00  0.00     0.048 C 
HETATM    5  C14 UNL     1      26.691   7.018  49.234  1.00  0.00     0.083 A 
HETATM    6  C13 UNL     1      25.838   7.868  49.733  1.00  0.00     0.087 A 
HETATM    7  S1  UNL     1      24.331   7.257  50.469  1.00  0.00    -0.109 SA
HETATM    8  C12 UNL     1      24.368   5.490  50.330  1.00  0.00     0.081 A 
BRANCH   5   9
HETATM    9  O1  UNL     1      27.846   7.539  48.674  1.00  0.00    -0.355 OA
HETATM   10  C15 UNL     1      28.371   8.781  49.068  1.00  0.00     0.210 C 
ENDBRANCH   5   9
ENDBRANCH   1   2
BRANCH   1  11
HETATM   11  C4  UNL     1      24.553   2.838  50.500  1.00  0.00     0.234 C 
BRANCH  11  12
HETATM   12  N2  UNL     1      23.843   2.049  51.452  1.00  0.00    -0.237 NA
HETATM   13  C5  UNL     1      23.147   2.665  52.345  1.00  0.00     0.214 C 
BRANCH  13  14
HETATM   14  N3  UNL     1      22.742   1.422  52.912  1.00  0.00    -0.327 N 
HETATM   15  C6  UNL     1      23.768   0.491  53.300  1.00  0.00     0.097 C 
HETATM   16  C7  UNL     1      23.638  -0.621  54.002  1.00  0.00     0.018 C 
HETATM   17  C8  UNL     1      22.454  -1.243  54.592  1.00  0.00     0.001 C 
HETATM   18  C9  UNL     1      21.207  -0.826  54.432  1.00  0.00     0.001 C 
HETATM   19  C10 UNL     1      20.673   0.316  53.664  1.00  0.00     0.018 C 
HETATM   20  C11 UNL     1      21.332   1.267  53.020  1.00  0.00     0.097 C 
ENDBRANCH  13  14
ENDBRANCH  11  12
ENDBRANCH   1  11
TORSDOF 5
ENDMDL
MODEL 7
REMARK VINA RESULT:      -6.0      3.427      4.134
REMARK  5 active torsions:
REMARK  status: ('A' for Active; 'I' for Inactive)
REMARK    1  A    between atoms: C3_3  and  N1_4 
REMARK    2  A    between atoms: N1_4  and  C4_5 
REMARK    3  A    between atoms: C4_5  and  N2_6 
REMARK    4  A    between atoms: C5_7  and  N3_8 
REMARK    5  A    between atoms: C14_18  and  O1_19 
ROOT
HETATM    1  N1  UNL     1      23.201   1.721  51.485  1.00  0.00    -0.241 NA
ENDROOT
BRANCH   1   2
HETATM    2  C3  UNL     1      23.224   2.755  50.510  1.00  0.00     0.073 A 
HETATM    3  C2  UNL     1      22.410   2.663  49.334  1.00  0.00     0.005 A 
HETATM    4  C1  UNL     1      21.649   1.589  49.200  1.00  0.00     0.048 C 
HETATM    5  C14 UNL     1      22.402   3.690  48.313  1.00  0.00     0.083 A 
HETATM    6  C13 UNL     1      23.101   4.791  48.323  1.00  0.00     0.087 A 
HETATM    7  S1  UNL     1      24.190   5.116  49.699  1.00  0.00    -0.109 SA
HETATM    8  C12 UNL     1      24.041   3.744  50.812  1.00  0.00     0.081 A 
BRANCH   5   9
HETATM    9  O1  UNL     1      21.572   3.481  47.224  1.00  0.00    -0.355 OA
HETATM   10  C15 UNL     1      22.051   3.513  45.904  1.00  0.00     0.210 C 
ENDBRANCH   5   9
ENDBRANCH   1   2
BRANCH   1  11
HETATM   11  C4  UNL     1      24.264   1.197  51.945  1.00  0.00     0.234 C 
BRANCH  11  12
HETATM   12  N2  UNL     1      25.493   0.573  52.309  1.00  0.00    -0.237 NA
HETATM   13  C5  UNL     1      26.567   1.285  52.258  1.00  0.00     0.214 C 
BRANCH  13  14
HETATM   14  N3  UNL     1      27.344   0.173  52.698  1.00  0.00    -0.327 N 
HETATM   15  C6  UNL     1      26.816  -1.148  52.481  1.00  0.00     0.097 C 
HETATM   16  C7  UNL     1      27.431  -2.307  52.632  1.00  0.00     0.018 C 
HETATM   17  C8  UNL     1      28.797  -2.614  53.054  1.00  0.00     0.001 C 
HETATM   18  C9  UNL     1      29.687  -1.730  53.480  1.00  0.00     0.001 C 
HETATM   19  C10 UNL     1      29.575  -0.267  53.646  1.00  0.00     0.018 C 
HETATM   20  C11 UNL     1      28.576   0.535  53.311  1.00  0.00     0.097 C 
ENDBRANCH  13  14
ENDBRANCH  11  12
ENDBRANCH   1  11
TORSDOF 5
ENDMDL
MODEL 8
REMARK VINA RESULT:      -6.0      2.508      3.499
REMARK  5 active torsions:
REMARK  status: ('A' for Active; 'I' for Inactive)
REMARK    1  A    between atoms: C3_3  and  N1_4 
REMARK    2  A    between atoms: N1_4  and  C4_5 
REMARK    3  A    between atoms: C4_5  and  N2_6 
REMARK    4  A    between atoms: C5_7  and  N3_8 
REMARK    5  A    between atoms: C14_18  and  O1_19 
ROOT
HETATM    1  N1  UNL     1      27.258   3.947  49.360  1.00  0.00    -0.241 NA
ENDROOT
BRANCH   1   2
HETATM    2  C3  UNL     1      26.924   5.222  48.827  1.00  0.00     0.073 A 
HETATM    3  C2  UNL     1      27.929   6.040  48.215  1.00  0.00     0.005 A 
HETATM    4  C1  UNL     1      29.162   5.561  48.169  1.00  0.00     0.048 C 
HETATM    5  C14 UNL     1      27.637   7.345  47.660  1.00  0.00     0.083 A 
HETATM    6  C13 UNL     1      26.472   7.930  47.641  1.00  0.00     0.087 A 
HETATM    7  S1  UNL     1      25.067   7.090  48.353  1.00  0.00    -0.109 SA
HETATM    8  C12 UNL     1      25.650   5.531  48.963  1.00  0.00     0.081 A 
BRANCH   5   9
HETATM    9  O1  UNL     1      28.697   8.036  47.097  1.00  0.00    -0.355 OA
HETATM   10  C15 UNL     1      28.690   8.447  45.754  1.00  0.00     0.210 C 
ENDBRANCH   5   9
ENDBRANCH   1   2
BRANCH   1  11
HETATM   11  C4  UNL     1      26.426   3.247  50.019  1.00  0.00     0.234 C 
BRANCH  11  12
HETATM   12  N2  UNL     1      25.616   2.420  50.850  1.00  0.00    -0.237 NA
HETATM   13  C5  UNL     1      26.211   1.661  51.706  1.00  0.00     0.214 C 
BRANCH  13  14
HETATM   14  N3  UNL     1      24.956   1.158  52.157  1.00  0.00    -0.327 N 
HETATM   15  C6  UNL     1      23.769   1.583  51.464  1.00  0.00     0.097 C 
HETATM   16  C7  UNL     1      22.541   1.112  51.584  1.00  0.00     0.018 C 
HETATM   17  C8  UNL     1      22.007   0.045  52.429  1.00  0.00     0.001 C 
HETATM   18  C9  UNL     1      22.687  -0.615  53.354  1.00  0.00     0.001 C 
HETATM   19  C10 UNL     1      24.094  -0.481  53.782  1.00  0.00     0.018 C 
HETATM   20  C11 UNL     1      25.052   0.275  53.268  1.00  0.00     0.097 C 
ENDBRANCH  13  14
ENDBRANCH  11  12
ENDBRANCH   1  11
TORSDOF 5
ENDMDL
MODEL 9
REMARK VINA RESULT:      -5.9      2.946      3.456
REMARK  5 active torsions:
REMARK  status: ('A' for Active; 'I' for Inactive)
REMARK    1  A    between atoms: C3_3  and  N1_4 
REMARK    2  A    between atoms: N1_4  and  C4_5 
REMARK    3  A    between atoms: C4_5  and  N2_6 
REMARK    4  A    between atoms: C5_7  and  N3_8 
REMARK    5  A    between atoms: C14_18  and  O1_19 
ROOT
HETATM    1  N1  UNL     1      23.107   2.137  52.206  1.00  0.00    -0.241 NA
ENDROOT
BRANCH   1   2
HETATM    2  C3  UNL     1      23.152   3.176  51.237  1.00  0.00     0.073 A 
HETATM    3  C2  UNL     1      23.311   4.541  51.642  1.00  0.00     0.005 A 
HETATM    4  C1  UNL     1      23.412   4.786  52.938  1.00  0.00     0.048 C 
HETATM    5  C14 UNL     1      23.361   5.632  50.691  1.00  0.00     0.083 A 
HETATM    6  C13 UNL     1      23.273   5.528  49.395  1.00  0.00     0.087 A 
HETATM    7  S1  UNL     1      23.070   3.912  48.665  1.00  0.00    -0.109 SA
HETATM    8  C12 UNL     1      23.035   2.743  49.998  1.00  0.00     0.081 A 
BRANCH   5   9
HETATM    9  O1  UNL     1      23.517   6.907  51.212  1.00  0.00    -0.355 OA
HETATM   10  C15 UNL     1      23.827   8.010  50.400  1.00  0.00     0.210 C 
ENDBRANCH   5   9
ENDBRANCH   1   2
BRANCH   1  11
HETATM   11  C4  UNL     1      24.151   1.527  52.599  1.00  0.00     0.234 C 
BRANCH  11  12
HETATM   12  N2  UNL     1      25.244   0.708  53.007  1.00  0.00    -0.237 NA
HETATM   13  C5  UNL     1      24.978  -0.355  53.687  1.00  0.00     0.214 C 
BRANCH  13  14
HETATM   14  N3  UNL     1      26.365  -0.675  53.760  1.00  0.00    -0.327 N 
HETATM   15  C6  UNL     1      26.849  -1.772  52.965  1.00  0.00     0.097 C 
HETATM   16  C7  UNL     1      28.101  -2.123  52.735  1.00  0.00     0.018 C 
HETATM   17  C8  UNL     1      29.357  -1.533  53.196  1.00  0.00     0.001 C 
HETATM   18  C9  UNL     1      29.465  -0.536  54.062  1.00  0.00     0.001 C 
HETATM   19  C10 UNL     1      28.422   0.229  54.773  1.00  0.00     0.018 C 
HETATM   20  C11 UNL     1      27.106   0.164  54.639  1.00  0.00     0.097 C 
ENDBRANCH  13  14
ENDBRANCH  11  12
ENDBRANCH   1  11
TORSDOF 5
ENDMDL
