MODEL 1
REMARK VINA RESULT:      -7.8      0.000      0.000
REMARK  3 active torsions:
REMARK  status: ('A' for Active; 'I' for Inactive)
REMARK    1  A    between atoms: O1_2  and  C2_3 
REMARK    2  A    between atoms: C7_9  and  N2_10 
REMARK    3  A    between atoms: N2_10  and  C8_11 
ROOT
HETATM    1  C2  UNL     1      24.188  -0.417  53.624  1.00  0.00     0.079 C 
HETATM    2  C3  UNL     1      25.394  -0.887  53.357  1.00  0.00     0.008 C 
HETATM    3  C4  UNL     1      26.135  -0.091  52.643  1.00  0.00     0.013 C 
HETATM    4  C5  UNL     1      26.795   1.054  51.977  1.00  0.00     0.166 C 
HETATM    5  C6  UNL     1      27.518   1.873  52.979  1.00  0.00     0.074 C 
HETATM    6  N1  UNL     1      28.085   2.511  53.783  1.00  0.00    -0.196 NA
HETATM    7  C7  UNL     1      25.804   1.924  51.283  1.00  0.00     0.031 C 
HETATM    8  C14 UNL     1      24.501   2.121  51.396  1.00  0.00     0.027 C 
HETATM    9  C15 UNL     1      23.423   1.598  52.229  1.00  0.00     0.005 C 
HETATM   10  C16 UNL     1      23.270   0.613  53.105  1.00  0.00     0.037 C 
ENDROOT
BRANCH   7  11
HETATM   11  N2  UNL     1      26.334   2.746  50.264  1.00  0.00    -0.357 N 
HETATM   12  H6  UNL     1      27.021   2.290  49.602  1.00  0.00     0.166 HD
BRANCH  11  13
HETATM   13  C8  UNL     1      26.212   4.109  49.824  1.00  0.00     0.044 C 
HETATM   14  C9  UNL     1      25.207   4.937  49.889  1.00  0.00    -0.001 C 
HETATM   15  C10 UNL     1      24.990   5.695  48.851  1.00  0.00    -0.007 C 
HETATM   16  C11 UNL     1      26.101   6.602  48.419  1.00  0.00     0.074 C 
HETATM   17  C12 UNL     1      27.383   5.826  48.534  1.00  0.00    -0.006 C 
HETATM   18 BR1  UNL     1      28.907   6.603  47.694  1.00  0.00    -0.055 Br
HETATM   19  C13 UNL     1      27.423   4.658  49.195  1.00  0.00     0.045 C 
ENDBRANCH  11  13
ENDBRANCH   7  11
BRANCH   1  20
HETATM   20  O1  UNL     1      23.610  -1.080  54.702  1.00  0.00    -0.355 OA
HETATM   21  C1  UNL     1      22.208  -1.088  54.886  1.00  0.00     0.210 C 
ENDBRANCH   1  20
TORSDOF 3
ENDMDL
MODEL 2
REMARK VINA RESULT:      -7.5      4.517      6.902
REMARK  3 active torsions:
REMARK  status: ('A' for Active; 'I' for Inactive)
REMARK    1  A    between atoms: O1_2  and  C2_3 
REMARK    2  A    between atoms: C7_9  and  N2_10 
REMARK    3  A    between atoms: N2_10  and  C8_11 
ROOT
HETATM    1  C2  UNL     1      26.425  -0.162  54.190  1.00  0.00     0.079 C 
HETATM    2  C3  UNL     1      26.624   0.405  53.013  1.00  0.00     0.008 C 
HETATM    3  C4  UNL     1      25.537   0.790  52.411  1.00  0.00     0.013 C 
HETATM    4  C5  UNL     1      24.184   1.260  52.039  1.00  0.00     0.166 C 
HETATM    5  C6  UNL     1      23.993   2.659  52.493  1.00  0.00     0.074 C 
HETATM    6  N1  UNL     1      23.857   3.765  52.859  1.00  0.00    -0.196 NA
HETATM    7  C7  UNL     1      23.124   0.415  52.658  1.00  0.00     0.031 C 
HETATM    8  C14 UNL     1      23.078  -0.406  53.694  1.00  0.00     0.027 C 
HETATM    9  C15 UNL     1      24.014  -0.875  54.711  1.00  0.00     0.005 C 
HETATM   10  C16 UNL     1      25.320  -0.796  54.932  1.00  0.00     0.037 C 
ENDROOT
BRANCH   7  11
HETATM   11  N2  UNL     1      21.862   0.473  52.026  1.00  0.00    -0.357 N 
HETATM   12  H6  UNL     1      21.852   0.817  51.027  1.00  0.00     0.166 HD
BRANCH  11  13
HETATM   13  C8  UNL     1      20.493   0.184  52.355  1.00  0.00     0.044 C 
HETATM   14  C9  UNL     1      19.950  -0.191  53.479  1.00  0.00    -0.001 C 
HETATM   15  C10 UNL     1      19.019  -1.102  53.418  1.00  0.00    -0.007 C 
HETATM   16  C11 UNL     1      17.812  -0.796  52.586  1.00  0.00     0.074 C 
HETATM   17  C12 UNL     1      18.292  -0.119  51.333  1.00  0.00    -0.006 C 
HETATM   18 BR1  UNL     1      17.013   0.040  49.929  1.00  0.00    -0.055 Br
HETATM   19  C13 UNL     1      19.551   0.336  51.235  1.00  0.00     0.045 C 
ENDBRANCH  11  13
ENDBRANCH   7  11
BRANCH   1  20
HETATM   20  O1  UNL     1      27.586  -0.167  54.956  1.00  0.00    -0.355 OA
HETATM   21  C1  UNL     1      28.724   0.575  54.559  1.00  0.00     0.210 C 
ENDBRANCH   1  20
TORSDOF 3
ENDMDL
MODEL 3
REMARK VINA RESULT:      -7.2      1.655      3.056
REMARK  3 active torsions:
REMARK  status: ('A' for Active; 'I' for Inactive)
REMARK    1  A    between atoms: O1_2  and  C2_3 
REMARK    2  A    between atoms: C7_9  and  N2_10 
REMARK    3  A    between atoms: N2_10  and  C8_11 
ROOT
HETATM    1  C2  UNL     1      22.904  -0.329  53.363  1.00  0.00     0.079 C 
HETATM    2  C3  UNL     1      22.018   0.641  53.221  1.00  0.00     0.008 C 
HETATM    3  C4  UNL     1      22.466   1.691  52.597  1.00  0.00     0.013 C 
HETATM    4  C5  UNL     1      23.178   2.664  51.739  1.00  0.00     0.166 C 
HETATM    5  C6  UNL     1      22.868   2.400  50.313  1.00  0.00     0.074 C 
HETATM    6  N1  UNL     1      22.615   2.178  49.189  1.00  0.00    -0.196 NA
HETATM    7  C7  UNL     1      24.653   2.576  51.925  1.00  0.00     0.031 C 
HETATM    8  C14 UNL     1      25.478   1.651  52.387  1.00  0.00     0.027 C 
HETATM    9  C15 UNL     1      25.354   0.300  52.925  1.00  0.00     0.005 C 
HETATM   10  C16 UNL     1      24.367  -0.497  53.315  1.00  0.00     0.037 C 
ENDROOT
BRANCH   7  11
HETATM   11  N2  UNL     1      25.379   3.722  51.531  1.00  0.00    -0.357 N 
HETATM   12  H6  UNL     1      25.689   4.371  52.306  1.00  0.00     0.166 HD
BRANCH  11  13
HETATM   13  C8  UNL     1      25.856   4.313  50.311  1.00  0.00     0.044 C 
HETATM   14  C9  UNL     1      26.630   3.831  49.378  1.00  0.00    -0.001 C 
HETATM   15  C10 UNL     1      27.526   4.631  48.873  1.00  0.00    -0.007 C 
HETATM   16  C11 UNL     1      27.038   5.896  48.237  1.00  0.00     0.074 C 
HETATM   17  C12 UNL     1      25.942   6.441  49.109  1.00  0.00    -0.006 C 
HETATM   18 BR1  UNL     1      25.401   8.232  48.745  1.00  0.00    -0.055 Br
HETATM   19  C13 UNL     1      25.396   5.691  50.078  1.00  0.00     0.045 C 
ENDBRANCH  11  13
ENDBRANCH   7  11
BRANCH   1  20
HETATM   20  O1  UNL     1      22.287  -1.545  53.639  1.00  0.00    -0.355 OA
HETATM   21  C1  UNL     1      21.081  -1.600  54.376  1.00  0.00     0.210 C 
ENDBRANCH   1  20
TORSDOF 3
ENDMDL
MODEL 4
REMARK VINA RESULT:      -7.2      3.818      4.914
REMARK  3 active torsions:
REMARK  status: ('A' for Active; 'I' for Inactive)
REMARK    1  A    between atoms: O1_2  and  C2_3 
REMARK    2  A    between atoms: C7_9  and  N2_10 
REMARK    3  A    between atoms: N2_10  and  C8_11 
ROOT
HETATM    1  C2  UNL     1      26.239  -0.213  54.125  1.00  0.00     0.079 C 
HETATM    2  C3  UNL     1      26.556   0.430  53.015  1.00  0.00     0.008 C 
HETATM    3  C4  UNL     1      25.539   0.916  52.366  1.00  0.00     0.013 C 
HETATM    4  C5  UNL     1      24.243   1.483  51.932  1.00  0.00     0.166 C 
HETATM    5  C6  UNL     1      24.082   2.852  52.480  1.00  0.00     0.074 C 
HETATM    6  N1  UNL     1      23.969   3.933  52.922  1.00  0.00    -0.196 NA
HETATM    7  C7  UNL     1      23.100   0.651  52.401  1.00  0.00     0.031 C 
HETATM    8  C14 UNL     1      22.934  -0.243  53.362  1.00  0.00     0.027 C 
HETATM    9  C15 UNL     1      23.764  -0.836  54.406  1.00  0.00     0.005 C 
HETATM   10  C16 UNL     1      25.051  -0.843  54.729  1.00  0.00     0.037 C 
ENDROOT
BRANCH   7  11
HETATM   11  N2  UNL     1      21.895   0.822  51.683  1.00  0.00    -0.357 N 
HETATM   12  H6  UNL     1      21.017   0.456  52.145  1.00  0.00     0.166 HD
BRANCH  11  13
HETATM   13  C8  UNL     1      21.474   1.380  50.428  1.00  0.00     0.044 C 
HETATM   14  C9  UNL     1      21.522   0.890  49.220  1.00  0.00    -0.001 C 
HETATM   15  C10 UNL     1      21.863   1.702  48.259  1.00  0.00    -0.007 C 
HETATM   16  C11 UNL     1      21.017   2.921  48.057  1.00  0.00     0.074 C 
HETATM   17  C12 UNL     1      20.676   3.460  49.418  1.00  0.00    -0.006 C 
HETATM   18 BR1  UNL     1      19.929   5.213  49.458  1.00  0.00    -0.055 Br
HETATM   19  C13 UNL     1      20.895   2.729  50.522  1.00  0.00     0.045 C 
ENDBRANCH  11  13
ENDBRANCH   7  11
BRANCH   1  20
HETATM   20  O1  UNL     1      27.335  -0.337  54.973  1.00  0.00    -0.355 OA
HETATM   21  C1  UNL     1      28.543   0.350  54.707  1.00  0.00     0.210 C 
ENDBRANCH   1  20
TORSDOF 3
ENDMDL
MODEL 5
REMARK VINA RESULT:      -7.1      4.067      7.417
REMARK  3 active torsions:
REMARK  status: ('A' for Active; 'I' for Inactive)
REMARK    1  A    between atoms: O1_2  and  C2_3 
REMARK    2  A    between atoms: C7_9  and  N2_10 
REMARK    3  A    between atoms: N2_10  and  C8_11 
ROOT
HETATM    1  C2  UNL     1      25.647   6.023  48.660  1.00  0.00     0.079 C 
HETATM    2  C3  UNL     1      24.328   6.009  48.751  1.00  0.00     0.008 C 
HETATM    3  C4  UNL     1      23.851   5.051  49.491  1.00  0.00     0.013 C 
HETATM    4  C5  UNL     1      23.602   3.990  50.492  1.00  0.00     0.166 C 
HETATM    5  C6  UNL     1      23.522   4.584  51.849  1.00  0.00     0.074 C 
HETATM    6  N1  UNL     1      23.462   5.069  52.915  1.00  0.00    -0.196 NA
HETATM    7  C7  UNL     1      24.689   2.971  50.488  1.00  0.00     0.031 C 
HETATM    8  C14 UNL     1      25.946   2.956  50.075  1.00  0.00     0.027 C 
HETATM    9  C15 UNL     1      26.860   3.900  49.441  1.00  0.00     0.005 C 
HETATM   10  C16 UNL     1      26.774   5.100  48.881  1.00  0.00     0.037 C 
ENDROOT
BRANCH   7  11
HETATM   11  N2  UNL     1      24.343   1.718  51.042  1.00  0.00    -0.357 N 
HETATM   12  H6  UNL     1      23.800   1.062  50.416  1.00  0.00     0.166 HD
BRANCH  11  13
HETATM   13  C8  UNL     1      24.519   1.019  52.285  1.00  0.00     0.044 C 
HETATM   14  C9  UNL     1      25.582   0.842  53.018  1.00  0.00    -0.001 C 
HETATM   15  C10 UNL     1      25.751  -0.335  53.552  1.00  0.00    -0.007 C 
HETATM   16  C11 UNL     1      24.671  -0.838  54.459  1.00  0.00     0.074 C 
HETATM   17  C12 UNL     1      23.354  -0.472  53.834  1.00  0.00    -0.006 C 
HETATM   18 BR1  UNL     1      21.815  -1.316  54.577  1.00  0.00    -0.055 Br
HETATM   19  C13 UNL     1      23.295   0.399  52.816  1.00  0.00     0.045 C 
ENDBRANCH  11  13
ENDBRANCH   7  11
BRANCH   1  20
HETATM   20  O1  UNL     1      26.113   7.262  48.233  1.00  0.00    -0.355 OA
HETATM   21  C1  UNL     1      27.479   7.458  47.921  1.00  0.00     0.210 C 
ENDBRANCH   1  20
TORSDOF 3
ENDMDL
MODEL 6
REMARK VINA RESULT:      -7.1      4.088      7.761
REMARK  3 active torsions:
REMARK  status: ('A' for Active; 'I' for Inactive)
REMARK    1  A    between atoms: O1_2  and  C2_3 
REMARK    2  A    between atoms: C7_9  and  N2_10 
REMARK    3  A    between atoms: N2_10  and  C8_11 
ROOT
HETATM    1  C2  UNL     1      26.826   7.761  47.634  1.00  0.00     0.079 C 
HETATM    2  C3  UNL     1      25.509   7.682  47.572  1.00  0.00     0.008 C 
HETATM    3  C4  UNL     1      25.001   6.665  48.205  1.00  0.00     0.013 C 
HETATM    4  C5  UNL     1      24.695   5.542  49.118  1.00  0.00     0.166 C 
HETATM    5  C6  UNL     1      24.431   6.058  50.483  1.00  0.00     0.074 C 
HETATM    6  N1  UNL     1      24.226   6.482  51.557  1.00  0.00    -0.196 NA
HETATM    7  C7  UNL     1      25.826   4.575  49.190  1.00  0.00     0.031 C 
HETATM    8  C14 UNL     1      27.121   4.639  48.925  1.00  0.00     0.027 C 
HETATM    9  C15 UNL     1      28.051   5.657  48.447  1.00  0.00     0.005 C 
HETATM   10  C16 UNL     1      27.968   6.880  47.939  1.00  0.00     0.037 C 
ENDROOT
BRANCH   7  11
HETATM   11  N2  UNL     1      25.485   3.280  49.639  1.00  0.00    -0.357 N 
HETATM   12  H6  UNL     1      24.983   2.659  48.945  1.00  0.00     0.166 HD
BRANCH  11  13
HETATM   13  C8  UNL     1      25.622   2.498  50.837  1.00  0.00     0.044 C 
HETATM   14  C9  UNL     1      26.686   2.114  51.484  1.00  0.00    -0.001 C 
HETATM   15  C10 UNL     1      26.693   0.899  51.956  1.00  0.00    -0.007 C 
HETATM   16  C11 UNL     1      25.605   0.530  52.918  1.00  0.00     0.074 C 
HETATM   17  C12 UNL     1      24.329   1.137  52.404  1.00  0.00    -0.006 C 
HETATM   18 BR1  UNL     1      22.723   0.515  53.221  1.00  0.00    -0.055 Br
HETATM   19  C13 UNL     1      24.349   2.058  51.429  1.00  0.00     0.045 C 
ENDBRANCH  11  13
ENDBRANCH   7  11
BRANCH   1  20
HETATM   20  O1  UNL     1      27.274   9.041  47.324  1.00  0.00    -0.355 OA
HETATM   21  C1  UNL     1      27.596   9.968  48.343  1.00  0.00     0.210 C 
ENDBRANCH   1  20
TORSDOF 3
ENDMDL
MODEL 7
REMARK VINA RESULT:      -7.1      2.050      2.443
REMARK  3 active torsions:
REMARK  status: ('A' for Active; 'I' for Inactive)
REMARK    1  A    between atoms: O1_2  and  C2_3 
REMARK    2  A    between atoms: C7_9  and  N2_10 
REMARK    3  A    between atoms: N2_10  and  C8_11 
ROOT
HETATM    1  C2  UNL     1      22.169   0.092  52.631  1.00  0.00     0.079 C 
HETATM    2  C3  UNL     1      23.362   0.430  53.088  1.00  0.00     0.008 C 
HETATM    3  C4  UNL     1      23.938   1.392  52.427  1.00  0.00     0.013 C 
HETATM    4  C5  UNL     1      24.277   2.580  51.613  1.00  0.00     0.166 C 
HETATM    5  C6  UNL     1      23.844   3.813  52.315  1.00  0.00     0.074 C 
HETATM    6  N1  UNL     1      23.495   4.778  52.882  1.00  0.00    -0.196 NA
HETATM    7  C7  UNL     1      23.609   2.537  50.282  1.00  0.00     0.031 C 
HETATM    8  C14 UNL     1      22.557   1.904  49.791  1.00  0.00     0.027 C 
HETATM    9  C15 UNL     1      21.560   0.964  50.295  1.00  0.00     0.005 C 
HETATM   10  C16 UNL     1      21.382   0.244  51.394  1.00  0.00     0.037 C 
ENDROOT
BRANCH   7  11
HETATM   11  N2  UNL     1      24.203   3.341  49.284  1.00  0.00    -0.357 N 
HETATM   12  H6  UNL     1      24.182   2.959  48.298  1.00  0.00     0.166 HD
BRANCH  11  13
HETATM   13  C8  UNL     1      24.874   4.609  49.198  1.00  0.00     0.044 C 
HETATM   14  C9  UNL     1      24.408   5.824  49.280  1.00  0.00    -0.001 C 
HETATM   15  C10 UNL     1      24.895   6.707  48.453  1.00  0.00    -0.007 C 
HETATM   16  C11 UNL     1      26.373   6.946  48.495  1.00  0.00     0.074 C 
HETATM   17  C12 UNL     1      27.038   5.608  48.651  1.00  0.00    -0.006 C 
HETATM   18 BR1  UNL     1      28.921   5.573  48.353  1.00  0.00    -0.055 Br
HETATM   19  C13 UNL     1      26.326   4.519  48.980  1.00  0.00     0.045 C 
ENDBRANCH  11  13
ENDBRANCH   7  11
BRANCH   1  20
HETATM   20  O1  UNL     1      21.440  -0.611  53.585  1.00  0.00    -0.355 OA
HETATM   21  C1  UNL     1      22.083  -1.242  54.675  1.00  0.00     0.210 C 
ENDBRANCH   1  20
TORSDOF 3
ENDMDL
MODEL 8
REMARK VINA RESULT:      -7.1      6.152      9.458
REMARK  3 active torsions:
REMARK  status: ('A' for Active; 'I' for Inactive)
REMARK    1  A    between atoms: O1_2  and  C2_3 
REMARK    2  A    between atoms: C7_9  and  N2_10 
REMARK    3  A    between atoms: N2_10  and  C8_11 
ROOT
HETATM    1  C2  UNL     1      23.484   0.049  53.116  1.00  0.00     0.079 C 
HETATM    2  C3  UNL     1      23.084   0.424  51.914  1.00  0.00     0.008 C 
HETATM    3  C4  UNL     1      21.792   0.478  51.770  1.00  0.00     0.013 C 
HETATM    4  C5  UNL     1      20.327   0.605  51.935  1.00  0.00     0.166 C 
HETATM    5  C6  UNL     1      19.979   1.999  52.303  1.00  0.00     0.074 C 
HETATM    6  N1  UNL     1      19.719   3.105  52.594  1.00  0.00    -0.196 NA
HETATM    7  C7  UNL     1      19.819  -0.303  53.001  1.00  0.00     0.031 C 
HETATM    8  C14 UNL     1      20.366  -0.920  54.035  1.00  0.00     0.027 C 
HETATM    9  C15 UNL     1      21.698  -1.010  54.625  1.00  0.00     0.005 C 
HETATM   10  C16 UNL     1      22.929  -0.644  54.293  1.00  0.00     0.037 C 
ENDROOT
BRANCH   7  11
HETATM   11  N2  UNL     1      18.440  -0.604  52.930  1.00  0.00    -0.357 N 
HETATM   12  H6  UNL     1      17.800   0.188  52.645  1.00  0.00     0.166 HD
BRANCH  11  13
HETATM   13  C8  UNL     1      17.586  -1.740  53.143  1.00  0.00     0.044 C 
HETATM   14  C9  UNL     1      17.764  -2.815  53.860  1.00  0.00    -0.001 C 
HETATM   15  C10 UNL     1      17.365  -3.946  53.350  1.00  0.00    -0.007 C 
HETATM   16  C11 UNL     1      15.917  -4.062  52.985  1.00  0.00     0.074 C 
HETATM   17  C12 UNL     1      15.509  -2.761  52.354  1.00  0.00    -0.006 C 
HETATM   18 BR1  UNL     1      13.828  -2.762  51.454  1.00  0.00    -0.055 Br
HETATM   19  C13 UNL     1      16.299  -1.679  52.434  1.00  0.00     0.045 C 
ENDBRANCH  11  13
ENDBRANCH   7  11
BRANCH   1  20
HETATM   20  O1  UNL     1      24.809   0.405  53.345  1.00  0.00    -0.355 OA
HETATM   21  C1  UNL     1      25.621  -0.341  54.231  1.00  0.00     0.210 C 
ENDBRANCH   1  20
TORSDOF 3
ENDMDL
MODEL 9
REMARK VINA RESULT:      -7.0      4.010      6.786
REMARK  3 active torsions:
REMARK  status: ('A' for Active; 'I' for Inactive)
REMARK    1  A    between atoms: O1_2  and  C2_3 
REMARK    2  A    between atoms: C7_9  and  N2_10 
REMARK    3  A    between atoms: N2_10  and  C8_11 
ROOT
HETATM    1  C2  UNL     1      22.645   4.579  47.752  1.00  0.00     0.079 C 
HETATM    2  C3  UNL     1      23.305   5.606  48.256  1.00  0.00     0.008 C 
HETATM    3  C4  UNL     1      24.121   5.299  49.223  1.00  0.00     0.013 C 
HETATM    4  C5  UNL     1      25.064   4.654  50.164  1.00  0.00     0.166 C 
HETATM    5  C6  UNL     1      26.350   4.379  49.479  1.00  0.00     0.074 C 
HETATM    6  N1  UNL     1      27.361   4.166  48.924  1.00  0.00    -0.196 NA
HETATM    7  C7  UNL     1      24.521   3.368  50.682  1.00  0.00     0.031 C 
HETATM    8  C14 UNL     1      23.598   2.515  50.269  1.00  0.00     0.027 C 
HETATM    9  C15 UNL     1      22.684   2.417  49.135  1.00  0.00     0.005 C 
HETATM   10  C16 UNL     1      22.292   3.201  48.140  1.00  0.00     0.037 C 
ENDROOT
BRANCH   7  11
HETATM   11  N2  UNL     1      25.093   2.916  51.892  1.00  0.00    -0.357 N 
HETATM   12  H6  UNL     1      25.099   3.604  52.695  1.00  0.00     0.166 HD
BRANCH  11  13
HETATM   13  C8  UNL     1      25.714   1.721  52.395  1.00  0.00     0.044 C 
HETATM   14  C9  UNL     1      26.817   1.123  52.042  1.00  0.00    -0.001 C 
HETATM   15  C10 UNL     1      26.800  -0.179  51.987  1.00  0.00    -0.007 C 
HETATM   16  C11 UNL     1      26.445  -0.915  53.242  1.00  0.00     0.074 C 
HETATM   17  C12 UNL     1      25.314  -0.169  53.894  1.00  0.00    -0.006 C 
HETATM   18 BR1  UNL     1      24.414  -1.085  55.302  1.00  0.00    -0.055 Br
HETATM   19  C13 UNL     1      24.980   1.065  53.489  1.00  0.00     0.045 C 
ENDBRANCH  11  13
ENDBRANCH   7  11
BRANCH   1  20
HETATM   20  O1  UNL     1      22.131   4.873  46.493  1.00  0.00    -0.355 OA
HETATM   21  C1  UNL     1      21.896   3.851  45.544  1.00  0.00     0.210 C 
ENDBRANCH   1  20
TORSDOF 3
ENDMDL
