MODEL 1
REMARK VINA RESULT:      -8.1      0.000      0.000
REMARK  6 active torsions:
REMARK  status: ('A' for Active; 'I' for Inactive)
REMARK       I    between atoms: N1_2  and  C3_4 
REMARK    1  A    between atoms: C3_4  and  O2_6 
REMARK    2  A    between atoms: O2_6  and  C4_7 
REMARK    3  A    between atoms: C6_10  and  C7_11 
REMARK    4  A    between atoms: C8_12  and  C9_13 
REMARK    5  A    between atoms: C13_19  and  N5_20 
REMARK    6  A    between atoms: N5_20  and  C14_21 
ROOT
HETATM    1  C9  UNL     1      24.940   3.932  49.682  1.00  0.00     0.061 A 
HETATM    2  C10 UNL     1      23.856   3.237  49.116  1.00  0.00     0.061 A 
HETATM    3  C11 UNL     1      23.218   2.352  49.934  1.00  0.00     0.081 A 
HETATM    4  N3  UNL     1      22.160   1.609  49.542  1.00  0.00    -0.241 NA
HETATM    5  C12 UNL     1      21.557   0.754  50.359  1.00  0.00     0.236 A 
HETATM    6  N4  UNL     1      21.933   0.538  51.656  1.00  0.00    -0.223 NA
HETATM    7  C13 UNL     1      22.982   1.259  52.081  1.00  0.00     0.149 A 
HETATM    8  C19 UNL     1      23.604   2.147  51.225  1.00  0.00     0.081 A 
HETATM    9  S1  UNL     1      24.994   3.243  51.452  1.00  0.00    -0.075 SA
ENDROOT
BRANCH   1  10
HETATM   10  C8  UNL     1      25.836   4.907  49.180  1.00  0.00    -0.057 C 
HETATM   11  C7  UNL     1      26.572   5.737  48.767  1.00  0.00    -0.065 C 
BRANCH  11  12
HETATM   12  C6  UNL     1      27.485   6.751  48.235  1.00  0.00     0.301 C 
HETATM   13  N2  UNL     1      28.021   7.532  49.309  1.00  0.00     0.102 N 
HETATM   14  C5  UNL     1      26.850   8.332  49.681  1.00  0.00     0.303 C 
HETATM   15  H10 UNL     1      28.398   6.989  50.091  1.00  0.00     0.317 HD
HETATM   16  C4  UNL     1      26.524   8.972  48.348  1.00  0.00     0.164 C 
HETATM   17  C20 UNL     1      26.683   7.766  47.417  1.00  0.00     0.083 C 
BRANCH  16  18
HETATM   18  O2  UNL     1      27.513   9.945  48.079  1.00  0.00    -0.297 OA
BRANCH  18  19
HETATM   19  C3  UNL     1      27.239  11.278  48.326  1.00  0.00     0.362 C 
HETATM   20  N1  UNL     1      28.273  12.257  48.299  1.00  0.00    -0.337 N 
HETATM   21  C1  UNL     1      27.902  13.643  48.570  1.00  0.00     0.154 C 
HETATM   22  C2  UNL     1      29.629  11.840  48.006  1.00  0.00     0.154 C 
HETATM   23  O1  UNL     1      26.065  11.661  48.583  1.00  0.00    -0.238 OA
ENDBRANCH  18  19
ENDBRANCH  16  18
ENDBRANCH  11  12
ENDBRANCH   1  10
BRANCH   7  24
HETATM   24  N5  UNL     1      23.500   1.162  53.387  1.00  0.00    -0.340 N 
HETATM   25  H14 UNL     1      23.043   1.587  54.221  1.00  0.00     0.167 HD
BRANCH  24  26
HETATM   26  C14 UNL     1      24.712   0.423  53.453  1.00  0.00     0.034 A 
HETATM   27  C15 UNL     1      25.008  -0.749  52.933  1.00  0.00     0.045 A 
HETATM   28  C16 UNL     1      26.397  -1.123  53.264  1.00  0.00     0.240 A 
HETATM   29  F1  UNL     1      27.174  -1.303  52.134  1.00  0.00    -0.239 F 
HETATM   30  C17 UNL     1      26.854   0.034  54.066  1.00  0.00     0.051 A 
HETATM   31 CL1  UNL     1      28.475   0.163  54.758  1.00  0.00    -0.086 Cl
HETATM   32  C18 UNL     1      25.879   0.926  54.174  1.00  0.00     0.052 A 
ENDBRANCH  24  26
ENDBRANCH   7  24
TORSDOF 6
ENDMDL
MODEL 2
REMARK VINA RESULT:      -7.9      7.737     10.248
REMARK  6 active torsions:
REMARK  status: ('A' for Active; 'I' for Inactive)
REMARK       I    between atoms: N1_2  and  C3_4 
REMARK    1  A    between atoms: C3_4  and  O2_6 
REMARK    2  A    between atoms: O2_6  and  C4_7 
REMARK    3  A    between atoms: C6_10  and  C7_11 
REMARK    4  A    between atoms: C8_12  and  C9_13 
REMARK    5  A    between atoms: C13_19  and  N5_20 
REMARK    6  A    between atoms: N5_20  and  C14_21 
ROOT
HETATM    1  C9  UNL     1      20.063  -0.290  52.672  1.00  0.00     0.061 A 
HETATM    2  C10 UNL     1      20.399  -0.931  53.877  1.00  0.00     0.061 A 
HETATM    3  C11 UNL     1      21.723  -0.935  54.206  1.00  0.00     0.081 A 
HETATM    4  N3  UNL     1      22.208  -1.509  55.329  1.00  0.00    -0.241 NA
HETATM    5  C12 UNL     1      23.502  -1.499  55.624  1.00  0.00     0.236 A 
HETATM    6  N4  UNL     1      24.463  -0.920  54.841  1.00  0.00    -0.223 NA
HETATM    7  C13 UNL     1      24.018  -0.340  53.715  1.00  0.00     0.149 A 
HETATM    8  C19 UNL     1      22.669  -0.355  53.415  1.00  0.00     0.081 A 
HETATM    9  S1  UNL     1      21.751   0.305  52.035  1.00  0.00    -0.075 SA
ENDROOT
BRANCH   1  10
HETATM   10  C8  UNL     1      18.837  -0.075  51.998  1.00  0.00    -0.057 C 
HETATM   11  C7  UNL     1      17.822   0.118  51.420  1.00  0.00    -0.065 C 
BRANCH  11  12
HETATM   12  C6  UNL     1      16.554   0.360  50.727  1.00  0.00     0.301 C 
HETATM   13  N2  UNL     1      16.489   1.726  50.300  1.00  0.00     0.102 N 
HETATM   14  C5  UNL     1      16.280   2.407  51.581  1.00  0.00     0.303 C 
HETATM   15  H10 UNL     1      17.317   2.061  49.800  1.00  0.00     0.317 HD
HETATM   16  C4  UNL     1      15.039   1.691  52.070  1.00  0.00     0.164 C 
HETATM   17  C20 UNL     1      15.406   0.243  51.732  1.00  0.00     0.083 C 
BRANCH  16  18
HETATM   18  O2  UNL     1      13.947   2.127  51.285  1.00  0.00    -0.297 OA
BRANCH  18  19
HETATM   19  C3  UNL     1      13.135   3.142  51.756  1.00  0.00     0.362 C 
HETATM   20  N1  UNL     1      13.038   4.384  51.067  1.00  0.00    -0.337 N 
HETATM   21  C1  UNL     1      12.160   5.405  51.628  1.00  0.00     0.154 C 
HETATM   22  C2  UNL     1      13.805   4.576  49.853  1.00  0.00     0.154 C 
HETATM   23  O1  UNL     1      12.459   2.995  52.811  1.00  0.00    -0.238 OA
ENDBRANCH  18  19
ENDBRANCH  16  18
ENDBRANCH  11  12
ENDBRANCH   1  10
BRANCH   7  24
HETATM   24  N5  UNL     1      24.870   0.302  52.797  1.00  0.00    -0.340 N 
HETATM   25  H14 UNL     1      24.534   0.773  51.931  1.00  0.00     0.167 HD
BRANCH  24  26
HETATM   26  C14 UNL     1      26.240   0.242  53.170  1.00  0.00     0.034 A 
HETATM   27  C15 UNL     1      26.983   1.142  53.778  1.00  0.00     0.045 A 
HETATM   28  C16 UNL     1      28.357   0.638  53.959  1.00  0.00     0.240 A 
HETATM   29  F1  UNL     1      28.722   0.579  55.293  1.00  0.00    -0.239 F 
HETATM   30  C17 UNL     1      28.284  -0.709  53.351  1.00  0.00     0.051 A 
HETATM   31 CL1  UNL     1      29.656  -1.820  53.268  1.00  0.00    -0.086 Cl
HETATM   32  C18 UNL     1      27.059  -0.936  52.896  1.00  0.00     0.052 A 
ENDBRANCH  24  26
ENDBRANCH   7  24
TORSDOF 6
ENDMDL
MODEL 3
REMARK VINA RESULT:      -7.7      4.731     10.031
REMARK  6 active torsions:
REMARK  status: ('A' for Active; 'I' for Inactive)
REMARK       I    between atoms: N1_2  and  C3_4 
REMARK    1  A    between atoms: C3_4  and  O2_6 
REMARK    2  A    between atoms: O2_6  and  C4_7 
REMARK    3  A    between atoms: C6_10  and  C7_11 
REMARK    4  A    between atoms: C8_12  and  C9_13 
REMARK    5  A    between atoms: C13_19  and  N5_20 
REMARK    6  A    between atoms: N5_20  and  C14_21 
ROOT
HETATM    1  C9  UNL     1      25.652   6.456  49.853  1.00  0.00     0.061 A 
HETATM    2  C10 UNL     1      25.888   7.782  50.257  1.00  0.00     0.061 A 
HETATM    3  C11 UNL     1      26.961   8.401  49.686  1.00  0.00     0.081 A 
HETATM    4  N3  UNL     1      27.321   9.673  49.968  1.00  0.00    -0.241 NA
HETATM    5  C12 UNL     1      28.371  10.252  49.398  1.00  0.00     0.236 A 
HETATM    6  N4  UNL     1      29.183   9.638  48.484  1.00  0.00    -0.223 NA
HETATM    7  C13 UNL     1      28.856   8.373  48.179  1.00  0.00     0.149 A 
HETATM    8  C19 UNL     1      27.762   7.777  48.777  1.00  0.00     0.081 A 
HETATM    9  S1  UNL     1      27.055   6.147  48.609  1.00  0.00    -0.075 SA
ENDROOT
BRANCH   1  10
HETATM   10  C8  UNL     1      24.671   5.497  50.199  1.00  0.00    -0.057 C 
HETATM   11  C7  UNL     1      23.851   4.701  50.508  1.00  0.00    -0.065 C 
BRANCH  11  12
HETATM   12  C6  UNL     1      22.849   3.698  50.877  1.00  0.00     0.301 C 
HETATM   13  N2  UNL     1      22.779   3.585  52.303  1.00  0.00     0.102 N 
HETATM   14  C5  UNL     1      24.037   2.888  52.588  1.00  0.00     0.303 C 
HETATM   15  H10 UNL     1      22.693   4.475  52.803  1.00  0.00     0.317 HD
HETATM   16  C4  UNL     1      23.876   1.667  51.708  1.00  0.00     0.164 C 
HETATM   17  C20 UNL     1      23.336   2.317  50.430  1.00  0.00     0.083 C 
BRANCH  16  18
HETATM   18  O2  UNL     1      22.899   0.832  52.295  1.00  0.00    -0.297 OA
BRANCH  18  19
HETATM   19  C3  UNL     1      23.277  -0.073  53.270  1.00  0.00     0.362 C 
HETATM   20  N1  UNL     1      22.381  -0.447  54.311  1.00  0.00    -0.337 N 
HETATM   21  C1  UNL     1      22.856  -1.408  55.303  1.00  0.00     0.154 C 
HETATM   22  C2  UNL     1      21.054   0.135  54.341  1.00  0.00     0.154 C 
HETATM   23  O1  UNL     1      24.427  -0.591  53.262  1.00  0.00    -0.238 OA
ENDBRANCH  18  19
ENDBRANCH  16  18
ENDBRANCH  11  12
ENDBRANCH   1  10
BRANCH   7  24
HETATM   24  N5  UNL     1      29.583   7.594  47.259  1.00  0.00    -0.340 N 
HETATM   25  H14 UNL     1      29.309   7.476  46.261  1.00  0.00     0.167 HD
BRANCH  24  26
HETATM   26  C14 UNL     1      30.733   6.985  47.829  1.00  0.00     0.034 A 
HETATM   27  C15 UNL     1      30.842   5.846  48.479  1.00  0.00     0.045 A 
HETATM   28  C16 UNL     1      32.241   5.619  48.889  1.00  0.00     0.240 A 
HETATM   29  F1  UNL     1      32.763   4.457  48.349  1.00  0.00    -0.239 F 
HETATM   30  C17 UNL     1      32.925   6.823  48.366  1.00  0.00     0.051 A 
HETATM   31 CL1  UNL     1      34.656   7.123  48.553  1.00  0.00    -0.086 Cl
HETATM   32  C18 UNL     1      32.051   7.611  47.753  1.00  0.00     0.052 A 
ENDBRANCH  24  26
ENDBRANCH   7  24
TORSDOF 6
ENDMDL
MODEL 4
REMARK VINA RESULT:      -7.7      2.807      3.427
REMARK  6 active torsions:
REMARK  status: ('A' for Active; 'I' for Inactive)
REMARK       I    between atoms: N1_2  and  C3_4 
REMARK    1  A    between atoms: C3_4  and  O2_6 
REMARK    2  A    between atoms: O2_6  and  C4_7 
REMARK    3  A    between atoms: C6_10  and  C7_11 
REMARK    4  A    between atoms: C8_12  and  C9_13 
REMARK    5  A    between atoms: C13_19  and  N5_20 
REMARK    6  A    between atoms: N5_20  and  C14_21 
ROOT
HETATM    1  C9  UNL     1      26.335   5.516  49.397  1.00  0.00     0.061 A 
HETATM    2  C10 UNL     1      25.220   6.023  50.087  1.00  0.00     0.061 A 
HETATM    3  C11 UNL     1      24.466   5.109  50.763  1.00  0.00     0.081 A 
HETATM    4  N3  UNL     1      23.365   5.436  51.474  1.00  0.00    -0.241 NA
HETATM    5  C12 UNL     1      22.649   4.526  52.123  1.00  0.00     0.236 A 
HETATM    6  N4  UNL     1      22.942   3.190  52.142  1.00  0.00    -0.223 NA
HETATM    7  C13 UNL     1      24.030   2.828  51.445  1.00  0.00     0.149 A 
HETATM    8  C19 UNL     1      24.770   3.781  50.772  1.00  0.00     0.081 A 
HETATM    9  S1  UNL     1      26.242   3.655  49.771  1.00  0.00    -0.075 SA
ENDROOT
BRANCH   1  10
HETATM   10  C8  UNL     1      27.339   6.118  48.600  1.00  0.00    -0.057 C 
HETATM   11  C7  UNL     1      28.175   6.606  47.918  1.00  0.00    -0.065 C 
BRANCH  11  12
HETATM   12  C6  UNL     1      29.224   7.212  47.097  1.00  0.00     0.301 C 
HETATM   13  N2  UNL     1      30.483   6.593  47.384  1.00  0.00     0.102 N 
HETATM   14  C5  UNL     1      30.768   7.147  48.712  1.00  0.00     0.303 C 
HETATM   15  H10 UNL     1      30.473   5.569  47.373  1.00  0.00     0.317 HD
HETATM   16  C4  UNL     1      30.687   8.629  48.411  1.00  0.00     0.164 C 
HETATM   17  C20 UNL     1      29.429   8.664  47.537  1.00  0.00     0.083 C 
BRANCH  16  18
HETATM   18  O2  UNL     1      31.829   8.983  47.656  1.00  0.00    -0.297 OA
BRANCH  18  19
HETATM   19  C3  UNL     1      31.904  10.241  47.090  1.00  0.00     0.362 C 
HETATM   20  N1  UNL     1      32.008  10.406  45.679  1.00  0.00    -0.337 N 
HETATM   21  C1  UNL     1      32.083  11.768  45.159  1.00  0.00     0.154 C 
HETATM   22  C2  UNL     1      32.034   9.230  44.833  1.00  0.00     0.154 C 
HETATM   23  O1  UNL     1      31.883  11.278  47.808  1.00  0.00    -0.238 OA
ENDBRANCH  18  19
ENDBRANCH  16  18
ENDBRANCH  11  12
ENDBRANCH   1  10
BRANCH   7  24
HETATM   24  N5  UNL     1      24.475   1.495  51.358  1.00  0.00    -0.340 N 
HETATM   25  H14 UNL     1      24.109   0.810  50.665  1.00  0.00     0.167 HD
BRANCH  24  26
HETATM   26  C14 UNL     1      25.477   1.177  52.314  1.00  0.00     0.034 A 
HETATM   27  C15 UNL     1      25.646   1.637  53.535  1.00  0.00     0.045 A 
HETATM   28  C16 UNL     1      26.830   1.017  54.160  1.00  0.00     0.240 A 
HETATM   29  F1  UNL     1      26.510   0.318  55.310  1.00  0.00    -0.239 F 
HETATM   30  C17 UNL     1      27.320   0.120  53.091  1.00  0.00     0.051 A 
HETATM   31 CL1  UNL     1      28.746  -0.910  53.256  1.00  0.00    -0.086 Cl
HETATM   32  C18 UNL     1      26.536   0.213  52.024  1.00  0.00     0.052 A 
ENDBRANCH  24  26
ENDBRANCH   7  24
TORSDOF 6
ENDMDL
MODEL 5
REMARK VINA RESULT:      -7.5      1.944      2.219
REMARK  6 active torsions:
REMARK  status: ('A' for Active; 'I' for Inactive)
REMARK       I    between atoms: N1_2  and  C3_4 
REMARK    1  A    between atoms: C3_4  and  O2_6 
REMARK    2  A    between atoms: O2_6  and  C4_7 
REMARK    3  A    between atoms: C6_10  and  C7_11 
REMARK    4  A    between atoms: C8_12  and  C9_13 
REMARK    5  A    between atoms: C13_19  and  N5_20 
REMARK    6  A    between atoms: N5_20  and  C14_21 
ROOT
HETATM    1  C9  UNL     1      25.247   5.823  50.054  1.00  0.00     0.061 A 
HETATM    2  C10 UNL     1      24.064   6.105  50.760  1.00  0.00     0.061 A 
HETATM    3  C11 UNL     1      23.365   5.026  51.216  1.00  0.00     0.081 A 
HETATM    4  N3  UNL     1      22.210   5.129  51.910  1.00  0.00    -0.241 NA
HETATM    5  C12 UNL     1      21.550   4.062  52.343  1.00  0.00     0.236 A 
HETATM    6  N4  UNL     1      21.958   2.772  52.137  1.00  0.00    -0.223 NA
HETATM    7  C13 UNL     1      23.102   2.631  51.450  1.00  0.00     0.149 A 
HETATM    8  C19 UNL     1      23.783   3.747  51.003  1.00  0.00     0.081 A 
HETATM    9  S1  UNL     1      25.301   3.923  50.081  1.00  0.00    -0.075 SA
ENDROOT
BRANCH   1  10
HETATM   10  C8  UNL     1      26.226   6.637  49.437  1.00  0.00    -0.057 C 
HETATM   11  C7  UNL     1      27.060   7.311  48.935  1.00  0.00    -0.065 C 
BRANCH  11  12
HETATM   12  C6  UNL     1      28.075   8.165  48.313  1.00  0.00     0.301 C 
HETATM   13  N2  UNL     1      28.968   8.664  49.315  1.00  0.00     0.102 N 
HETATM   14  C5  UNL     1      28.108   9.642  49.989  1.00  0.00     0.303 C 
HETATM   15  H10 UNL     1      29.341   7.955  49.953  1.00  0.00     0.317 HD
HETATM   16  C4  UNL     1      27.706  10.507  48.813  1.00  0.00     0.164 C 
HETATM   17  C20 UNL     1      27.402   9.427  47.770  1.00  0.00     0.083 C 
BRANCH  16  18
HETATM   18  O2  UNL     1      28.832  11.270  48.429  1.00  0.00    -0.297 OA
BRANCH  18  19
HETATM   19  C3  UNL     1      28.721  12.645  48.340  1.00  0.00     0.362 C 
HETATM   20  N1  UNL     1      29.256  13.354  47.227  1.00  0.00    -0.337 N 
HETATM   21  C1  UNL     1      29.098  14.806  47.208  1.00  0.00     0.154 C 
HETATM   22  C2  UNL     1      29.924  12.614  46.176  1.00  0.00     0.154 C 
HETATM   23  O1  UNL     1      28.144  13.309  49.244  1.00  0.00    -0.238 OA
ENDBRANCH  18  19
ENDBRANCH  16  18
ENDBRANCH  11  12
ENDBRANCH   1  10
BRANCH   7  24
HETATM   24  N5  UNL     1      23.665   1.376  51.149  1.00  0.00    -0.340 N 
HETATM   25  H14 UNL     1      23.464   0.849  50.274  1.00  0.00     0.167 HD
BRANCH  24  26
HETATM   26  C14 UNL     1      24.537   0.898  52.164  1.00  0.00     0.034 A 
HETATM   27  C15 UNL     1      24.271   0.562  53.408  1.00  0.00     0.045 A 
HETATM   28  C16 UNL     1      25.498   0.119  54.096  1.00  0.00     0.240 A 
HETATM   29  F1  UNL     1      25.402  -1.184  54.551  1.00  0.00    -0.239 F 
HETATM   30  C17 UNL     1      26.523   0.257  53.038  1.00  0.00     0.051 A 
HETATM   31 CL1  UNL     1      28.229  -0.135  53.272  1.00  0.00    -0.086 Cl
HETATM   32  C18 UNL     1      25.965   0.707  51.921  1.00  0.00     0.052 A 
ENDBRANCH  24  26
ENDBRANCH   7  24
TORSDOF 6
ENDMDL
MODEL 6
REMARK VINA RESULT:      -7.5      2.307      2.656
REMARK  6 active torsions:
REMARK  status: ('A' for Active; 'I' for Inactive)
REMARK       I    between atoms: N1_2  and  C3_4 
REMARK    1  A    between atoms: C3_4  and  O2_6 
REMARK    2  A    between atoms: O2_6  and  C4_7 
REMARK    3  A    between atoms: C6_10  and  C7_11 
REMARK    4  A    between atoms: C8_12  and  C9_13 
REMARK    5  A    between atoms: C13_19  and  N5_20 
REMARK    6  A    between atoms: N5_20  and  C14_21 
ROOT
HETATM    1  C9  UNL     1      24.774   5.560  49.162  1.00  0.00     0.061 A 
HETATM    2  C10 UNL     1      23.732   5.041  48.373  1.00  0.00     0.061 A 
HETATM    3  C11 UNL     1      22.815   4.269  49.023  1.00  0.00     0.081 A 
HETATM    4  N3  UNL     1      21.756   3.697  48.408  1.00  0.00    -0.241 NA
HETATM    5  C12 UNL     1      20.877   2.949  49.065  1.00  0.00     0.236 A 
HETATM    6  N4  UNL     1      20.948   2.683  50.404  1.00  0.00    -0.223 NA
HETATM    7  C13 UNL     1      21.988   3.233  51.049  1.00  0.00     0.149 A 
HETATM    8  C19 UNL     1      22.898   4.010  50.358  1.00  0.00     0.081 A 
HETATM    9  S1  UNL     1      24.365   4.878  50.888  1.00  0.00    -0.075 SA
ENDROOT
BRANCH   1  10
HETATM   10  C8  UNL     1      25.890   6.382  48.876  1.00  0.00    -0.057 C 
HETATM   11  C7  UNL     1      26.829   7.068  48.657  1.00  0.00    -0.065 C 
BRANCH  11  12
HETATM   12  C6  UNL     1      27.976   7.933  48.372  1.00  0.00     0.301 C 
HETATM   13  N2  UNL     1      28.602   8.328  49.599  1.00  0.00     0.102 N 
HETATM   14  C5  UNL     1      27.616   9.279  50.119  1.00  0.00     0.303 C 
HETATM   15  H10 UNL     1      28.799   7.561  50.249  1.00  0.00     0.317 HD
HETATM   16  C4  UNL     1      27.526  10.242  48.954  1.00  0.00     0.164 C 
HETATM   17  C20 UNL     1      27.473   9.254  47.784  1.00  0.00     0.083 C 
BRANCH  16  18
HETATM   18  O2  UNL     1      28.721  10.996  48.918  1.00  0.00    -0.297 OA
BRANCH  18  19
HETATM   19  C3  UNL     1      28.662  12.347  48.634  1.00  0.00     0.362 C 
HETATM   20  N1  UNL     1      29.198  12.865  47.421  1.00  0.00    -0.337 N 
HETATM   21  C1  UNL     1      29.097  14.304  47.194  1.00  0.00     0.154 C 
HETATM   22  C2  UNL     1      29.811  11.954  46.476  1.00  0.00     0.154 C 
HETATM   23  O1  UNL     1      28.133  13.158  49.443  1.00  0.00    -0.238 OA
ENDBRANCH  18  19
ENDBRANCH  16  18
ENDBRANCH  11  12
ENDBRANCH   1  10
BRANCH   7  24
HETATM   24  N5  UNL     1      22.212   3.061  52.429  1.00  0.00    -0.340 N 
HETATM   25  H14 UNL     1      22.115   3.826  53.128  1.00  0.00     0.167 HD
BRANCH  24  26
HETATM   26  C14 UNL     1      22.585   1.733  52.772  1.00  0.00     0.034 A 
HETATM   27  C15 UNL     1      23.740   1.122  52.622  1.00  0.00     0.045 A 
HETATM   28  C16 UNL     1      23.660  -0.262  53.127  1.00  0.00     0.240 A 
HETATM   29  F1  UNL     1      24.559  -0.498  54.152  1.00  0.00    -0.239 F 
HETATM   30  C17 UNL     1      22.259  -0.349  53.595  1.00  0.00     0.051 A 
HETATM   31 CL1  UNL     1      21.557  -1.800  54.318  1.00  0.00    -0.086 Cl
HETATM   32  C18 UNL     1      21.639   0.806  53.389  1.00  0.00     0.052 A 
ENDBRANCH  24  26
ENDBRANCH   7  24
TORSDOF 6
ENDMDL
MODEL 7
REMARK VINA RESULT:      -7.5      1.680      2.070
REMARK  6 active torsions:
REMARK  status: ('A' for Active; 'I' for Inactive)
REMARK       I    between atoms: N1_2  and  C3_4 
REMARK    1  A    between atoms: C3_4  and  O2_6 
REMARK    2  A    between atoms: O2_6  and  C4_7 
REMARK    3  A    between atoms: C6_10  and  C7_11 
REMARK    4  A    between atoms: C8_12  and  C9_13 
REMARK    5  A    between atoms: C13_19  and  N5_20 
REMARK    6  A    between atoms: N5_20  and  C14_21 
ROOT
HETATM    1  C9  UNL     1      24.481   4.798  49.363  1.00  0.00     0.061 A 
HETATM    2  C10 UNL     1      23.577   3.897  48.773  1.00  0.00     0.061 A 
HETATM    3  C11 UNL     1      23.096   2.912  49.585  1.00  0.00     0.081 A 
HETATM    4  N3  UNL     1      22.221   1.970  49.171  1.00  0.00    -0.241 NA
HETATM    5  C12 UNL     1      21.768   1.022  49.982  1.00  0.00     0.236 A 
HETATM    6  N4  UNL     1      22.130   0.900  51.295  1.00  0.00    -0.223 NA
HETATM    7  C13 UNL     1      22.999   1.819  51.743  1.00  0.00     0.149 A 
HETATM    8  C19 UNL     1      23.466   2.803  50.892  1.00  0.00     0.081 A 
HETATM    9  S1  UNL     1      24.603   4.155  51.147  1.00  0.00    -0.075 SA
ENDROOT
BRANCH   1  10
HETATM   10  C8  UNL     1      25.185   5.925  48.874  1.00  0.00    -0.057 C 
HETATM   11  C7  UNL     1      25.785   6.855  48.454  1.00  0.00    -0.065 C 
BRANCH  11  12
HETATM   12  C6  UNL     1      26.529   8.015  47.958  1.00  0.00     0.301 C 
HETATM   13  N2  UNL     1      27.466   7.599  46.958  1.00  0.00     0.102 N 
HETATM   14  C5  UNL     1      28.467   6.916  47.784  1.00  0.00     0.303 C 
HETATM   15  H10 UNL     1      27.076   6.998  46.226  1.00  0.00     0.317 HD
HETATM   16  C4  UNL     1      28.817   8.021  48.757  1.00  0.00     0.164 C 
HETATM   17  C20 UNL     1      27.418   8.556  49.081  1.00  0.00     0.083 C 
BRANCH  16  18
HETATM   18  O2  UNL     1      29.573   8.991  48.060  1.00  0.00    -0.297 OA
BRANCH  18  19
HETATM   19  C3  UNL     1      30.074  10.082  48.746  1.00  0.00     0.362 C 
HETATM   20  N1  UNL     1      29.828  11.409  48.293  1.00  0.00    -0.337 N 
HETATM   21  C1  UNL     1      30.392  12.507  49.073  1.00  0.00     0.154 C 
HETATM   22  C2  UNL     1      29.039  11.609  47.095  1.00  0.00     0.154 C 
HETATM   23  O1  UNL     1      30.764   9.929  49.791  1.00  0.00    -0.238 OA
ENDBRANCH  18  19
ENDBRANCH  16  18
ENDBRANCH  11  12
ENDBRANCH   1  10
BRANCH   7  24
HETATM   24  N5  UNL     1      23.476   1.841  53.068  1.00  0.00    -0.340 N 
HETATM   25  H14 UNL     1      22.959   2.278  53.859  1.00  0.00     0.167 HD
BRANCH  24  26
HETATM   26  C14 UNL     1      24.739   1.206  53.217  1.00  0.00     0.034 A 
HETATM   27  C15 UNL     1      25.851   1.667  53.748  1.00  0.00     0.045 A 
HETATM   28  C16 UNL     1      26.914   0.646  53.683  1.00  0.00     0.240 A 
HETATM   29  F1  UNL     1      27.384   0.299  54.937  1.00  0.00    -0.239 F 
HETATM   30  C17 UNL     1      26.228  -0.486  53.022  1.00  0.00     0.051 A 
HETATM   31 CL1  UNL     1      27.010  -2.029  52.664  1.00  0.00    -0.086 Cl
HETATM   32  C18 UNL     1      24.970  -0.160  52.754  1.00  0.00     0.052 A 
ENDBRANCH  24  26
ENDBRANCH   7  24
TORSDOF 6
ENDMDL
MODEL 8
REMARK VINA RESULT:      -7.4      2.387      2.882
REMARK  6 active torsions:
REMARK  status: ('A' for Active; 'I' for Inactive)
REMARK       I    between atoms: N1_2  and  C3_4 
REMARK    1  A    between atoms: C3_4  and  O2_6 
REMARK    2  A    between atoms: O2_6  and  C4_7 
REMARK    3  A    between atoms: C6_10  and  C7_11 
REMARK    4  A    between atoms: C8_12  and  C9_13 
REMARK    5  A    between atoms: C13_19  and  N5_20 
REMARK    6  A    between atoms: N5_20  and  C14_21 
ROOT
HETATM    1  C9  UNL     1      25.460   5.227  49.809  1.00  0.00     0.061 A 
HETATM    2  C10 UNL     1      24.393   5.796  50.526  1.00  0.00     0.061 A 
HETATM    3  C11 UNL     1      23.487   4.921  51.049  1.00  0.00     0.081 A 
HETATM    4  N3  UNL     1      22.407   5.308  51.762  1.00  0.00    -0.241 NA
HETATM    5  C12 UNL     1      21.540   4.435  52.260  1.00  0.00     0.236 A 
HETATM    6  N4  UNL     1      21.645   3.080  52.109  1.00  0.00    -0.223 NA
HETATM    7  C13 UNL     1      22.706   2.657  51.405  1.00  0.00     0.149 A 
HETATM    8  C19 UNL     1      23.604   3.573  50.890  1.00  0.00     0.081 A 
HETATM    9  S1  UNL     1      25.092   3.367  49.927  1.00  0.00    -0.075 SA
ENDROOT
BRANCH   1  10
HETATM   10  C8  UNL     1      26.576   5.775  49.132  1.00  0.00    -0.057 C 
HETATM   11  C7  UNL     1      27.508   6.251  48.578  1.00  0.00    -0.065 C 
BRANCH  11  12
HETATM   12  C6  UNL     1      28.651   6.832  47.870  1.00  0.00     0.301 C 
HETATM   13  N2  UNL     1      29.479   7.549  48.792  1.00  0.00     0.102 N 
HETATM   14  C5  UNL     1      28.645   8.726  49.056  1.00  0.00     0.303 C 
HETATM   15  H10 UNL     1      29.723   7.035  49.643  1.00  0.00     0.317 HD
HETATM   16  C4  UNL     1      28.440   9.235  47.645  1.00  0.00     0.164 C 
HETATM   17  C20 UNL     1      28.148   7.919  46.917  1.00  0.00     0.083 C 
BRANCH  16  18
HETATM   18  O2  UNL     1      29.661   9.792  47.201  1.00  0.00    -0.297 OA
BRANCH  18  19
HETATM   19  C3  UNL     1      29.644  10.960  46.462  1.00  0.00     0.362 C 
HETATM   20  N1  UNL     1      29.823  12.227  47.087  1.00  0.00    -0.337 N 
HETATM   21  C1  UNL     1      29.792  13.414  46.236  1.00  0.00     0.154 C 
HETATM   22  C2  UNL     1      30.026  12.282  48.520  1.00  0.00     0.154 C 
HETATM   23  O1  UNL     1      29.469  10.934  45.213  1.00  0.00    -0.238 OA
ENDBRANCH  18  19
ENDBRANCH  16  18
ENDBRANCH  11  12
ENDBRANCH   1  10
BRANCH   7  24
HETATM   24  N5  UNL     1      22.967   1.297  51.154  1.00  0.00    -0.340 N 
HETATM   25  H14 UNL     1      23.261   0.928  50.226  1.00  0.00     0.167 HD
BRANCH  24  26
HETATM   26  C14 UNL     1      22.786   0.474  52.299  1.00  0.00     0.034 A 
HETATM   27  C15 UNL     1      21.699  -0.124  52.738  1.00  0.00     0.045 A 
HETATM   28  C16 UNL     1      21.989  -0.877  53.973  1.00  0.00     0.240 A 
HETATM   29  F1  UNL     1      21.730  -2.230  53.834  1.00  0.00    -0.239 F 
HETATM   30  C17 UNL     1      23.431  -0.613  54.175  1.00  0.00     0.051 A 
HETATM   31 CL1  UNL     1      24.365  -1.266  55.525  1.00  0.00    -0.086 Cl
HETATM   32  C18 UNL     1      23.890   0.168  53.205  1.00  0.00     0.052 A 
ENDBRANCH  24  26
ENDBRANCH   7  24
TORSDOF 6
ENDMDL
MODEL 9
REMARK VINA RESULT:      -7.3      2.923      4.022
REMARK  6 active torsions:
REMARK  status: ('A' for Active; 'I' for Inactive)
REMARK       I    between atoms: N1_2  and  C3_4 
REMARK    1  A    between atoms: C3_4  and  O2_6 
REMARK    2  A    between atoms: O2_6  and  C4_7 
REMARK    3  A    between atoms: C6_10  and  C7_11 
REMARK    4  A    between atoms: C8_12  and  C9_13 
REMARK    5  A    between atoms: C13_19  and  N5_20 
REMARK    6  A    between atoms: N5_20  and  C14_21 
ROOT
HETATM    1  C9  UNL     1      26.157   4.022  50.099  1.00  0.00     0.061 A 
HETATM    2  C10 UNL     1      26.574   2.779  50.606  1.00  0.00     0.061 A 
HETATM    3  C11 UNL     1      25.679   2.122  51.397  1.00  0.00     0.081 A 
HETATM    4  N3  UNL     1      25.927   0.919  51.960  1.00  0.00    -0.241 NA
HETATM    5  C12 UNL     1      25.037   0.301  52.726  1.00  0.00     0.236 A 
HETATM    6  N4  UNL     1      23.800   0.804  53.023  1.00  0.00    -0.223 NA
HETATM    7  C13 UNL     1      23.518   1.999  52.481  1.00  0.00     0.149 A 
HETATM    8  C19 UNL     1      24.450   2.636  51.684  1.00  0.00     0.081 A 
HETATM    9  S1  UNL     1      24.408   4.197  50.822  1.00  0.00    -0.075 SA
ENDROOT
BRANCH   1  10
HETATM   10  C8  UNL     1      26.773   4.986  49.265  1.00  0.00    -0.057 C 
HETATM   11  C7  UNL     1      27.301   5.797  48.583  1.00  0.00    -0.065 C 
BRANCH  11  12
HETATM   12  C6  UNL     1      27.931   6.809  47.732  1.00  0.00     0.301 C 
HETATM   13  N2  UNL     1      28.875   7.567  48.497  1.00  0.00     0.102 N 
HETATM   14  C5  UNL     1      27.975   8.374  49.327  1.00  0.00     0.303 C 
HETATM   15  H10 UNL     1      29.531   7.007  49.049  1.00  0.00     0.317 HD
HETATM   16  C4  UNL     1      27.140   9.039  48.253  1.00  0.00     0.164 C 
HETATM   17  C20 UNL     1      26.880   7.846  47.328  1.00  0.00     0.083 C 
BRANCH  16  18
HETATM   18  O2  UNL     1      27.946  10.005  47.610  1.00  0.00    -0.297 OA
BRANCH  18  19
HETATM   19  C3  UNL     1      28.443  11.069  48.340  1.00  0.00     0.362 C 
HETATM   20  N1  UNL     1      29.830  11.389  48.319  1.00  0.00    -0.337 N 
HETATM   21  C1  UNL     1      30.276  12.528  49.118  1.00  0.00     0.154 C 
HETATM   22  C2  UNL     1      30.727  10.583  47.516  1.00  0.00     0.154 C 
HETATM   23  O1  UNL     1      27.679  11.784  49.046  1.00  0.00    -0.238 OA
ENDBRANCH  18  19
ENDBRANCH  16  18
ENDBRANCH  11  12
ENDBRANCH   1  10
BRANCH   7  24
HETATM   24  N5  UNL     1      22.291   2.660  52.683  1.00  0.00    -0.340 N 
HETATM   25  H14 UNL     1      22.164   3.445  53.355  1.00  0.00     0.167 HD
BRANCH  24  26
HETATM   26  C14 UNL     1      21.241   2.147  51.875  1.00  0.00     0.034 A 
HETATM   27  C15 UNL     1      20.883   2.482  50.654  1.00  0.00     0.045 A 
HETATM   28  C16 UNL     1      19.728   1.675  50.217  1.00  0.00     0.240 A 
HETATM   29  F1  UNL     1      20.010   0.927  49.087  1.00  0.00    -0.239 F 
HETATM   30  C17 UNL     1      19.477   0.815  51.395  1.00  0.00     0.051 A 
HETATM   31 CL1  UNL     1      18.186  -0.389  51.468  1.00  0.00    -0.086 Cl
HETATM   32  C18 UNL     1      20.353   1.090  52.352  1.00  0.00     0.052 A 
ENDBRANCH  24  26
ENDBRANCH   7  24
TORSDOF 6
ENDMDL
