MODEL 1
REMARK VINA RESULT:      -8.4      0.000      0.000
REMARK  3 active torsions:
REMARK  status: ('A' for Active; 'I' for Inactive)
REMARK    1  A    between atoms: C3_3  and  C4_4 
REMARK    2  A    between atoms: C8_11  and  N3_12 
REMARK    3  A    between atoms: N3_12  and  C9_13 
ROOT
HETATM    1  C4  UNL     1      26.345   1.980  52.582  1.00  0.00     0.258 C 
HETATM    2  C5  UNL     1      26.817   0.455  52.768  1.00  0.00     0.151 C 
HETATM    3  C6  UNL     1      28.215   0.959  53.204  1.00  0.00     0.277 A 
HETATM    4 CL1  UNL     1      29.360  -0.435  53.030  1.00  0.00    -0.082 Cl
HETATM    5  C7  UNL     1      28.507   2.309  53.638  1.00  0.00     0.313 A 
HETATM    6  N1  UNL     1      27.196   2.052  53.807  1.00  0.00     0.079 N 
HETATM    7  N2  UNL     1      26.178   1.606  54.647  1.00  0.00    -0.067 NA
HETATM    8  C8  UNL     1      26.043   0.336  54.068  1.00  0.00     0.142 C 
ENDROOT
BRANCH   8   9
HETATM    9  N3  UNL     1      25.342  -0.794  54.577  1.00  0.00    -0.343 N 
HETATM   10  H9  UNL     1      25.916  -1.539  55.068  1.00  0.00     0.167 HD
BRANCH   9  11
HETATM   11  C9  UNL     1      23.934  -0.813  54.377  1.00  0.00     0.034 A 
HETATM   12  C10 UNL     1      22.978  -1.285  55.231  1.00  0.00     0.030 A 
HETATM   13  C11 UNL     1      21.637  -1.237  54.918  1.00  0.00     0.009 A 
HETATM   14  C12 UNL     1      21.170  -0.715  53.730  1.00  0.00    -0.056 A 
HETATM   15  C13 UNL     1      19.728  -0.678  53.422  1.00  0.00     0.049 C 
HETATM   16  C14 UNL     1      22.102  -0.238  52.860  1.00  0.00    -0.054 A 
HETATM   17  C15 UNL     1      21.692   0.349  51.544  1.00  0.00     0.049 C 
HETATM   18  C16 UNL     1      23.450  -0.285  53.174  1.00  0.00     0.036 A 
ENDBRANCH   9  11
ENDBRANCH   8   9
BRANCH   1  19
HETATM   19  C3  UNL     1      26.965   2.512  51.395  1.00  0.00     0.005 C 
HETATM   20  C2  UNL     1      26.240   3.252  50.530  1.00  0.00    -0.033 C 
HETATM   21  C1  UNL     1      26.868   3.816  49.283  1.00  0.00     0.036 C 
ENDBRANCH   1  19
TORSDOF 3
ENDMDL
MODEL 2
REMARK VINA RESULT:      -7.9      2.698      6.205
REMARK  3 active torsions:
REMARK  status: ('A' for Active; 'I' for Inactive)
REMARK    1  A    between atoms: C3_3  and  C4_4 
REMARK    2  A    between atoms: C8_11  and  N3_12 
REMARK    3  A    between atoms: N3_12  and  C9_13 
ROOT
HETATM    1  C4  UNL     1      23.117   1.472  53.118  1.00  0.00     0.258 C 
HETATM    2  C5  UNL     1      23.831   1.523  51.679  1.00  0.00     0.151 C 
HETATM    3  C6  UNL     1      22.608   2.291  51.120  1.00  0.00     0.277 A 
HETATM    4 CL1  UNL     1      22.669   2.143  49.314  1.00  0.00    -0.082 Cl
HETATM    5  C7  UNL     1      21.615   2.965  51.930  1.00  0.00     0.313 A 
HETATM    6  N1  UNL     1      22.760   2.836  52.628  1.00  0.00     0.079 N 
HETATM    7  N2  UNL     1      23.982   3.388  53.007  1.00  0.00    -0.067 NA
HETATM    8  C8  UNL     1      24.775   2.617  52.146  1.00  0.00     0.142 C 
ENDROOT
BRANCH   8   9
HETATM    9  N3  UNL     1      26.142   2.809  51.798  1.00  0.00    -0.343 N 
HETATM   10  H9  UNL     1      26.365   3.611  51.139  1.00  0.00     0.167 HD
BRANCH   9  11
HETATM   11  C9  UNL     1      27.078   1.906  52.370  1.00  0.00     0.034 A 
HETATM   12  C10 UNL     1      28.236   2.213  53.027  1.00  0.00     0.030 A 
HETATM   13  C11 UNL     1      29.058   1.235  53.546  1.00  0.00     0.009 A 
HETATM   14  C12 UNL     1      28.772  -0.110  53.437  1.00  0.00    -0.056 A 
HETATM   15  C13 UNL     1      29.671  -1.135  54.001  1.00  0.00     0.049 C 
HETATM   16  C14 UNL     1      27.624  -0.443  52.786  1.00  0.00    -0.054 A 
HETATM   17  C15 UNL     1      27.228  -1.878  52.618  1.00  0.00     0.049 C 
HETATM   18  C16 UNL     1      26.797   0.539  52.266  1.00  0.00     0.036 A 
ENDBRANCH   9  11
ENDBRANCH   8   9
BRANCH   1  19
HETATM   19  C3  UNL     1      22.038   0.518  53.063  1.00  0.00     0.005 C 
HETATM   20  C2  UNL     1      21.835  -0.329  54.093  1.00  0.00    -0.033 C 
HETATM   21  C1  UNL     1      20.713  -1.334  54.055  1.00  0.00     0.036 C 
ENDBRANCH   1  19
TORSDOF 3
ENDMDL
MODEL 3
REMARK VINA RESULT:      -7.7      2.442      4.540
REMARK  3 active torsions:
REMARK  status: ('A' for Active; 'I' for Inactive)
REMARK    1  A    between atoms: C3_3  and  C4_4 
REMARK    2  A    between atoms: C8_11  and  N3_12 
REMARK    3  A    between atoms: N3_12  and  C9_13 
ROOT
HETATM    1  C4  UNL     1      27.279   0.720  53.238  1.00  0.00     0.258 C 
HETATM    2  C5  UNL     1      25.806   0.798  52.598  1.00  0.00     0.151 C 
HETATM    3  C6  UNL     1      25.260  -0.008  53.802  1.00  0.00     0.277 A 
HETATM    4 CL1  UNL     1      23.651  -0.678  53.305  1.00  0.00    -0.082 Cl
HETATM    5  C7  UNL     1      25.953  -0.185  55.061  1.00  0.00     0.313 A 
HETATM    6  N1  UNL     1      26.414   0.917  54.439  1.00  0.00     0.079 N 
HETATM    7  N2  UNL     1      26.325   2.295  54.257  1.00  0.00    -0.067 NA
HETATM    8  C8  UNL     1      25.659   2.248  53.025  1.00  0.00     0.142 C 
ENDROOT
BRANCH   8   9
HETATM    9  N3  UNL     1      25.006   3.308  52.335  1.00  0.00    -0.343 N 
HETATM   10  H9  UNL     1      25.192   4.295  52.678  1.00  0.00     0.167 HD
BRANCH   9  11
HETATM   11  C9  UNL     1      24.168   2.940  51.247  1.00  0.00     0.034 A 
HETATM   12  C10 UNL     1      24.312   3.279  49.932  1.00  0.00     0.030 A 
HETATM   13  C11 UNL     1      23.427   2.846  48.969  1.00  0.00     0.009 A 
HETATM   14  C12 UNL     1      22.341   2.048  49.263  1.00  0.00    -0.056 A 
HETATM   15  C13 UNL     1      21.409   1.601  48.210  1.00  0.00     0.049 C 
HETATM   16  C14 UNL     1      22.173   1.696  50.567  1.00  0.00    -0.054 A 
HETATM   17  C15 UNL     1      21.024   0.830  50.984  1.00  0.00     0.049 C 
HETATM   18  C16 UNL     1      23.063   2.130  51.535  1.00  0.00     0.036 A 
ENDBRANCH   9  11
ENDBRANCH   8   9
BRANCH   1  19
HETATM   19  C3  UNL     1      27.779  -0.623  53.079  1.00  0.00     0.005 C 
HETATM   20  C2  UNL     1      29.042  -0.919  53.447  1.00  0.00    -0.033 C 
HETATM   21  C1  UNL     1      29.584  -2.316  53.288  1.00  0.00     0.036 C 
ENDBRANCH   1  19
TORSDOF 3
ENDMDL
MODEL 4
REMARK VINA RESULT:      -7.7      3.238      5.332
REMARK  3 active torsions:
REMARK  status: ('A' for Active; 'I' for Inactive)
REMARK    1  A    between atoms: C3_3  and  C4_4 
REMARK    2  A    between atoms: C8_11  and  N3_12 
REMARK    3  A    between atoms: N3_12  and  C9_13 
ROOT
HETATM    1  C4  UNL     1      24.820   2.789  50.227  1.00  0.00     0.258 C 
HETATM    2  C5  UNL     1      24.829   3.076  51.809  1.00  0.00     0.151 C 
HETATM    3  C6  UNL     1      23.605   4.008  51.628  1.00  0.00     0.277 A 
HETATM    4 CL1  UNL     1      23.515   5.055  53.105  1.00  0.00    -0.082 Cl
HETATM    5  C7  UNL     1      22.740   4.020  50.468  1.00  0.00     0.313 A 
HETATM    6  N1  UNL     1      23.364   2.830  50.557  1.00  0.00     0.079 N 
HETATM    7  N2  UNL     1      23.343   1.516  51.020  1.00  0.00    -0.067 NA
HETATM    8  C8  UNL     1      24.220   1.715  52.095  1.00  0.00     0.142 C 
ENDROOT
BRANCH   8   9
HETATM    9  N3  UNL     1      24.482   0.845  53.191  1.00  0.00    -0.343 N 
HETATM   10  H9  UNL     1      23.704   0.714  53.901  1.00  0.00     0.167 HD
BRANCH   9  11
HETATM   11  C9  UNL     1      25.765   0.233  53.226  1.00  0.00     0.034 A 
HETATM   12  C10 UNL     1      26.103  -1.017  52.790  1.00  0.00     0.030 A 
HETATM   13  C11 UNL     1      27.395  -1.490  52.875  1.00  0.00     0.009 A 
HETATM   14  C12 UNL     1      28.427  -0.742  53.403  1.00  0.00    -0.056 A 
HETATM   15  C13 UNL     1      29.800  -1.276  53.481  1.00  0.00     0.049 C 
HETATM   16  C14 UNL     1      28.116   0.507  53.845  1.00  0.00    -0.054 A 
HETATM   17  C15 UNL     1      29.170   1.395  54.433  1.00  0.00     0.049 C 
HETATM   18  C16 UNL     1      26.819   0.984  53.759  1.00  0.00     0.036 A 
ENDBRANCH   9  11
ENDBRANCH   8   9
BRANCH   1  19
HETATM   19  C3  UNL     1      25.308   3.961  49.544  1.00  0.00     0.005 C 
HETATM   20  C2  UNL     1      26.635   4.137  49.373  1.00  0.00    -0.033 C 
HETATM   21  C1  UNL     1      27.166   5.354  48.663  1.00  0.00     0.036 C 
ENDBRANCH   1  19
TORSDOF 3
ENDMDL
MODEL 5
REMARK VINA RESULT:      -7.5      3.162      7.195
REMARK  3 active torsions:
REMARK  status: ('A' for Active; 'I' for Inactive)
REMARK    1  A    between atoms: C3_3  and  C4_4 
REMARK    2  A    between atoms: C8_11  and  N3_12 
REMARK    3  A    between atoms: N3_12  and  C9_13 
ROOT
HETATM    1  C4  UNL     1      24.988   1.611  52.295  1.00  0.00     0.258 C 
HETATM    2  C5  UNL     1      24.067   1.728  50.982  1.00  0.00     0.151 C 
HETATM    3  C6  UNL     1      22.872   1.169  51.793  1.00  0.00     0.277 A 
HETATM    4 CL1  UNL     1      21.645   0.584  50.593  1.00  0.00    -0.082 Cl
HETATM    5  C7  UNL     1      22.804   1.122  53.239  1.00  0.00     0.313 A 
HETATM    6  N1  UNL     1      23.682   2.069  52.855  1.00  0.00     0.079 N 
HETATM    7  N2  UNL     1      23.916   3.405  52.540  1.00  0.00    -0.067 NA
HETATM    8  C8  UNL     1      23.958   3.233  51.150  1.00  0.00     0.142 C 
ENDROOT
BRANCH   8   9
HETATM    9  N3  UNL     1      23.916   4.232  50.136  1.00  0.00    -0.343 N 
HETATM   10  H9  UNL     1      22.959   4.596  49.856  1.00  0.00     0.167 HD
BRANCH   9  11
HETATM   11  C9  UNL     1      25.164   4.646  49.597  1.00  0.00     0.034 A 
HETATM   12  C10 UNL     1      26.310   3.909  49.488  1.00  0.00     0.030 A 
HETATM   13  C11 UNL     1      27.458   4.431  48.934  1.00  0.00     0.009 A 
HETATM   14  C12 UNL     1      27.532   5.722  48.456  1.00  0.00    -0.056 A 
HETATM   15  C13 UNL     1      28.777   6.253  47.868  1.00  0.00     0.049 C 
HETATM   16  C14 UNL     1      26.405   6.478  48.552  1.00  0.00    -0.054 A 
HETATM   17  C15 UNL     1      26.387   7.893  48.059  1.00  0.00     0.049 C 
HETATM   18  C16 UNL     1      25.249   5.954  49.108  1.00  0.00     0.036 A 
ENDBRANCH   9  11
ENDBRANCH   8   9
BRANCH   1  19
HETATM   19  C3  UNL     1      25.281   0.218  52.529  1.00  0.00     0.005 C 
HETATM   20  C2  UNL     1      26.524  -0.255  52.302  1.00  0.00    -0.033 C 
HETATM   21  C1  UNL     1      26.850  -1.706  52.539  1.00  0.00     0.036 C 
ENDBRANCH   1  19
TORSDOF 3
ENDMDL
MODEL 6
REMARK VINA RESULT:      -7.4      3.143      5.382
REMARK  3 active torsions:
REMARK  status: ('A' for Active; 'I' for Inactive)
REMARK    1  A    between atoms: C3_3  and  C4_4 
REMARK    2  A    between atoms: C8_11  and  N3_12 
REMARK    3  A    between atoms: N3_12  and  C9_13 
ROOT
HETATM    1  C4  UNL     1      22.867   3.850  50.167  1.00  0.00     0.258 C 
HETATM    2  C5  UNL     1      24.030   2.776  50.445  1.00  0.00     0.151 C 
HETATM    3  C6  UNL     1      25.085   3.859  50.113  1.00  0.00     0.277 A 
HETATM    4 CL1  UNL     1      26.638   2.995  49.757  1.00  0.00    -0.082 Cl
HETATM    5  C7  UNL     1      24.825   5.283  50.083  1.00  0.00     0.313 A 
HETATM    6  N1  UNL     1      23.907   4.671  50.855  1.00  0.00     0.079 N 
HETATM    7  N2  UNL     1      23.522   4.253  52.126  1.00  0.00    -0.067 NA
HETATM    8  C8  UNL     1      23.832   2.898  51.946  1.00  0.00     0.142 C 
ENDROOT
BRANCH   8   9
HETATM    9  N3  UNL     1      23.930   1.877  52.934  1.00  0.00    -0.343 N 
HETATM   10  H9  UNL     1      23.066   1.687  53.520  1.00  0.00     0.167 HD
BRANCH   9  11
HETATM   11  C9  UNL     1      25.181   1.210  53.038  1.00  0.00     0.034 A 
HETATM   12  C10 UNL     1      25.425  -0.128  52.906  1.00  0.00     0.030 A 
HETATM   13  C11 UNL     1      26.695  -0.649  53.023  1.00  0.00     0.009 A 
HETATM   14  C12 UNL     1      27.799   0.135  53.282  1.00  0.00    -0.056 A 
HETATM   15  C13 UNL     1      29.147  -0.453  53.403  1.00  0.00     0.049 C 
HETATM   16  C14 UNL     1      27.584   1.472  53.420  1.00  0.00    -0.054 A 
HETATM   17  C15 UNL     1      28.722   2.405  53.701  1.00  0.00     0.049 C 
HETATM   18  C16 UNL     1      26.308   1.997  53.301  1.00  0.00     0.036 A 
ENDBRANCH   9  11
ENDBRANCH   8   9
BRANCH   1  19
HETATM   19  C3  UNL     1      22.777   4.072  48.745  1.00  0.00     0.005 C 
HETATM   20  C2  UNL     1      22.013   3.261  47.984  1.00  0.00    -0.033 C 
HETATM   21  C1  UNL     1      21.906   3.475  46.497  1.00  0.00     0.036 C 
ENDBRANCH   1  19
TORSDOF 3
ENDMDL
MODEL 7
REMARK VINA RESULT:      -7.3      2.777      6.343
REMARK  3 active torsions:
REMARK  status: ('A' for Active; 'I' for Inactive)
REMARK    1  A    between atoms: C3_3  and  C4_4 
REMARK    2  A    between atoms: C8_11  and  N3_12 
REMARK    3  A    between atoms: N3_12  and  C9_13 
ROOT
HETATM    1  C4  UNL     1      20.244   0.103  52.391  1.00  0.00     0.258 C 
HETATM    2  C5  UNL     1      21.661   0.118  51.631  1.00  0.00     0.151 C 
HETATM    3  C6  UNL     1      21.547   1.656  51.489  1.00  0.00     0.277 A 
HETATM    4 CL1  UNL     1      22.702   2.154  50.184  1.00  0.00    -0.082 Cl
HETATM    5  C7  UNL     1      20.653   2.493  52.262  1.00  0.00     0.313 A 
HETATM    6  N1  UNL     1      20.883   1.343  52.923  1.00  0.00     0.079 N 
HETATM    7  N2  UNL     1      21.645   0.651  53.862  1.00  0.00    -0.067 NA
HETATM    8  C8  UNL     1      22.405  -0.080  52.939  1.00  0.00     0.142 C 
ENDROOT
BRANCH   8   9
HETATM    9  N3  UNL     1      23.588  -0.836  53.174  1.00  0.00    -0.343 N 
HETATM   10  H9  UNL     1      23.489  -1.893  53.205  1.00  0.00     0.167 HD
BRANCH   9  11
HETATM   11  C9  UNL     1      24.792  -0.099  53.345  1.00  0.00     0.034 A 
HETATM   12  C10 UNL     1      25.653  -0.145  54.404  1.00  0.00     0.030 A 
HETATM   13  C11 UNL     1      26.799   0.621  54.442  1.00  0.00     0.009 A 
HETATM   14  C12 UNL     1      27.151   1.481  53.424  1.00  0.00    -0.056 A 
HETATM   15  C13 UNL     1      28.384   2.289  53.493  1.00  0.00     0.049 C 
HETATM   16  C14 UNL     1      26.309   1.547  52.356  1.00  0.00    -0.054 A 
HETATM   17  C15 UNL     1      26.608   2.451  51.200  1.00  0.00     0.049 C 
HETATM   18  C16 UNL     1      25.159   0.776  52.316  1.00  0.00     0.036 A 
ENDBRANCH   9  11
ENDBRANCH   8   9
BRANCH   1  19
HETATM   19  C3  UNL     1      19.201   0.338  51.424  1.00  0.00     0.005 C 
HETATM   20  C2  UNL     1      18.050  -0.363  51.491  1.00  0.00    -0.033 C 
HETATM   21  C1  UNL     1      16.948  -0.132  50.490  1.00  0.00     0.036 C 
ENDBRANCH   1  19
TORSDOF 3
ENDMDL
MODEL 8
REMARK VINA RESULT:      -7.2      3.866      5.852
REMARK  3 active torsions:
REMARK  status: ('A' for Active; 'I' for Inactive)
REMARK    1  A    between atoms: C3_3  and  C4_4 
REMARK    2  A    between atoms: C8_11  and  N3_12 
REMARK    3  A    between atoms: N3_12  and  C9_13 
ROOT
HETATM    1  C4  UNL     1      25.943   5.223  49.030  1.00  0.00     0.258 C 
HETATM    2  C5  UNL     1      25.266   5.708  50.405  1.00  0.00     0.151 C 
HETATM    3  C6  UNL     1      24.420   6.731  49.606  1.00  0.00     0.277 A 
HETATM    4 CL1  UNL     1      23.818   7.962  50.793  1.00  0.00    -0.082 Cl
HETATM    5  C7  UNL     1      24.201   6.683  48.176  1.00  0.00     0.313 A 
HETATM    6  N1  UNL     1      24.525   5.456  48.627  1.00  0.00     0.079 N 
HETATM    7  N2  UNL     1      24.094   4.222  49.107  1.00  0.00    -0.067 NA
HETATM    8  C8  UNL     1      24.395   4.465  50.455  1.00  0.00     0.142 C 
ENDROOT
BRANCH   8   9
HETATM    9  N3  UNL     1      23.987   3.720  51.597  1.00  0.00    -0.343 N 
HETATM   10  H9  UNL     1      23.183   4.112  52.168  1.00  0.00     0.167 HD
BRANCH   9  11
HETATM   11  C9  UNL     1      24.698   2.518  51.861  1.00  0.00     0.034 A 
HETATM   12  C10 UNL     1      25.947   2.177  51.425  1.00  0.00     0.030 A 
HETATM   13  C11 UNL     1      26.530   0.974  51.763  1.00  0.00     0.009 A 
HETATM   14  C12 UNL     1      25.898   0.038  52.555  1.00  0.00    -0.056 A 
HETATM   15  C13 UNL     1      26.548  -1.241  52.898  1.00  0.00     0.049 C 
HETATM   16  C14 UNL     1      24.652   0.353  53.002  1.00  0.00    -0.054 A 
HETATM   17  C15 UNL     1      23.887  -0.599  53.869  1.00  0.00     0.049 C 
HETATM   18  C16 UNL     1      24.065   1.562  52.665  1.00  0.00     0.036 A 
ENDBRANCH   9  11
ENDBRANCH   8   9
BRANCH   1  19
HETATM   19  C3  UNL     1      26.863   6.242  48.587  1.00  0.00     0.005 C 
HETATM   20  C2  UNL     1      28.124   5.906  48.243  1.00  0.00    -0.033 C 
HETATM   21  C1  UNL     1      29.101   6.955  47.779  1.00  0.00     0.036 C 
ENDBRANCH   1  19
TORSDOF 3
ENDMDL
MODEL 9
REMARK VINA RESULT:      -6.9      2.865      6.189
REMARK  3 active torsions:
REMARK  status: ('A' for Active; 'I' for Inactive)
REMARK    1  A    between atoms: C3_3  and  C4_4 
REMARK    2  A    between atoms: C8_11  and  N3_12 
REMARK    3  A    between atoms: N3_12  and  C9_13 
ROOT
HETATM    1  C4  UNL     1      27.344   0.700  53.070  1.00  0.00     0.258 C 
HETATM    2  C5  UNL     1      25.897   0.317  52.481  1.00  0.00     0.151 C 
HETATM    3  C6  UNL     1      25.401   0.052  53.924  1.00  0.00     0.277 A 
HETATM    4 CL1  UNL     1      23.899  -0.954  53.791  1.00  0.00    -0.082 Cl
HETATM    5  C7  UNL     1      26.061   0.521  55.124  1.00  0.00     0.313 A 
HETATM    6  N1  UNL     1      26.417   1.293  54.079  1.00  0.00     0.079 N 
HETATM    7  N2  UNL     1      26.178   2.435  53.318  1.00  0.00    -0.067 NA
HETATM    8  C8  UNL     1      25.570   1.780  52.239  1.00  0.00     0.142 C 
ENDROOT
BRANCH   8   9
HETATM    9  N3  UNL     1      24.827   2.350  51.167  1.00  0.00    -0.343 N 
HETATM   10  H9  UNL     1      23.845   1.981  51.008  1.00  0.00     0.167 HD
BRANCH   9  11
HETATM   11  C9  UNL     1      25.476   3.364  50.411  1.00  0.00     0.034 A 
HETATM   12  C10 UNL     1      26.616   3.247  49.666  1.00  0.00     0.030 A 
HETATM   13  C11 UNL     1      27.140   4.313  48.968  1.00  0.00     0.009 A 
HETATM   14  C12 UNL     1      26.558   5.564  48.974  1.00  0.00    -0.056 A 
HETATM   15  C13 UNL     1      27.143   6.687  48.218  1.00  0.00     0.049 C 
HETATM   16  C14 UNL     1      25.422   5.708  49.710  1.00  0.00    -0.054 A 
HETATM   17  C15 UNL     1      24.717   7.028  49.777  1.00  0.00     0.049 C 
HETATM   18  C16 UNL     1      24.893   4.637  50.410  1.00  0.00     0.036 A 
ENDBRANCH   9  11
ENDBRANCH   8   9
BRANCH   1  19
HETATM   19  C3  UNL     1      27.999  -0.509  53.501  1.00  0.00     0.005 C 
HETATM   20  C2  UNL     1      28.031  -1.585  52.687  1.00  0.00    -0.033 C 
HETATM   21  C1  UNL     1      28.710  -2.858  53.120  1.00  0.00     0.036 C 
ENDBRANCH   1  19
TORSDOF 3
ENDMDL
