MODEL 1
REMARK VINA RESULT:      -7.0      0.000      0.000
REMARK  6 active torsions:
REMARK  status: ('A' for Active; 'I' for Inactive)
REMARK    1  A    between atoms: C4_6  and  N3_7 
REMARK    2  A    between atoms: N3_7  and  C5_8 
REMARK    3  A    between atoms: C5_8  and  C6_9 
REMARK    4  A    between atoms: C8_12  and  C9_13 
REMARK    5  A    between atoms: C10_14  and  C11_15 
REMARK    6  A    between atoms: C11_15  and  N4_16 
ROOT
HETATM    1  C1  UNL     1      26.150  -0.258  55.289  1.00  0.00     0.072 C 
HETATM    2  C2  UNL     1      26.956   0.667  54.460  1.00  0.00     0.054 A 
HETATM    3  N1  UNL     1      28.212   0.877  54.851  1.00  0.00    -0.245 NA
HETATM    4  C3  UNL     1      29.040   1.675  54.213  1.00  0.00     0.235 A 
HETATM    5  N2  UNL     1      28.623   2.317  53.119  1.00  0.00    -0.223 NA
HETATM    6  C4  UNL     1      27.394   2.190  52.630  1.00  0.00     0.146 A 
HETATM    7  C8  UNL     1      26.532   1.332  53.331  1.00  0.00     0.087 A 
ENDROOT
BRANCH   7   8
HETATM    8  C9  UNL     1      25.144   1.055  52.982  1.00  0.00    -0.059 C 
HETATM    9  C10 UNL     1      23.993   0.841  52.678  1.00  0.00    -0.071 C 
BRANCH   9  10
HETATM   10  C11 UNL     1      22.613   0.569  52.294  1.00  0.00     0.366 C 
BRANCH  10  11
HETATM   11  N4  UNL     1      21.741   0.733  53.407  1.00  0.00     0.103 N 
HETATM   12  C12 UNL     1      21.992  -0.074  54.548  1.00  0.00     0.299 C 
HETATM   13  C13 UNL     1      21.392  -1.429  54.440  1.00  0.00     0.198 C 
HETATM   14  O1  UNL     1      20.337  -1.556  53.558  1.00  0.00    -0.388 OA
HETATM   15  C14 UNL     1      19.554  -0.410  53.477  1.00  0.00     0.198 C 
HETATM   16  C15 UNL     1      20.364   0.797  53.057  1.00  0.00     0.299 C 
ENDBRANCH  10  11
ENDBRANCH   9  10
ENDBRANCH   7   8
BRANCH   6  17
HETATM   17  N3  UNL     1      26.675   2.701  51.521  1.00  0.00    -0.370 N 
HETATM   18  H5  UNL     1      26.018   1.858  51.503  1.00  0.00     0.161 HD
BRANCH  17  19
HETATM   19  C5  UNL     1      25.972   3.200  50.436  1.00  0.00     0.149 C 
BRANCH  19  20
HETATM   20  C6  UNL     1      26.782   3.882  49.364  1.00  0.00     0.004 C 
HETATM   21  C7  UNL     1      26.717   5.174  49.078  1.00  0.00     0.082 C 
HETATM   22 CL1  UNL     1      27.273   6.515  48.101  1.00  0.00    -0.097 Cl
ENDBRANCH  19  20
ENDBRANCH  17  19
ENDBRANCH   6  17
TORSDOF 6
ENDMDL
MODEL 2
REMARK VINA RESULT:      -6.8      1.694      2.146
REMARK  6 active torsions:
REMARK  status: ('A' for Active; 'I' for Inactive)
REMARK    1  A    between atoms: C4_6  and  N3_7 
REMARK    2  A    between atoms: N3_7  and  C5_8 
REMARK    3  A    between atoms: C5_8  and  C6_9 
REMARK    4  A    between atoms: C8_12  and  C9_13 
REMARK    5  A    between atoms: C10_14  and  C11_15 
REMARK    6  A    between atoms: C11_15  and  N4_16 
ROOT
HETATM    1  C1  UNL     1      26.063  -0.070  55.167  1.00  0.00     0.072 C 
HETATM    2  C2  UNL     1      26.804   0.838  54.263  1.00  0.00     0.054 A 
HETATM    3  N1  UNL     1      28.091   1.039  54.544  1.00  0.00    -0.245 NA
HETATM    4  C3  UNL     1      28.869   1.823  53.830  1.00  0.00     0.235 A 
HETATM    5  N2  UNL     1      28.366   2.458  52.768  1.00  0.00    -0.223 NA
HETATM    6  C4  UNL     1      27.100   2.339  52.386  1.00  0.00     0.146 A 
HETATM    7  C8  UNL     1      26.292   1.496  53.166  1.00  0.00     0.087 A 
ENDROOT
BRANCH   7   8
HETATM    8  C9  UNL     1      24.877   1.230  52.939  1.00  0.00    -0.059 C 
HETATM    9  C10 UNL     1      23.707   1.005  52.729  1.00  0.00    -0.071 C 
BRANCH   9  10
HETATM   10  C11 UNL     1      22.301   0.710  52.481  1.00  0.00     0.366 C 
BRANCH  10  11
HETATM   11  N4  UNL     1      21.801   1.512  51.416  1.00  0.00     0.103 N 
HETATM   12  C12 UNL     1      22.041   2.910  51.493  1.00  0.00     0.299 C 
HETATM   13  C13 UNL     1      21.041   3.622  52.329  1.00  0.00     0.198 C 
HETATM   14  O1  UNL     1      19.827   2.984  52.497  1.00  0.00    -0.388 OA
HETATM   15  C14 UNL     1      19.444   2.243  51.385  1.00  0.00     0.198 C 
HETATM   16  C15 UNL     1      20.471   1.192  51.028  1.00  0.00     0.299 C 
ENDBRANCH  10  11
ENDBRANCH   9  10
ENDBRANCH   7   8
BRANCH   6  17
HETATM   17  N3  UNL     1      26.294   2.846  51.336  1.00  0.00    -0.370 N 
HETATM   18  H5  UNL     1      25.822   3.556  51.982  1.00  0.00     0.161 HD
BRANCH  17  19
HETATM   19  C5  UNL     1      25.507   3.343  50.310  1.00  0.00     0.149 C 
BRANCH  19  20
HETATM   20  C6  UNL     1      26.066   4.508  49.535  1.00  0.00     0.004 C 
HETATM   21  C7  UNL     1      27.299   4.570  49.054  1.00  0.00     0.082 C 
HETATM   22 CL1  UNL     1      28.511   5.471  48.170  1.00  0.00    -0.097 Cl
ENDBRANCH  19  20
ENDBRANCH  17  19
ENDBRANCH   6  17
TORSDOF 6
ENDMDL
MODEL 3
REMARK VINA RESULT:      -6.8      2.551      5.960
REMARK  6 active torsions:
REMARK  status: ('A' for Active; 'I' for Inactive)
REMARK    1  A    between atoms: C4_6  and  N3_7 
REMARK    2  A    between atoms: N3_7  and  C5_8 
REMARK    3  A    between atoms: C5_8  and  C6_9 
REMARK    4  A    between atoms: C8_12  and  C9_13 
REMARK    5  A    between atoms: C10_14  and  C11_15 
REMARK    6  A    between atoms: C11_15  and  N4_16 
ROOT
HETATM    1  C1  UNL     1      21.637  -1.630  53.993  1.00  0.00     0.072 C 
HETATM    2  C2  UNL     1      21.345  -0.380  53.255  1.00  0.00     0.054 A 
HETATM    3  N1  UNL     1      20.087  -0.205  52.854  1.00  0.00    -0.245 NA
HETATM    4  C3  UNL     1      19.686   0.855  52.186  1.00  0.00     0.235 A 
HETATM    5  N2  UNL     1      20.567   1.814  51.885  1.00  0.00    -0.223 NA
HETATM    6  C4  UNL     1      21.848   1.754  52.229  1.00  0.00     0.146 A 
HETATM    7  C8  UNL     1      22.248   0.612  52.941  1.00  0.00     0.087 A 
ENDROOT
BRANCH   7   8
HETATM    8  C9  UNL     1      23.600   0.334  53.406  1.00  0.00    -0.059 C 
HETATM    9  C10 UNL     1      24.716   0.087  53.805  1.00  0.00    -0.071 C 
BRANCH   9  10
HETATM   10  C11 UNL     1      26.063  -0.228  54.266  1.00  0.00     0.366 C 
BRANCH  10  11
HETATM   11  N4  UNL     1      27.030   0.178  53.303  1.00  0.00     0.103 N 
HETATM   12  C12 UNL     1      28.280  -0.497  53.320  1.00  0.00     0.299 C 
HETATM   13  C13 UNL     1      29.225   0.064  54.319  1.00  0.00     0.198 C 
HETATM   14  O1  UNL     1      28.987   1.366  54.714  1.00  0.00    -0.388 OA
HETATM   15  C14 UNL     1      28.455   2.154  53.699  1.00  0.00     0.198 C 
HETATM   16  C15 UNL     1      27.156   1.588  53.169  1.00  0.00     0.299 C 
ENDBRANCH  10  11
ENDBRANCH   9  10
ENDBRANCH   7   8
BRANCH   6  17
HETATM   17  N3  UNL     1      22.988   2.583  52.082  1.00  0.00    -0.370 N 
HETATM   18  H5  UNL     1      22.562   3.095  51.245  1.00  0.00     0.161 HD
BRANCH  17  19
HETATM   19  C5  UNL     1      24.103   3.394  51.937  1.00  0.00     0.149 C 
BRANCH  19  20
HETATM   20  C6  UNL     1      25.051   3.042  50.820  1.00  0.00     0.004 C 
HETATM   21  C7  UNL     1      25.847   3.906  50.207  1.00  0.00     0.082 C 
HETATM   22 CL1  UNL     1      27.063   4.207  48.986  1.00  0.00    -0.097 Cl
ENDBRANCH  19  20
ENDBRANCH  17  19
ENDBRANCH   6  17
TORSDOF 6
ENDMDL
MODEL 4
REMARK VINA RESULT:      -6.7      3.174      6.291
REMARK  6 active torsions:
REMARK  status: ('A' for Active; 'I' for Inactive)
REMARK    1  A    between atoms: C4_6  and  N3_7 
REMARK    2  A    between atoms: N3_7  and  C5_8 
REMARK    3  A    between atoms: C5_8  and  C6_9 
REMARK    4  A    between atoms: C8_12  and  C9_13 
REMARK    5  A    between atoms: C10_14  and  C11_15 
REMARK    6  A    between atoms: C11_15  and  N4_16 
ROOT
HETATM    1  C1  UNL     1      22.266  -1.134  54.958  1.00  0.00     0.072 C 
HETATM    2  C2  UNL     1      21.455  -0.630  53.827  1.00  0.00     0.054 A 
HETATM    3  N1  UNL     1      20.148  -0.883  53.871  1.00  0.00    -0.245 NA
HETATM    4  C3  UNL     1      19.309  -0.499  52.934  1.00  0.00     0.235 A 
HETATM    5  N2  UNL     1      19.768   0.179  51.878  1.00  0.00    -0.223 NA
HETATM    6  C4  UNL     1      21.049   0.492  51.720  1.00  0.00     0.146 A 
HETATM    7  C8  UNL     1      21.922   0.070  52.735  1.00  0.00     0.087 A 
ENDROOT
BRANCH   7   8
HETATM    8  C9  UNL     1      23.362   0.292  52.762  1.00  0.00    -0.059 C 
HETATM    9  C10 UNL     1      24.557   0.472  52.805  1.00  0.00    -0.071 C 
BRANCH   9  10
HETATM   10  C11 UNL     1      26.002   0.664  52.851  1.00  0.00     0.366 C 
BRANCH  10  11
HETATM   11  N4  UNL     1      26.609  -0.302  53.703  1.00  0.00     0.103 N 
HETATM   12  C12 UNL     1      27.245   0.183  54.877  1.00  0.00     0.299 C 
HETATM   13  C13 UNL     1      28.632   0.652  54.631  1.00  0.00     0.198 C 
HETATM   14  O1  UNL     1      29.256   0.141  53.510  1.00  0.00    -0.388 OA
HETATM   15  C14 UNL     1      28.872  -1.164  53.222  1.00  0.00     0.198 C 
HETATM   16  C15 UNL     1      27.378  -1.279  53.013  1.00  0.00     0.299 C 
ENDBRANCH  10  11
ENDBRANCH   9  10
ENDBRANCH   7   8
BRANCH   6  17
HETATM   17  N3  UNL     1      21.822   1.191  50.759  1.00  0.00    -0.370 N 
HETATM   18  H5  UNL     1      22.535   1.500  51.493  1.00  0.00     0.161 HD
BRANCH  17  19
HETATM   19  C5  UNL     1      22.578   1.874  49.820  1.00  0.00     0.149 C 
BRANCH  19  20
HETATM   20  C6  UNL     1      23.075   3.239  50.219  1.00  0.00     0.004 C 
HETATM   21  C7  UNL     1      23.133   3.685  51.466  1.00  0.00     0.082 C 
HETATM   22 CL1  UNL     1      23.537   4.982  52.568  1.00  0.00    -0.097 Cl
ENDBRANCH  19  20
ENDBRANCH  17  19
ENDBRANCH   6  17
TORSDOF 6
ENDMDL
MODEL 5
REMARK VINA RESULT:      -6.5      3.464      6.527
REMARK  6 active torsions:
REMARK  status: ('A' for Active; 'I' for Inactive)
REMARK    1  A    between atoms: C4_6  and  N3_7 
REMARK    2  A    between atoms: N3_7  and  C5_8 
REMARK    3  A    between atoms: C5_8  and  C6_9 
REMARK    4  A    between atoms: C8_12  and  C9_13 
REMARK    5  A    between atoms: C10_14  and  C11_15 
REMARK    6  A    between atoms: C11_15  and  N4_16 
ROOT
HETATM    1  C1  UNL     1      27.737   4.808  48.630  1.00  0.00     0.072 C 
HETATM    2  C2  UNL     1      26.416   5.374  48.982  1.00  0.00     0.054 A 
HETATM    3  N1  UNL     1      26.058   6.491  48.351  1.00  0.00    -0.245 NA
HETATM    4  C3  UNL     1      24.915   7.105  48.566  1.00  0.00     0.235 A 
HETATM    5  N2  UNL     1      24.057   6.602  49.457  1.00  0.00    -0.223 NA
HETATM    6  C4  UNL     1      24.298   5.496  50.151  1.00  0.00     0.146 A 
HETATM    7  C8  UNL     1      25.526   4.861  49.900  1.00  0.00     0.087 A 
ENDROOT
BRANCH   7   8
HETATM    8  C9  UNL     1      26.001   3.648  50.553  1.00  0.00    -0.059 C 
HETATM    9  C10 UNL     1      26.416   2.647  51.091  1.00  0.00    -0.071 C 
BRANCH   9  10
HETATM   10  C11 UNL     1      26.915   1.452  51.762  1.00  0.00     0.366 C 
BRANCH  10  11
HETATM   11  N4  UNL     1      27.292   1.751  53.102  1.00  0.00     0.103 N 
HETATM   12  C12 UNL     1      28.639   1.488  53.467  1.00  0.00     0.299 C 
HETATM   13  C13 UNL     1      28.867   0.072  53.853  1.00  0.00     0.198 C 
HETATM   14  O1  UNL     1      27.751  -0.633  54.261  1.00  0.00    -0.388 OA
HETATM   15  C14 UNL     1      26.824   0.158  54.929  1.00  0.00     0.198 C 
HETATM   16  C15 UNL     1      26.352   1.315  54.077  1.00  0.00     0.299 C 
ENDBRANCH  10  11
ENDBRANCH   9  10
ENDBRANCH   7   8
BRANCH   6  17
HETATM   17  N3  UNL     1      23.611   4.723  51.120  1.00  0.00    -0.370 N 
HETATM   18  H5  UNL     1      22.742   4.641  50.503  1.00  0.00     0.161 HD
BRANCH  17  19
HETATM   19  C5  UNL     1      22.939   3.968  52.068  1.00  0.00     0.149 C 
BRANCH  19  20
HETATM   20  C6  UNL     1      22.786   2.498  51.772  1.00  0.00     0.004 C 
HETATM   21  C7  UNL     1      22.996   1.527  52.650  1.00  0.00     0.082 C 
HETATM   22 CL1  UNL     1      23.019  -0.187  53.000  1.00  0.00    -0.097 Cl
ENDBRANCH  19  20
ENDBRANCH  17  19
ENDBRANCH   6  17
TORSDOF 6
ENDMDL
MODEL 6
REMARK VINA RESULT:      -6.5      1.679      1.948
REMARK  6 active torsions:
REMARK  status: ('A' for Active; 'I' for Inactive)
REMARK    1  A    between atoms: C4_6  and  N3_7 
REMARK    2  A    between atoms: N3_7  and  C5_8 
REMARK    3  A    between atoms: C5_8  and  C6_9 
REMARK    4  A    between atoms: C8_12  and  C9_13 
REMARK    5  A    between atoms: C10_14  and  C11_15 
REMARK    6  A    between atoms: C11_15  and  N4_16 
ROOT
HETATM    1  C1  UNL     1      26.084  -0.149  55.091  1.00  0.00     0.072 C 
HETATM    2  C2  UNL     1      26.957   0.777  54.335  1.00  0.00     0.054 A 
HETATM    3  N1  UNL     1      28.192   0.949  54.804  1.00  0.00    -0.245 NA
HETATM    4  C3  UNL     1      29.073   1.743  54.236  1.00  0.00     0.235 A 
HETATM    5  N2  UNL     1      28.734   2.420  53.136  1.00  0.00    -0.223 NA
HETATM    6  C4  UNL     1      27.535   2.334  52.573  1.00  0.00     0.146 A 
HETATM    7  C8  UNL     1      26.614   1.478  53.200  1.00  0.00     0.087 A 
ENDROOT
BRANCH   7   8
HETATM    8  C9  UNL     1      25.244   1.242  52.763  1.00  0.00    -0.059 C 
HETATM    9  C10 UNL     1      24.103   1.067  52.402  1.00  0.00    -0.071 C 
BRANCH   9  10
HETATM   10  C11 UNL     1      22.735   0.857  51.942  1.00  0.00     0.366 C 
BRANCH  10  11
HETATM   11  N4  UNL     1      21.805   1.411  52.867  1.00  0.00     0.103 N 
HETATM   12  C12 UNL     1      21.011   0.495  53.608  1.00  0.00     0.299 C 
HETATM   13  C13 UNL     1      19.807   0.042  52.865  1.00  0.00     0.198 C 
HETATM   14  O1  UNL     1      19.376   0.870  51.846  1.00  0.00    -0.388 OA
HETATM   15  C14 UNL     1      19.598   2.216  52.110  1.00  0.00     0.198 C 
HETATM   16  C15 UNL     1      21.063   2.509  52.353  1.00  0.00     0.299 C 
ENDBRANCH  10  11
ENDBRANCH   9  10
ENDBRANCH   7   8
BRANCH   6  17
HETATM   17  N3  UNL     1      26.894   2.887  51.436  1.00  0.00    -0.370 N 
HETATM   18  H5  UNL     1      27.113   2.028  50.839  1.00  0.00     0.161 HD
BRANCH  17  19
HETATM   19  C5  UNL     1      26.266   3.428  50.325  1.00  0.00     0.149 C 
BRANCH  19  20
HETATM   20  C6  UNL     1      24.967   4.151  50.570  1.00  0.00     0.004 C 
HETATM   21  C7  UNL     1      23.884   4.031  49.816  1.00  0.00     0.082 C 
HETATM   22 CL1  UNL     1      22.224   4.486  49.508  1.00  0.00    -0.097 Cl
ENDBRANCH  19  20
ENDBRANCH  17  19
ENDBRANCH   6  17
TORSDOF 6
ENDMDL
MODEL 7
REMARK VINA RESULT:      -6.5      3.486      5.231
REMARK  6 active torsions:
REMARK  status: ('A' for Active; 'I' for Inactive)
REMARK    1  A    between atoms: C4_6  and  N3_7 
REMARK    2  A    between atoms: N3_7  and  C5_8 
REMARK    3  A    between atoms: C5_8  and  C6_9 
REMARK    4  A    between atoms: C8_12  and  C9_13 
REMARK    5  A    between atoms: C10_14  and  C11_15 
REMARK    6  A    between atoms: C11_15  and  N4_16 
ROOT
HETATM    1  C1  UNL     1      27.156   2.481  51.771  1.00  0.00     0.072 C 
HETATM    2  C2  UNL     1      27.502   1.585  52.898  1.00  0.00     0.054 A 
HETATM    3  N1  UNL     1      28.799   1.406  53.141  1.00  0.00    -0.245 NA
HETATM    4  C3  UNL     1      29.250   0.636  54.107  1.00  0.00     0.235 A 
HETATM    5  N2  UNL     1      28.383  -0.008  54.893  1.00  0.00    -0.223 NA
HETATM    6  C4  UNL     1      27.067   0.089  54.751  1.00  0.00     0.146 A 
HETATM    7  C8  UNL     1      26.613   0.918  53.713  1.00  0.00     0.087 A 
ENDROOT
BRANCH   7   8
HETATM    8  C9  UNL     1      25.218   1.161  53.369  1.00  0.00    -0.059 C 
HETATM    9  C10 UNL     1      24.061   1.347  53.068  1.00  0.00    -0.071 C 
BRANCH   9  10
HETATM   10  C11 UNL     1      22.660   1.554  52.720  1.00  0.00     0.366 C 
BRANCH  10  11
HETATM   11  N4  UNL     1      22.548   2.289  51.506  1.00  0.00     0.103 N 
HETATM   12  C12 UNL     1      22.984   3.640  51.528  1.00  0.00     0.299 C 
HETATM   13  C13 UNL     1      21.947   4.573  52.039  1.00  0.00     0.198 C 
HETATM   14  O1  UNL     1      20.641   4.130  51.960  1.00  0.00    -0.388 OA
HETATM   15  C14 UNL     1      20.406   3.326  50.851  1.00  0.00     0.198 C 
HETATM   16  C15 UNL     1      21.306   2.110  50.836  1.00  0.00     0.299 C 
ENDBRANCH  10  11
ENDBRANCH   9  10
ENDBRANCH   7   8
BRANCH   6  17
HETATM   17  N3  UNL     1      25.923  -0.432  55.408  1.00  0.00    -0.370 N 
HETATM   18  H5  UNL     1      25.257   0.100  54.763  1.00  0.00     0.161 HD
BRANCH  17  19
HETATM   19  C5  UNL     1      24.806  -0.941  56.049  1.00  0.00     0.149 C 
BRANCH  19  20
HETATM   20  C6  UNL     1      23.780  -1.619  55.178  1.00  0.00     0.004 C 
HETATM   21  C7  UNL     1      22.505  -1.266  55.102  1.00  0.00     0.082 C 
HETATM   22 CL1  UNL     1      20.921  -1.537  54.409  1.00  0.00    -0.097 Cl
ENDBRANCH  19  20
ENDBRANCH  17  19
ENDBRANCH   6  17
TORSDOF 6
ENDMDL
MODEL 8
REMARK VINA RESULT:      -6.5      3.962      5.790
REMARK  6 active torsions:
REMARK  status: ('A' for Active; 'I' for Inactive)
REMARK    1  A    between atoms: C4_6  and  N3_7 
REMARK    2  A    between atoms: N3_7  and  C5_8 
REMARK    3  A    between atoms: C5_8  and  C6_9 
REMARK    4  A    between atoms: C8_12  and  C9_13 
REMARK    5  A    between atoms: C10_14  and  C11_15 
REMARK    6  A    between atoms: C11_15  and  N4_16 
ROOT
HETATM    1  C1  UNL     1      26.369   2.011  51.314  1.00  0.00     0.072 C 
HETATM    2  C2  UNL     1      26.265   0.866  52.247  1.00  0.00     0.054 A 
HETATM    3  N1  UNL     1      27.375   0.158  52.448  1.00  0.00    -0.245 NA
HETATM    4  C3  UNL     1      27.429  -0.886  53.246  1.00  0.00     0.235 A 
HETATM    5  N2  UNL     1      26.328  -1.273  53.896  1.00  0.00    -0.223 NA
HETATM    6  C4  UNL     1      25.161  -0.649  53.779  1.00  0.00     0.146 A 
HETATM    7  C8  UNL     1      25.133   0.462  52.921  1.00  0.00     0.087 A 
ENDROOT
BRANCH   7   8
HETATM    8  C9  UNL     1      23.964   1.282  52.635  1.00  0.00    -0.059 C 
HETATM    9  C10 UNL     1      22.980   1.948  52.406  1.00  0.00    -0.071 C 
BRANCH   9  10
HETATM   10  C11 UNL     1      21.797   2.761  52.152  1.00  0.00     0.366 C 
BRANCH  10  11
HETATM   11  N4  UNL     1      21.901   3.419  50.893  1.00  0.00     0.103 N 
HETATM   12  C12 UNL     1      23.049   4.227  50.682  1.00  0.00     0.299 C 
HETATM   13  C13 UNL     1      22.905   5.595  51.242  1.00  0.00     0.198 C 
HETATM   14  O1  UNL     1      21.610   6.039  51.433  1.00  0.00    -0.388 OA
HETATM   15  C14 UNL     1      20.722   5.549  50.482  1.00  0.00     0.198 C 
HETATM   16  C15 UNL     1      20.694   4.036  50.463  1.00  0.00     0.299 C 
ENDBRANCH  10  11
ENDBRANCH   9  10
ENDBRANCH   7   8
BRANCH   6  17
HETATM   17  N3  UNL     1      23.862  -0.795  54.327  1.00  0.00    -0.370 N 
HETATM   18  H5  UNL     1      23.814  -1.827  54.050  1.00  0.00     0.161 HD
BRANCH  17  19
HETATM   19  C5  UNL     1      22.592  -0.938  54.862  1.00  0.00     0.149 C 
BRANCH  19  20
HETATM   20  C6  UNL     1      21.498  -1.335  53.905  1.00  0.00     0.004 C 
HETATM   21  C7  UNL     1      20.496  -0.549  53.539  1.00  0.00     0.082 C 
HETATM   22 CL1  UNL     1      19.039  -0.332  52.594  1.00  0.00    -0.097 Cl
ENDBRANCH  19  20
ENDBRANCH  17  19
ENDBRANCH   6  17
TORSDOF 6
ENDMDL
MODEL 9
REMARK VINA RESULT:      -6.5      3.637      5.455
REMARK  6 active torsions:
REMARK  status: ('A' for Active; 'I' for Inactive)
REMARK    1  A    between atoms: C4_6  and  N3_7 
REMARK    2  A    between atoms: N3_7  and  C5_8 
REMARK    3  A    between atoms: C5_8  and  C6_9 
REMARK    4  A    between atoms: C8_12  and  C9_13 
REMARK    5  A    between atoms: C10_14  and  C11_15 
REMARK    6  A    between atoms: C11_15  and  N4_16 
ROOT
HETATM    1  C1  UNL     1      26.093   2.079  51.360  1.00  0.00     0.072 C 
HETATM    2  C2  UNL     1      26.138   0.988  52.360  1.00  0.00     0.054 A 
HETATM    3  N1  UNL     1      27.335   0.465  52.619  1.00  0.00    -0.245 NA
HETATM    4  C3  UNL     1      27.523  -0.511  53.481  1.00  0.00     0.235 A 
HETATM    5  N2  UNL     1      26.476  -1.017  54.138  1.00  0.00    -0.223 NA
HETATM    6  C4  UNL     1      25.234  -0.581  53.967  1.00  0.00     0.146 A 
HETATM    7  C8  UNL     1      25.062   0.462  53.042  1.00  0.00     0.087 A 
ENDROOT
BRANCH   7   8
HETATM    8  C9  UNL     1      23.792   1.083  52.690  1.00  0.00    -0.059 C 
HETATM    9  C10 UNL     1      22.747   1.608  52.380  1.00  0.00    -0.071 C 
BRANCH   9  10
HETATM   10  C11 UNL     1      21.482   2.221  51.993  1.00  0.00     0.366 C 
BRANCH  10  11
HETATM   11  N4  UNL     1      20.642   1.271  51.346  1.00  0.00     0.103 N 
HETATM   12  C12 UNL     1      21.223   0.500  50.304  1.00  0.00     0.299 C 
HETATM   13  C13 UNL     1      21.222   1.203  48.996  1.00  0.00     0.198 C 
HETATM   14  O1  UNL     1      20.291   2.213  48.851  1.00  0.00    -0.388 OA
HETATM   15  C14 UNL     1      19.109   1.966  49.540  1.00  0.00     0.198 C 
HETATM   16  C15 UNL     1      19.350   1.770  51.020  1.00  0.00     0.299 C 
ENDBRANCH  10  11
ENDBRANCH   9  10
ENDBRANCH   7   8
BRANCH   6  17
HETATM   17  N3  UNL     1      23.958  -0.884  54.505  1.00  0.00    -0.370 N 
HETATM   18  H5  UNL     1      23.996  -0.054  55.178  1.00  0.00     0.161 HD
BRANCH  17  19
HETATM   19  C5  UNL     1      22.710  -1.180  55.031  1.00  0.00     0.149 C 
BRANCH  19  20
HETATM   20  C6  UNL     1      21.643  -1.584  54.047  1.00  0.00     0.004 C 
HETATM   21  C7  UNL     1      20.410  -1.098  54.031  1.00  0.00     0.082 C 
HETATM   22 CL1  UNL     1      18.824  -1.081  53.293  1.00  0.00    -0.097 Cl
ENDBRANCH  19  20
ENDBRANCH  17  19
ENDBRANCH   6  17
TORSDOF 6
ENDMDL
