MODEL 1
REMARK VINA RESULT:      -8.1      0.000      0.000
REMARK  2 active torsions:
REMARK  status: ('A' for Active; 'I' for Inactive)
REMARK    1  A    between atoms: C2_2  and  C3_3 
REMARK       I    between atoms: C3_3  and  N1_5 
REMARK    2  A    between atoms: C7_9  and  N2_10 
ROOT
HETATM    1  C3  UNL     1      28.106   0.134  54.422  1.00  0.00     0.219 C 
HETATM    2  O1  UNL     1      28.185   0.070  55.694  1.00  0.00    -0.273 OA
HETATM    3  N1  UNL     1      26.918   0.073  53.669  1.00  0.00    -0.346 N 
HETATM    4  C4  UNL     1      26.799   0.143  52.198  1.00  0.00     0.153 C 
HETATM    5  C5  UNL     1      25.585   0.979  51.866  1.00  0.00     0.006 C 
HETATM    6  C6  UNL     1      24.387   0.770  52.435  1.00  0.00     0.012 A 
HETATM    7  C7  UNL     1      23.222   1.576  52.116  1.00  0.00     0.140 A 
HETATM    8  N3  UNL     1      22.175   1.262  52.818  1.00  0.00    -0.224 NA
HETATM    9  C14 UNL     1      22.269   0.212  53.769  1.00  0.00     0.229 A 
HETATM   10  N4  UNL     1      23.282  -0.555  54.086  1.00  0.00    -0.271 NA
HETATM   11  C15 UNL     1      24.530  -0.373  53.401  1.00  0.00     0.164 A 
HETATM   12  C16 UNL     1      25.621  -0.078  54.368  1.00  0.00     0.158 C 
ENDROOT
BRANCH   7  13
HETATM   13  N2  UNL     1      23.392   2.565  51.108  1.00  0.00    -0.332 N 
HETATM   14  C8  UNL     1      22.770   2.328  49.847  1.00  0.00     0.112 A 
HETATM   15  C9  UNL     1      22.930   3.255  48.913  1.00  0.00     0.026 A 
HETATM   16 BR1  UNL     1      22.114   2.955  47.238  1.00  0.00    -0.050 Br
HETATM   17  C10 UNL     1      23.697   4.478  49.119  1.00  0.00     0.018 A 
HETATM   18  C11 UNL     1      24.242   4.623  50.315  1.00  0.00    -0.000 A 
HETATM   19  C12 UNL     1      24.188   3.717  51.491  1.00  0.00     0.109 A 
HETATM   20  C13 UNL     1      23.458   4.470  52.585  1.00  0.00     0.037 C 
ENDBRANCH   7  13
BRANCH   1  21
HETATM   21  C2  UNL     1      29.386   0.286  53.671  1.00  0.00     0.098 C 
HETATM   22  C1  UNL     1      30.095  -1.041  53.540  1.00  0.00     0.014 C 
ENDBRANCH   1  21
TORSDOF 2
ENDMDL
MODEL 2
REMARK VINA RESULT:      -7.5      1.730      2.311
REMARK  2 active torsions:
REMARK  status: ('A' for Active; 'I' for Inactive)
REMARK    1  A    between atoms: C2_2  and  C3_3 
REMARK       I    between atoms: C3_3  and  N1_5 
REMARK    2  A    between atoms: C7_9  and  N2_10 
ROOT
HETATM    1  C3  UNL     1      27.496  -0.002  54.229  1.00  0.00     0.219 C 
HETATM    2  O1  UNL     1      27.835  -0.134  55.452  1.00  0.00    -0.273 OA
HETATM    3  N1  UNL     1      26.192  -0.147  53.718  1.00  0.00    -0.346 N 
HETATM    4  C4  UNL     1      25.774  -0.000  52.308  1.00  0.00     0.153 C 
HETATM    5  C5  UNL     1      24.445   0.718  52.286  1.00  0.00     0.006 C 
HETATM    6  C6  UNL     1      23.411   0.345  53.058  1.00  0.00     0.012 A 
HETATM    7  C7  UNL     1      22.135   1.038  53.036  1.00  0.00     0.140 A 
HETATM    8  N3  UNL     1      21.285   0.570  53.901  1.00  0.00    -0.224 NA
HETATM    9  C14 UNL     1      21.666  -0.519  54.727  1.00  0.00     0.229 A 
HETATM   10  N4  UNL     1      22.790  -1.190  54.779  1.00  0.00    -0.271 NA
HETATM   11  C15 UNL     1      23.852  -0.832  53.882  1.00  0.00     0.164 A 
HETATM   12  C16 UNL     1      25.082  -0.479  54.640  1.00  0.00     0.158 C 
ENDROOT
BRANCH   7  13
HETATM   13  N2  UNL     1      22.004   2.100  52.098  1.00  0.00    -0.332 N 
HETATM   14  C8  UNL     1      22.851   3.233  52.273  1.00  0.00     0.112 A 
HETATM   15  C9  UNL     1      22.727   4.218  51.394  1.00  0.00     0.026 A 
HETATM   16 BR1  UNL     1      23.840   5.726  51.612  1.00  0.00    -0.050 Br
HETATM   17  C10 UNL     1      21.782   4.189  50.284  1.00  0.00     0.018 A 
HETATM   18  C11 UNL     1      21.034   3.103  50.192  1.00  0.00    -0.000 A 
HETATM   19  C12 UNL     1      21.012   1.897  51.059  1.00  0.00     0.109 A 
HETATM   20  C13 UNL     1      21.446   0.732  50.193  1.00  0.00     0.037 C 
ENDBRANCH   7  13
BRANCH   1  21
HETATM   21  C2  UNL     1      28.579   0.333  53.259  1.00  0.00     0.098 C 
HETATM   22  C1  UNL     1      29.823  -0.476  53.539  1.00  0.00     0.014 C 
ENDBRANCH   1  21
TORSDOF 2
ENDMDL
MODEL 3
REMARK VINA RESULT:      -6.9      3.384      5.867
REMARK  2 active torsions:
REMARK  status: ('A' for Active; 'I' for Inactive)
REMARK    1  A    between atoms: C2_2  and  C3_3 
REMARK       I    between atoms: C3_3  and  N1_5 
REMARK    2  A    between atoms: C7_9  and  N2_10 
ROOT
HETATM    1  C3  UNL     1      18.212  -1.488  53.349  1.00  0.00     0.219 C 
HETATM    2  O1  UNL     1      18.032  -2.740  53.511  1.00  0.00    -0.273 OA
HETATM    3  N1  UNL     1      19.393  -0.782  53.654  1.00  0.00    -0.346 N 
HETATM    4  C4  UNL     1      19.627   0.666  53.478  1.00  0.00     0.153 C 
HETATM    5  C5  UNL     1      21.037   0.853  52.968  1.00  0.00     0.006 C 
HETATM    6  C6  UNL     1      22.097   0.261  53.543  1.00  0.00     0.012 A 
HETATM    7  C7  UNL     1      23.451   0.441  53.051  1.00  0.00     0.140 A 
HETATM    8  N3  UNL     1      24.328  -0.266  53.698  1.00  0.00    -0.224 NA
HETATM    9  C14 UNL     1      23.898  -1.091  54.770  1.00  0.00     0.229 A 
HETATM   10  N4  UNL     1      22.701  -1.279  55.266  1.00  0.00    -0.271 NA
HETATM   11  C15 UNL     1      21.594  -0.566  54.693  1.00  0.00     0.164 A 
HETATM   12  C16 UNL     1      20.553  -1.514  54.211  1.00  0.00     0.158 C 
ENDROOT
BRANCH   7  13
HETATM   13  N2  UNL     1      23.616   1.339  51.960  1.00  0.00    -0.332 N 
HETATM   14  C8  UNL     1      22.739   1.183  50.847  1.00  0.00     0.112 A 
HETATM   15  C9  UNL     1      22.896   2.025  49.835  1.00  0.00     0.026 A 
HETATM   16 BR1  UNL     1      21.743   1.832  48.353  1.00  0.00    -0.050 Br
HETATM   17  C10 UNL     1      23.904   3.078  49.815  1.00  0.00     0.018 A 
HETATM   18  C11 UNL     1      24.677   3.156  50.885  1.00  0.00    -0.000 A 
HETATM   19  C12 UNL     1      24.672   2.323  52.115  1.00  0.00     0.109 A 
HETATM   20  C13 UNL     1      24.311   3.246  53.262  1.00  0.00     0.037 C 
ENDBRANCH   7  13
BRANCH   1  21
HETATM   21  C2  UNL     1      17.072  -0.705  52.791  1.00  0.00     0.098 C 
HETATM   22  C1  UNL     1      17.204  -0.553  51.293  1.00  0.00     0.014 C 
ENDBRANCH   1  21
TORSDOF 2
ENDMDL
MODEL 4
REMARK VINA RESULT:      -6.8      3.308      6.451
REMARK  2 active torsions:
REMARK  status: ('A' for Active; 'I' for Inactive)
REMARK    1  A    between atoms: C2_2  and  C3_3 
REMARK       I    between atoms: C3_3  and  N1_5 
REMARK    2  A    between atoms: C7_9  and  N2_10 
ROOT
HETATM    1  C3  UNL     1      21.004   1.588  53.111  1.00  0.00     0.219 C 
HETATM    2  O1  UNL     1      20.343   2.679  53.118  1.00  0.00    -0.273 OA
HETATM    3  N1  UNL     1      22.225   1.372  52.443  1.00  0.00    -0.346 N 
HETATM    4  C4  UNL     1      23.010   0.120  52.419  1.00  0.00     0.153 C 
HETATM    5  C5  UNL     1      24.473   0.484  52.520  1.00  0.00     0.006 C 
HETATM    6  C6  UNL     1      25.040   1.421  51.742  1.00  0.00     0.012 A 
HETATM    7  C7  UNL     1      26.446   1.770  51.842  1.00  0.00     0.140 A 
HETATM    8  N3  UNL     1      26.788   2.744  51.054  1.00  0.00    -0.224 NA
HETATM    9  C14 UNL     1      25.806   3.331  50.212  1.00  0.00     0.229 A 
HETATM   10  N4  UNL     1      24.536   3.049  50.068  1.00  0.00    -0.271 NA
HETATM   11  C15 UNL     1      23.971   1.982  50.846  1.00  0.00     0.164 A 
HETATM   12  C16 UNL     1      22.835   2.477  51.669  1.00  0.00     0.158 C 
ENDROOT
BRANCH   7  13
HETATM   13  N2  UNL     1      27.223   1.015  52.764  1.00  0.00    -0.332 N 
HETATM   14  C8  UNL     1      27.440  -0.361  52.463  1.00  0.00     0.112 A 
HETATM   15  C9  UNL     1      28.167  -1.058  53.324  1.00  0.00     0.026 A 
HETATM   16 BR1  UNL     1      28.463  -2.882  52.940  1.00  0.00    -0.050 Br
HETATM   17  C10 UNL     1      28.739  -0.488  54.538  1.00  0.00     0.018 A 
HETATM   18  C11 UNL     1      28.492   0.795  54.745  1.00  0.00    -0.000 A 
HETATM   19  C12 UNL     1      27.710   1.749  53.917  1.00  0.00     0.109 A 
HETATM   20  C13 UNL     1      28.684   2.809  53.442  1.00  0.00     0.037 C 
ENDBRANCH   7  13
BRANCH   1  21
HETATM   21  C2  UNL     1      20.431   0.444  53.877  1.00  0.00     0.098 C 
HETATM   22  C1  UNL     1      19.460  -0.342  53.027  1.00  0.00     0.014 C 
ENDBRANCH   1  21
TORSDOF 2
ENDMDL
MODEL 5
REMARK VINA RESULT:      -6.6      3.767      5.186
REMARK  2 active torsions:
REMARK  status: ('A' for Active; 'I' for Inactive)
REMARK    1  A    between atoms: C2_2  and  C3_3 
REMARK       I    between atoms: C3_3  and  N1_5 
REMARK    2  A    between atoms: C7_9  and  N2_10 
ROOT
HETATM    1  C3  UNL     1      21.741   0.109  52.834  1.00  0.00     0.219 C 
HETATM    2  O1  UNL     1      20.540  -0.283  53.011  1.00  0.00    -0.273 OA
HETATM    3  N1  UNL     1      22.226   0.778  51.693  1.00  0.00    -0.346 N 
HETATM    4  C4  UNL     1      23.610   1.241  51.462  1.00  0.00     0.153 C 
HETATM    5  C5  UNL     1      23.545   2.591  50.787  1.00  0.00     0.006 C 
HETATM    6  C6  UNL     1      22.775   2.824  49.712  1.00  0.00     0.012 A 
HETATM    7  C7  UNL     1      22.713   4.123  49.066  1.00  0.00     0.140 A 
HETATM    8  N3  UNL     1      21.862   4.166  48.085  1.00  0.00    -0.224 NA
HETATM    9  C14 UNL     1      21.126   2.998  47.756  1.00  0.00     0.229 A 
HETATM   10  N4  UNL     1      21.152   1.802  48.289  1.00  0.00    -0.271 NA
HETATM   11  C15 UNL     1      22.049   1.550  49.381  1.00  0.00     0.164 A 
HETATM   12  C16 UNL     1      21.301   1.075  50.576  1.00  0.00     0.158 C 
ENDROOT
BRANCH   7  13
HETATM   13  N2  UNL     1      23.569   5.133  49.587  1.00  0.00    -0.332 N 
HETATM   14  C8  UNL     1      24.795   5.369  48.899  1.00  0.00     0.112 A 
HETATM   15  C9  UNL     1      25.588   6.313  49.388  1.00  0.00     0.026 A 
HETATM   16 BR1  UNL     1      27.214   6.638  48.489  1.00  0.00    -0.050 Br
HETATM   17  C10 UNL     1      25.263   7.100  50.573  1.00  0.00     0.018 A 
HETATM   18  C11 UNL     1      24.108   6.819  51.153  1.00  0.00    -0.000 A 
HETATM   19  C12 UNL     1      23.083   5.812  50.774  1.00  0.00     0.109 A 
HETATM   20  C13 UNL     1      21.830   6.584  50.413  1.00  0.00     0.037 C 
ENDBRANCH   7  13
BRANCH   1  21
HETATM   21  C2  UNL     1      22.712  -0.168  53.930  1.00  0.00     0.098 C 
HETATM   22  C1  UNL     1      22.127  -1.127  54.940  1.00  0.00     0.014 C 
ENDBRANCH   1  21
TORSDOF 2
ENDMDL
MODEL 6
REMARK VINA RESULT:      -6.6      3.643      5.339
REMARK  2 active torsions:
REMARK  status: ('A' for Active; 'I' for Inactive)
REMARK    1  A    between atoms: C2_2  and  C3_3 
REMARK       I    between atoms: C3_3  and  N1_5 
REMARK    2  A    between atoms: C7_9  and  N2_10 
ROOT
HETATM    1  C3  UNL     1      25.086   1.611  52.496  1.00  0.00     0.219 C 
HETATM    2  O1  UNL     1      24.033   1.216  53.098  1.00  0.00    -0.273 OA
HETATM    3  N1  UNL     1      25.120   2.327  51.284  1.00  0.00    -0.346 N 
HETATM    4  C4  UNL     1      26.325   2.793  50.566  1.00  0.00     0.153 C 
HETATM    5  C5  UNL     1      26.038   4.173  50.019  1.00  0.00     0.006 C 
HETATM    6  C6  UNL     1      24.924   4.457  49.324  1.00  0.00     0.012 A 
HETATM    7  C7  UNL     1      24.650   5.783  48.801  1.00  0.00     0.140 A 
HETATM    8  N3  UNL     1      23.494   5.873  48.216  1.00  0.00    -0.224 NA
HETATM    9  C14 UNL     1      22.663   4.724  48.144  1.00  0.00     0.229 A 
HETATM   10  N4  UNL     1      22.864   3.505  48.580  1.00  0.00    -0.271 NA
HETATM   11  C15 UNL     1      24.101   3.202  49.242  1.00  0.00     0.164 A 
HETATM   12  C16 UNL     1      23.848   2.678  50.611  1.00  0.00     0.158 C 
ENDROOT
BRANCH   7  13
HETATM   13  N2  UNL     1      25.660   6.765  49.000  1.00  0.00    -0.332 N 
HETATM   14  C8  UNL     1      26.611   6.946  47.953  1.00  0.00     0.112 A 
HETATM   15  C9  UNL     1      27.548   7.864  48.143  1.00  0.00     0.026 A 
HETATM   16 BR1  UNL     1      28.814   8.116  46.766  1.00  0.00    -0.050 Br
HETATM   17  C10 UNL     1      27.643   8.676  49.350  1.00  0.00     0.018 A 
HETATM   18  C11 UNL     1      26.725   8.446  50.273  1.00  0.00    -0.000 A 
HETATM   19  C12 UNL     1      25.600   7.476  50.263  1.00  0.00     0.109 A 
HETATM   20  C13 UNL     1      24.323   8.291  50.301  1.00  0.00     0.037 C 
ENDBRANCH   7  13
BRANCH   1  21
HETATM   21  C2  UNL     1      26.394   1.282  53.133  1.00  0.00     0.098 C 
HETATM   22  C1  UNL     1      26.841  -0.112  52.759  1.00  0.00     0.014 C 
ENDBRANCH   1  21
TORSDOF 2
ENDMDL
MODEL 7
REMARK VINA RESULT:      -6.4      2.593      4.430
REMARK  2 active torsions:
REMARK  status: ('A' for Active; 'I' for Inactive)
REMARK    1  A    between atoms: C2_2  and  C3_3 
REMARK       I    between atoms: C3_3  and  N1_5 
REMARK    2  A    between atoms: C7_9  and  N2_10 
ROOT
HETATM    1  C3  UNL     1      25.041  -0.305  53.218  1.00  0.00     0.219 C 
HETATM    2  O1  UNL     1      25.815  -1.249  52.847  1.00  0.00    -0.273 OA
HETATM    3  N1  UNL     1      25.057   1.014  52.724  1.00  0.00    -0.346 N 
HETATM    4  C4  UNL     1      24.174   2.124  53.137  1.00  0.00     0.153 C 
HETATM    5  C5  UNL     1      23.801   2.910  51.902  1.00  0.00     0.006 C 
HETATM    6  C6  UNL     1      24.714   3.329  51.010  1.00  0.00     0.012 A 
HETATM    7  C7  UNL     1      24.353   4.083  49.823  1.00  0.00     0.140 A 
HETATM    8  N3  UNL     1      25.367   4.337  49.051  1.00  0.00    -0.224 NA
HETATM    9  C14 UNL     1      26.658   3.885  49.433  1.00  0.00     0.229 A 
HETATM   10  N4  UNL     1      27.043   3.220  50.493  1.00  0.00    -0.271 NA
HETATM   11  C15 UNL     1      26.063   2.860  51.479  1.00  0.00     0.164 A 
HETATM   12  C16 UNL     1      26.040   1.386  51.680  1.00  0.00     0.158 C 
ENDROOT
BRANCH   7  13
HETATM   13  N2  UNL     1      22.979   4.422  49.680  1.00  0.00    -0.332 N 
HETATM   14  C8  UNL     1      22.621   5.789  49.873  1.00  0.00     0.112 A 
HETATM   15  C9  UNL     1      21.339   6.100  49.736  1.00  0.00     0.026 A 
HETATM   16 BR1  UNL     1      20.848   7.904  49.989  1.00  0.00    -0.050 Br
HETATM   17  C10 UNL     1      20.307   5.124  49.404  1.00  0.00     0.018 A 
HETATM   18  C11 UNL     1      20.722   3.879  49.241  1.00  0.00    -0.000 A 
HETATM   19  C12 UNL     1      22.095   3.321  49.348  1.00  0.00     0.109 A 
HETATM   20  C13 UNL     1      22.460   2.803  47.971  1.00  0.00     0.037 C 
ENDBRANCH   7  13
BRANCH   1  21
HETATM   21  C2  UNL     1      24.033  -0.630  54.268  1.00  0.00     0.098 C 
HETATM   22  C1  UNL     1      22.715  -1.029  53.647  1.00  0.00     0.014 C 
ENDBRANCH   1  21
TORSDOF 2
ENDMDL
MODEL 8
REMARK VINA RESULT:      -6.3      4.863      6.299
REMARK  2 active torsions:
REMARK  status: ('A' for Active; 'I' for Inactive)
REMARK    1  A    between atoms: C2_2  and  C3_3 
REMARK       I    between atoms: C3_3  and  N1_5 
REMARK    2  A    between atoms: C7_9  and  N2_10 
ROOT
HETATM    1  C3  UNL     1      26.757   6.005  48.557  1.00  0.00     0.219 C 
HETATM    2  O1  UNL     1      26.829   6.992  47.752  1.00  0.00    -0.273 OA
HETATM    3  N1  UNL     1      25.707   5.760  49.464  1.00  0.00    -0.346 N 
HETATM    4  C4  UNL     1      25.600   4.627  50.406  1.00  0.00     0.153 C 
HETATM    5  C5  UNL     1      24.160   4.169  50.425  1.00  0.00     0.006 C 
HETATM    6  C6  UNL     1      23.133   5.022  50.580  1.00  0.00     0.012 A 
HETATM    7  C7  UNL     1      21.750   4.580  50.597  1.00  0.00     0.140 A 
HETATM    8  N3  UNL     1      20.902   5.560  50.689  1.00  0.00    -0.224 NA
HETATM    9  C14 UNL     1      21.388   6.891  50.770  1.00  0.00     0.229 A 
HETATM   10  N4  UNL     1      22.616   7.345  50.776  1.00  0.00    -0.271 NA
HETATM   11  C15 UNL     1      23.701   6.408  50.700  1.00  0.00     0.164 A 
HETATM   12  C16 UNL     1      24.565   6.700  49.524  1.00  0.00     0.158 C 
ENDROOT
BRANCH   7  13
HETATM   13  N2  UNL     1      21.531   3.177  50.511  1.00  0.00    -0.332 N 
HETATM   14  C8  UNL     1      21.291   2.477  51.729  1.00  0.00     0.112 A 
HETATM   15  C9  UNL     1      21.085   1.171  51.642  1.00  0.00     0.026 A 
HETATM   16 BR1  UNL     1      20.766   0.230  53.247  1.00  0.00    -0.050 Br
HETATM   17  C10 UNL     1      21.094   0.439  50.381  1.00  0.00     0.018 A 
HETATM   18  C11 UNL     1      21.324   1.160  49.297  1.00  0.00    -0.000 A 
HETATM   19  C12 UNL     1      21.577   2.619  49.172  1.00  0.00     0.109 A 
HETATM   20  C13 UNL     1      20.427   3.191  48.367  1.00  0.00     0.037 C 
ENDBRANCH   7  13
BRANCH   1  21
HETATM   21  C2  UNL     1      27.884   5.029  48.535  1.00  0.00     0.098 C 
HETATM   22  C1  UNL     1      29.183   5.713  48.177  1.00  0.00     0.014 C 
ENDBRANCH   1  21
TORSDOF 2
ENDMDL
MODEL 9
REMARK VINA RESULT:      -6.3      3.613      6.448
REMARK  2 active torsions:
REMARK  status: ('A' for Active; 'I' for Inactive)
REMARK    1  A    between atoms: C2_2  and  C3_3 
REMARK       I    between atoms: C3_3  and  N1_5 
REMARK    2  A    between atoms: C7_9  and  N2_10 
ROOT
HETATM    1  C3  UNL     1      24.435   6.165  49.457  1.00  0.00     0.219 C 
HETATM    2  O1  UNL     1      24.692   6.403  48.230  1.00  0.00    -0.273 OA
HETATM    3  N1  UNL     1      23.523   5.202  49.933  1.00  0.00    -0.346 N 
HETATM    4  C4  UNL     1      23.206   4.908  51.346  1.00  0.00     0.153 C 
HETATM    5  C5  UNL     1      23.063   3.411  51.491  1.00  0.00     0.006 C 
HETATM    6  C6  UNL     1      22.301   2.675  50.665  1.00  0.00     0.012 A 
HETATM    7  C7  UNL     1      22.166   1.237  50.805  1.00  0.00     0.140 A 
HETATM    8  N3  UNL     1      21.441   0.698  49.871  1.00  0.00    -0.224 NA
HETATM    9  C14 UNL     1      20.877   1.528  48.867  1.00  0.00     0.229 A 
HETATM   10  N4  UNL     1      20.951   2.825  48.700  1.00  0.00    -0.271 NA
HETATM   11  C15 UNL     1      21.697   3.603  49.648  1.00  0.00     0.164 A 
HETATM   12  C16 UNL     1      22.775   4.368  48.965  1.00  0.00     0.158 C 
ENDROOT
BRANCH   7  13
HETATM   13  N2  UNL     1      22.829   0.642  51.914  1.00  0.00    -0.332 N 
HETATM   14  C8  UNL     1      24.236   0.842  52.018  1.00  0.00     0.112 A 
HETATM   15  C9  UNL     1      24.848   0.288  53.055  1.00  0.00     0.026 A 
HETATM   16 BR1  UNL     1      26.712   0.544  53.207  1.00  0.00    -0.050 Br
HETATM   17  C10 UNL     1      24.156  -0.499  54.069  1.00  0.00     0.018 A 
HETATM   18  C11 UNL     1      22.852  -0.638  53.900  1.00  0.00    -0.000 A 
HETATM   19  C12 UNL     1      21.979  -0.107  52.822  1.00  0.00     0.109 A 
HETATM   20  C13 UNL     1      21.009   0.852  53.482  1.00  0.00     0.037 C 
ENDBRANCH   7  13
BRANCH   1  21
HETATM   21  C2  UNL     1      25.162   6.980  50.472  1.00  0.00     0.098 C 
HETATM   22  C1  UNL     1      24.986   8.456  50.206  1.00  0.00     0.014 C 
ENDBRANCH   1  21
TORSDOF 2
ENDMDL
