MODEL 1
REMARK VINA RESULT:     -10.2      0.000      0.000
REMARK  4 active torsions:
REMARK  status: ('A' for Active; 'I' for Inactive)
REMARK    1  A    between atoms: N1_5  and  C5_6 
REMARK    2  A    between atoms: C10_13  and  N4_14 
REMARK       I    between atoms: N4_14  and  C11_15 
REMARK    3  A    between atoms: C11_15  and  C12_17 
REMARK    4  A    between atoms: N5_22  and  O2_23 
ROOT
HETATM    1  C5  UNL     1      25.786   1.674  52.780  1.00  0.00     0.142 A 
HETATM    2  N2  UNL     1      24.750   1.080  53.417  1.00  0.00    -0.224 NA
HETATM    3  C6  UNL     1      23.489   1.072  52.970  1.00  0.00     0.236 A 
HETATM    4  N3  UNL     1      23.197   1.682  51.816  1.00  0.00    -0.241 NA
HETATM    5  C7  UNL     1      24.145   2.293  51.118  1.00  0.00     0.072 A 
HETATM    6  C8  UNL     1      23.853   2.934  49.935  1.00  0.00     0.035 A 
HETATM    7  C9  UNL     1      24.903   3.549  49.289  1.00  0.00     0.032 A 
HETATM    8  C10 UNL     1      26.209   3.580  49.722  1.00  0.00     0.035 A 
HETATM    9  C21 UNL     1      26.425   2.920  50.907  1.00  0.00     0.047 A 
HETATM   10  C22 UNL     1      25.430   2.287  51.602  1.00  0.00     0.041 A 
ENDROOT
BRANCH   8  11
HETATM   11  N4  UNL     1      27.284   4.200  49.077  1.00  0.00    -0.327 N 
HETATM   12  C11 UNL     1      27.441   5.509  48.570  1.00  0.00     0.226 C 
HETATM   13  O1  UNL     1      26.463   6.282  48.704  1.00  0.00    -0.273 OA
HETATM   14  H10 UNL     1      28.172   3.660  48.900  1.00  0.00     0.169 HD
BRANCH  12  15
HETATM   15  C12 UNL     1      28.634   6.059  47.900  1.00  0.00     0.082 C 
HETATM   16  C13 UNL     1      28.319   7.468  47.478  1.00  0.00     0.041 C 
HETATM   17  C14 UNL     1      29.324   8.491  47.888  1.00  0.00     0.033 C 
HETATM   18  C15 UNL     1      29.150   9.699  46.974  1.00  0.00     0.034 C 
HETATM   19  C16 UNL     1      29.135   9.020  49.291  1.00  0.00     0.034 C 
HETATM   20  N5  UNL     1      30.639   7.997  47.643  1.00  0.00    -0.182 NA
HETATM   21  C17 UNL     1      30.991   6.808  48.330  1.00  0.00     0.033 C 
HETATM   22  C18 UNL     1      31.990   6.048  47.447  1.00  0.00     0.034 C 
HETATM   23  C19 UNL     1      31.794   7.216  49.572  1.00  0.00     0.034 C 
HETATM   24  C20 UNL     1      29.869   5.943  48.762  1.00  0.00     0.041 C 
BRANCH  20  25
HETATM   25  O2  UNL     1      30.857   7.916  46.310  1.00  0.00    -0.312 OA
HETATM   26  H20 UNL     1      31.583   7.322  46.046  1.00  0.00     0.237 HD
ENDBRANCH  20  25
ENDBRANCH  12  15
ENDBRANCH   8  11
BRANCH   1  27
HETATM   27  N1  UNL     1      27.070   1.521  53.374  1.00  0.00    -0.331 N 
HETATM   28  C4  UNL     1      27.074   0.721  54.623  1.00  0.00     0.155 C 
HETATM   29  C3  UNL     1      27.449  -0.650  54.182  1.00  0.00    -0.005 C 
HETATM   30  C2  UNL     1      28.639  -0.564  53.600  1.00  0.00    -0.082 C 
HETATM   31  C1  UNL     1      29.114  -1.898  53.114  1.00  0.00     0.043 C 
HETATM   32  C24 UNL     1      29.387   0.713  53.463  1.00  0.00     0.092 C 
HETATM   33  C23 UNL     1      28.444   1.884  53.104  1.00  0.00     0.277 C 
HETATM   34  F1  UNL     1      28.893   2.931  53.883  1.00  0.00    -0.226 F 
ENDBRANCH   1  27
TORSDOF 4
ENDMDL
MODEL 2
REMARK VINA RESULT:      -9.6      3.832      5.451
REMARK  4 active torsions:
REMARK  status: ('A' for Active; 'I' for Inactive)
REMARK    1  A    between atoms: N1_5  and  C5_6 
REMARK    2  A    between atoms: C10_13  and  N4_14 
REMARK       I    between atoms: N4_14  and  C11_15 
REMARK    3  A    between atoms: C11_15  and  C12_17 
REMARK    4  A    between atoms: N5_22  and  O2_23 
ROOT
HETATM    1  C5  UNL     1      24.196  -0.244  54.254  1.00  0.00     0.142 A 
HETATM    2  N2  UNL     1      23.940  -1.279  55.087  1.00  0.00    -0.224 NA
HETATM    3  C6  UNL     1      22.715  -1.725  55.390  1.00  0.00     0.236 A 
HETATM    4  N3  UNL     1      21.647  -1.129  54.848  1.00  0.00    -0.241 NA
HETATM    5  C7  UNL     1      21.795  -0.104  54.018  1.00  0.00     0.072 A 
HETATM    6  C8  UNL     1      20.702   0.523  53.464  1.00  0.00     0.035 A 
HETATM    7  C9  UNL     1      20.958   1.584  52.624  1.00  0.00     0.032 A 
HETATM    8  C10 UNL     1      22.203   2.070  52.294  1.00  0.00     0.035 A 
HETATM    9  C21 UNL     1      23.244   1.395  52.884  1.00  0.00     0.047 A 
HETATM   10  C22 UNL     1      23.064   0.332  53.727  1.00  0.00     0.041 A 
ENDROOT
BRANCH   8  11
HETATM   11  N4  UNL     1      22.477   3.145  51.444  1.00  0.00    -0.327 N 
HETATM   12  C11 UNL     1      22.826   3.192  50.077  1.00  0.00     0.226 C 
HETATM   13  O1  UNL     1      22.917   2.091  49.485  1.00  0.00    -0.273 OA
HETATM   14  H10 UNL     1      22.436   4.132  51.817  1.00  0.00     0.169 HD
BRANCH  12  15
HETATM   15  C12 UNL     1      23.096   4.400  49.275  1.00  0.00     0.082 C 
HETATM   16  C13 UNL     1      21.794   5.130  49.088  1.00  0.00     0.041 C 
HETATM   17  C14 UNL     1      21.827   6.581  49.431  1.00  0.00     0.033 C 
HETATM   18  C15 UNL     1      20.659   7.250  48.713  1.00  0.00     0.034 C 
HETATM   19  C16 UNL     1      21.618   6.879  50.897  1.00  0.00     0.034 C 
HETATM   20  N5  UNL     1      23.009   7.174  48.897  1.00  0.00    -0.182 NA
HETATM   21  C17 UNL     1      24.235   6.636  49.362  1.00  0.00     0.033 C 
HETATM   22  C18 UNL     1      25.261   6.786  48.230  1.00  0.00     0.034 C 
HETATM   23  C19 UNL     1      24.744   7.554  50.480  1.00  0.00     0.034 C 
HETATM   24  C20 UNL     1      24.188   5.249  49.882  1.00  0.00     0.041 C 
BRANCH  20  25
HETATM   25  O2  UNL     1      22.933   7.211  47.546  1.00  0.00    -0.312 OA
HETATM   26  H20 UNL     1      23.644   7.712  47.107  1.00  0.00     0.237 HD
ENDBRANCH  20  25
ENDBRANCH  12  15
ENDBRANCH   8  11
BRANCH   1  27
HETATM   27  N1  UNL     1      25.565   0.043  53.999  1.00  0.00    -0.331 N 
HETATM   28  C4  UNL     1      26.136  -0.679  52.836  1.00  0.00     0.155 C 
HETATM   29  C3  UNL     1      26.037   0.293  51.713  1.00  0.00    -0.005 C 
HETATM   30  C2  UNL     1      26.729   1.370  52.063  1.00  0.00    -0.082 C 
HETATM   31  C1  UNL     1      26.694   2.420  50.997  1.00  0.00     0.043 C 
HETATM   32  C24 UNL     1      27.443   1.491  53.362  1.00  0.00     0.092 C 
HETATM   33  C23 UNL     1      26.614   0.893  54.521  1.00  0.00     0.277 C 
HETATM   34  F1  UNL     1      27.541   0.208  55.281  1.00  0.00    -0.226 F 
ENDBRANCH   1  27
TORSDOF 4
ENDMDL
MODEL 3
REMARK VINA RESULT:      -9.5      5.455      7.057
REMARK  4 active torsions:
REMARK  status: ('A' for Active; 'I' for Inactive)
REMARK    1  A    between atoms: N1_5  and  C5_6 
REMARK    2  A    between atoms: C10_13  and  N4_14 
REMARK       I    between atoms: N4_14  and  C11_15 
REMARK    3  A    between atoms: C11_15  and  C12_17 
REMARK    4  A    between atoms: N5_22  and  O2_23 
ROOT
HETATM    1  C5  UNL     1      24.505  -0.301  54.136  1.00  0.00     0.142 A 
HETATM    2  N2  UNL     1      24.869  -1.080  55.182  1.00  0.00    -0.224 NA
HETATM    3  C6  UNL     1      24.020  -1.799  55.924  1.00  0.00     0.236 A 
HETATM    4  N3  UNL     1      22.713  -1.769  55.641  1.00  0.00    -0.241 NA
HETATM    5  C7  UNL     1      22.258  -1.034  54.635  1.00  0.00     0.072 A 
HETATM    6  C8  UNL     1      20.913  -0.989  54.342  1.00  0.00     0.035 A 
HETATM    7  C9  UNL     1      20.537  -0.188  53.286  1.00  0.00     0.032 A 
HETATM    8  C10 UNL     1      21.383   0.566  52.504  1.00  0.00     0.035 A 
HETATM    9  C21 UNL     1      22.708   0.469  52.855  1.00  0.00     0.047 A 
HETATM   10  C22 UNL     1      23.153  -0.306  53.890  1.00  0.00     0.041 A 
ENDROOT
BRANCH   8  11
HETATM   11  N4  UNL     1      21.015   1.382  51.430  1.00  0.00    -0.327 N 
HETATM   12  C11 UNL     1      20.386   2.646  51.389  1.00  0.00     0.226 C 
HETATM   13  O1  UNL     1      20.089   3.160  52.493  1.00  0.00    -0.273 OA
HETATM   14  H10 UNL     1      21.208   1.067  50.441  1.00  0.00     0.169 HD
BRANCH  12  15
HETATM   15  C12 UNL     1      20.043   3.422  50.182  1.00  0.00     0.082 C 
HETATM   16  C13 UNL     1      20.490   4.841  50.403  1.00  0.00     0.041 C 
HETATM   17  C14 UNL     1      21.319   5.420  49.306  1.00  0.00     0.033 C 
HETATM   18  C15 UNL     1      21.236   6.939  49.421  1.00  0.00     0.034 C 
HETATM   19  C16 UNL     1      22.791   5.092  49.400  1.00  0.00     0.034 C 
HETATM   20  N5  UNL     1      20.746   5.088  48.044  1.00  0.00    -0.182 NA
HETATM   21  C17 UNL     1      20.636   3.704  47.759  1.00  0.00     0.033 C 
HETATM   22  C18 UNL     1      19.409   3.517  46.857  1.00  0.00     0.034 C 
HETATM   23  C19 UNL     1      21.834   3.320  46.881  1.00  0.00     0.034 C 
HETATM   24  C20 UNL     1      20.603   2.794  48.928  1.00  0.00     0.041 C 
BRANCH  20  25
HETATM   25  O2  UNL     1      19.575   5.749  47.884  1.00  0.00    -0.312 OA
HETATM   26  H20 UNL     1      18.822   5.381  48.380  1.00  0.00     0.237 HD
ENDBRANCH  20  25
ENDBRANCH  12  15
ENDBRANCH   8  11
BRANCH   1  27
HETATM   27  N1  UNL     1      25.557   0.336  53.422  1.00  0.00    -0.331 N 
HETATM   28  C4  UNL     1      26.391   1.247  54.244  1.00  0.00     0.155 C 
HETATM   29  C3  UNL     1      27.565   0.421  54.635  1.00  0.00    -0.005 C 
HETATM   30  C2  UNL     1      28.156   0.023  53.515  1.00  0.00    -0.082 C 
HETATM   31  C1  UNL     1      29.359  -0.823  53.796  1.00  0.00     0.043 C 
HETATM   32  C24 UNL     1      27.663   0.389  52.161  1.00  0.00     0.092 C 
HETATM   33  C23 UNL     1      26.120   0.341  52.089  1.00  0.00     0.277 C 
HETATM   34  F1  UNL     1      25.781   1.463  51.359  1.00  0.00    -0.226 F 
ENDBRANCH   1  27
TORSDOF 4
ENDMDL
MODEL 4
REMARK VINA RESULT:      -9.2      3.509      5.794
REMARK  4 active torsions:
REMARK  status: ('A' for Active; 'I' for Inactive)
REMARK    1  A    between atoms: N1_5  and  C5_6 
REMARK    2  A    between atoms: C10_13  and  N4_14 
REMARK       I    between atoms: N4_14  and  C11_15 
REMARK    3  A    between atoms: C11_15  and  C12_17 
REMARK    4  A    between atoms: N5_22  and  O2_23 
ROOT
HETATM    1  C5  UNL     1      22.373   0.621  52.488  1.00  0.00     0.142 A 
HETATM    2  N2  UNL     1      22.213  -0.331  53.436  1.00  0.00    -0.224 NA
HETATM    3  C6  UNL     1      23.212  -0.878  54.138  1.00  0.00     0.236 A 
HETATM    4  N3  UNL     1      24.469  -0.479  53.912  1.00  0.00    -0.241 NA
HETATM    5  C7  UNL     1      24.728   0.449  53.000  1.00  0.00     0.072 A 
HETATM    6  C8  UNL     1      26.019   0.858  52.753  1.00  0.00     0.035 A 
HETATM    7  C9  UNL     1      26.187   1.819  51.780  1.00  0.00     0.032 A 
HETATM    8  C10 UNL     1      25.183   2.400  51.038  1.00  0.00     0.035 A 
HETATM    9  C21 UNL     1      23.924   1.942  51.340  1.00  0.00     0.047 A 
HETATM   10  C22 UNL     1      23.683   0.992  52.295  1.00  0.00     0.041 A 
ENDROOT
BRANCH   8  11
HETATM   11  N4  UNL     1      25.340   3.374  50.048  1.00  0.00    -0.327 N 
HETATM   12  C11 UNL     1      25.014   4.748  50.027  1.00  0.00     0.226 C 
HETATM   13  O1  UNL     1      24.488   5.214  51.066  1.00  0.00    -0.273 OA
HETATM   14  H10 UNL     1      25.770   3.115  49.120  1.00  0.00     0.169 HD
BRANCH  12  15
HETATM   15  C12 UNL     1      25.227   5.690  48.913  1.00  0.00     0.082 C 
HETATM   16  C13 UNL     1      23.877   6.113  48.401  1.00  0.00     0.041 C 
HETATM   17  C14 UNL     1      23.683   7.587  48.273  1.00  0.00     0.033 C 
HETATM   18  C15 UNL     1      22.540   7.816  47.290  1.00  0.00     0.034 C 
HETATM   19  C16 UNL     1      23.254   8.269  49.551  1.00  0.00     0.034 C 
HETATM   20  N5  UNL     1      24.838   8.174  47.679  1.00  0.00    -0.182 NA
HETATM   21  C17 UNL     1      26.053   8.002  48.388  1.00  0.00     0.033 C 
HETATM   22  C18 UNL     1      27.187   7.970  47.354  1.00  0.00     0.034 C 
HETATM   23  C19 UNL     1      26.296   9.281  49.201  1.00  0.00     0.034 C 
HETATM   24  C20 UNL     1      26.117   6.844  49.310  1.00  0.00     0.041 C 
BRANCH  20  25
HETATM   25  O2  UNL     1      24.930   7.795  46.383  1.00  0.00    -0.312 OA
HETATM   26  H20 UNL     1      25.832   7.803  46.015  1.00  0.00     0.237 HD
ENDBRANCH  20  25
ENDBRANCH  12  15
ENDBRANCH   8  11
BRANCH   1  27
HETATM   27  N1  UNL     1      21.186   1.132  51.894  1.00  0.00    -0.331 N 
HETATM   28  C4  UNL     1      20.402   2.034  52.772  1.00  0.00     0.155 C 
HETATM   29  C3  UNL     1      20.830   3.402  52.371  1.00  0.00    -0.005 C 
HETATM   30  C2  UNL     1      20.551   3.540  51.081  1.00  0.00    -0.082 C 
HETATM   31  C1  UNL     1      20.945   4.891  50.570  1.00  0.00     0.043 C 
HETATM   32  C24 UNL     1      19.921   2.467  50.267  1.00  0.00     0.092 C 
HETATM   33  C23 UNL     1      20.493   1.076  50.625  1.00  0.00     0.277 C 
HETATM   34  F1  UNL     1      19.387   0.251  50.644  1.00  0.00    -0.226 F 
ENDBRANCH   1  27
TORSDOF 4
ENDMDL
MODEL 5
REMARK VINA RESULT:      -9.2      5.122     10.124
REMARK  4 active torsions:
REMARK  status: ('A' for Active; 'I' for Inactive)
REMARK    1  A    between atoms: N1_5  and  C5_6 
REMARK    2  A    between atoms: C10_13  and  N4_14 
REMARK       I    between atoms: N4_14  and  C11_15 
REMARK    3  A    between atoms: C11_15  and  C12_17 
REMARK    4  A    between atoms: N5_22  and  O2_23 
ROOT
HETATM    1  C5  UNL     1      25.332   2.626  51.713  1.00  0.00     0.142 A 
HETATM    2  N2  UNL     1      26.681   2.529  51.764  1.00  0.00    -0.224 NA
HETATM    3  C6  UNL     1      27.350   1.553  52.388  1.00  0.00     0.236 A 
HETATM    4  N3  UNL     1      26.667   0.587  53.015  1.00  0.00    -0.241 NA
HETATM    5  C7  UNL     1      25.341   0.594  53.022  1.00  0.00     0.072 A 
HETATM    6  C8  UNL     1      24.630  -0.389  53.673  1.00  0.00     0.035 A 
HETATM    7  C9  UNL     1      23.257  -0.288  53.633  1.00  0.00     0.032 A 
HETATM    8  C10 UNL     1      22.539   0.703  53.004  1.00  0.00     0.035 A 
HETATM    9  C21 UNL     1      23.315   1.647  52.376  1.00  0.00     0.047 A 
HETATM   10  C22 UNL     1      24.683   1.610  52.374  1.00  0.00     0.041 A 
ENDROOT
BRANCH   8  11
HETATM   11  N4  UNL     1      21.146   0.818  52.956  1.00  0.00    -0.327 N 
HETATM   12  C11 UNL     1      20.230   0.656  51.893  1.00  0.00     0.226 C 
HETATM   13  O1  UNL     1      20.715   0.356  50.777  1.00  0.00    -0.273 OA
HETATM   14  H10 UNL     1      20.610   1.067  53.830  1.00  0.00     0.169 HD
BRANCH  12  15
HETATM   15  C12 UNL     1      18.764   0.804  51.961  1.00  0.00     0.082 C 
HETATM   16  C13 UNL     1      18.425   2.218  51.577  1.00  0.00     0.041 C 
HETATM   17  C14 UNL     1      17.374   2.353  50.526  1.00  0.00     0.033 C 
HETATM   18  C15 UNL     1      16.792   3.758  50.635  1.00  0.00     0.034 C 
HETATM   19  C16 UNL     1      17.893   2.244  49.111  1.00  0.00     0.034 C 
HETATM   20  N5  UNL     1      16.300   1.458  50.803  1.00  0.00    -0.182 NA
HETATM   21  C17 UNL     1      16.636   0.082  50.844  1.00  0.00     0.033 C 
HETATM   22  C18 UNL     1      15.682  -0.594  51.839  1.00  0.00     0.034 C 
HETATM   23  C19 UNL     1      16.273  -0.520  49.480  1.00  0.00     0.034 C 
HETATM   24  C20 UNL     1      18.052  -0.240  51.134  1.00  0.00     0.041 C 
BRANCH  20  25
HETATM   25  O2  UNL     1      15.636   1.868  51.910  1.00  0.00    -0.312 OA
HETATM   26  H20 UNL     1      14.773   1.440  52.054  1.00  0.00     0.237 HD
ENDBRANCH  20  25
ENDBRANCH  12  15
ENDBRANCH   8  11
BRANCH   1  27
HETATM   27  N1  UNL     1      24.800   3.698  50.945  1.00  0.00    -0.331 N 
HETATM   28  C4  UNL     1      24.952   3.535  49.479  1.00  0.00     0.155 C 
HETATM   29  C3  UNL     1      23.649   2.970  49.034  1.00  0.00    -0.005 C 
HETATM   30  C2  UNL     1      22.706   3.837  49.378  1.00  0.00    -0.082 C 
HETATM   31  C1  UNL     1      21.344   3.363  48.975  1.00  0.00     0.043 C 
HETATM   32  C24 UNL     1      22.994   5.118  50.077  1.00  0.00     0.092 C 
HETATM   33  C23 UNL     1      24.085   4.938  51.157  1.00  0.00     0.277 C 
HETATM   34  F1  UNL     1      24.883   6.056  51.021  1.00  0.00    -0.226 F 
ENDBRANCH   1  27
TORSDOF 4
ENDMDL
MODEL 6
REMARK VINA RESULT:      -9.1      3.413      5.039
REMARK  4 active torsions:
REMARK  status: ('A' for Active; 'I' for Inactive)
REMARK    1  A    between atoms: N1_5  and  C5_6 
REMARK    2  A    between atoms: C10_13  and  N4_14 
REMARK       I    between atoms: N4_14  and  C11_15 
REMARK    3  A    between atoms: C11_15  and  C12_17 
REMARK    4  A    between atoms: N5_22  and  O2_23 
ROOT
HETATM    1  C5  UNL     1      23.924   0.388  53.530  1.00  0.00     0.142 A 
HETATM    2  N2  UNL     1      23.639  -0.841  54.020  1.00  0.00    -0.224 NA
HETATM    3  C6  UNL     1      22.405  -1.346  54.131  1.00  0.00     0.236 A 
HETATM    4  N3  UNL     1      21.358  -0.613  53.737  1.00  0.00    -0.241 NA
HETATM    5  C7  UNL     1      21.535   0.605  53.242  1.00  0.00     0.072 A 
HETATM    6  C8  UNL     1      20.462   1.371  52.844  1.00  0.00     0.035 A 
HETATM    7  C9  UNL     1      20.747   2.627  52.355  1.00  0.00     0.032 A 
HETATM    8  C10 UNL     1      22.003   3.179  52.231  1.00  0.00     0.035 A 
HETATM    9  C21 UNL     1      23.021   2.356  52.647  1.00  0.00     0.047 A 
HETATM   10  C22 UNL     1      22.812   1.098  53.142  1.00  0.00     0.041 A 
ENDROOT
BRANCH   8  11
HETATM   11  N4  UNL     1      22.306   4.451  51.736  1.00  0.00    -0.327 N 
HETATM   12  C11 UNL     1      22.772   4.877  50.473  1.00  0.00     0.226 C 
HETATM   13  O1  UNL     1      22.958   3.983  49.614  1.00  0.00    -0.273 OA
HETATM   14  H10 UNL     1      22.193   5.296  52.359  1.00  0.00     0.169 HD
BRANCH  12  15
HETATM   15  C12 UNL     1      23.061   6.263  50.061  1.00  0.00     0.082 C 
HETATM   16  C13 UNL     1      24.470   6.585  50.479  1.00  0.00     0.041 C 
HETATM   17  C14 UNL     1      25.332   7.159  49.405  1.00  0.00     0.033 C 
HETATM   18  C15 UNL     1      26.485   7.891  50.084  1.00  0.00     0.034 C 
HETATM   19  C16 UNL     1      25.984   6.128  48.513  1.00  0.00     0.034 C 
HETATM   20  N5  UNL     1      24.605   8.151  48.684  1.00  0.00    -0.182 NA
HETATM   21  C17 UNL     1      23.424   7.705  48.038  1.00  0.00     0.033 C 
HETATM   22  C18 UNL     1      22.445   8.885  48.008  1.00  0.00     0.034 C 
HETATM   23  C19 UNL     1      23.776   7.446  46.567  1.00  0.00     0.034 C 
HETATM   24  C20 UNL     1      22.797   6.482  48.590  1.00  0.00     0.041 C 
BRANCH  20  25
HETATM   25  O2  UNL     1      24.394   9.229  49.474  1.00  0.00    -0.312 OA
HETATM   26  H20 UNL     1      24.606   9.099  50.415  1.00  0.00     0.237 HD
ENDBRANCH  20  25
ENDBRANCH  12  15
ENDBRANCH   8  11
BRANCH   1  27
HETATM   27  N1  UNL     1      25.301   0.727  53.426  1.00  0.00    -0.331 N 
HETATM   28  C4  UNL     1      26.019   0.044  52.323  1.00  0.00     0.155 C 
HETATM   29  C3  UNL     1      26.004   1.028  51.207  1.00  0.00    -0.005 C 
HETATM   30  C2  UNL     1      26.615   2.124  51.641  1.00  0.00    -0.082 C 
HETATM   31  C1  UNL     1      26.655   3.188  50.589  1.00  0.00     0.043 C 
HETATM   32  C24 UNL     1      27.182   2.250  53.010  1.00  0.00     0.092 C 
HETATM   33  C23 UNL     1      26.256   1.605  54.067  1.00  0.00     0.277 C 
HETATM   34  F1  UNL     1      27.122   0.943  54.914  1.00  0.00    -0.226 F 
ENDBRANCH   1  27
TORSDOF 4
ENDMDL
MODEL 7
REMARK VINA RESULT:      -9.0      6.491     11.907
REMARK  4 active torsions:
REMARK  status: ('A' for Active; 'I' for Inactive)
REMARK    1  A    between atoms: N1_5  and  C5_6 
REMARK    2  A    between atoms: C10_13  and  N4_14 
REMARK       I    between atoms: N4_14  and  C11_15 
REMARK    3  A    between atoms: C11_15  and  C12_17 
REMARK    4  A    between atoms: N5_22  and  O2_23 
ROOT
HETATM    1  C5  UNL     1      23.404   1.130  52.132  1.00  0.00     0.142 A 
HETATM    2  N2  UNL     1      24.733   1.031  52.373  1.00  0.00    -0.224 NA
HETATM    3  C6  UNL     1      25.281   0.206  53.272  1.00  0.00     0.236 A 
HETATM    4  N3  UNL     1      24.491  -0.592  53.999  1.00  0.00    -0.241 NA
HETATM    5  C7  UNL     1      23.175  -0.568  53.836  1.00  0.00     0.072 A 
HETATM    6  C8  UNL     1      22.353  -1.377  54.587  1.00  0.00     0.035 A 
HETATM    7  C9  UNL     1      20.999  -1.271  54.353  1.00  0.00     0.032 A 
HETATM    8  C10 UNL     1      20.402  -0.432  53.440  1.00  0.00     0.035 A 
HETATM    9  C21 UNL     1      21.284   0.344  52.728  1.00  0.00     0.047 A 
HETATM   10  C22 UNL     1      22.640   0.290  52.907  1.00  0.00     0.041 A 
ENDROOT
BRANCH   8  11
HETATM   11  N4  UNL     1      19.031  -0.314  53.193  1.00  0.00    -0.327 N 
HETATM   12  C11 UNL     1      17.990  -1.268  53.219  1.00  0.00     0.226 C 
HETATM   13  O1  UNL     1      18.315  -2.443  53.513  1.00  0.00    -0.273 OA
HETATM   14  H10 UNL     1      18.623   0.625  52.933  1.00  0.00     0.169 HD
BRANCH  12  15
HETATM   15  C12 UNL     1      16.563  -1.026  52.936  1.00  0.00     0.082 C 
HETATM   16  C13 UNL     1      16.464   0.210  52.084  1.00  0.00     0.041 C 
HETATM   17  C14 UNL     1      15.641   0.062  50.849  1.00  0.00     0.033 C 
HETATM   18  C15 UNL     1      15.216   1.459  50.410  1.00  0.00     0.034 C 
HETATM   19  C16 UNL     1      16.388  -0.517  49.670  1.00  0.00     0.034 C 
HETATM   20  N5  UNL     1      14.437  -0.638  51.155  1.00  0.00    -0.182 NA
HETATM   21  C17 UNL     1      14.598  -1.947  51.674  1.00  0.00     0.033 C 
HETATM   22  C18 UNL     1      13.411  -2.219  52.607  1.00  0.00     0.034 C 
HETATM   23  C19 UNL     1      14.417  -2.929  50.509  1.00  0.00     0.034 C 
HETATM   24  C20 UNL     1      15.893  -2.237  52.332  1.00  0.00     0.041 C 
BRANCH  20  25
HETATM   25  O2  UNL     1      13.639   0.137  51.926  1.00  0.00    -0.312 OA
HETATM   26  H20 UNL     1      12.758   0.319  51.555  1.00  0.00     0.237 HD
ENDBRANCH  20  25
ENDBRANCH  12  15
ENDBRANCH   8  11
BRANCH   1  27
HETATM   27  N1  UNL     1      23.012   2.016  51.091  1.00  0.00    -0.331 N 
HETATM   28  C4  UNL     1      22.883   3.433  51.508  1.00  0.00     0.155 C 
HETATM   29  C3  UNL     1      24.183   4.049  51.130  1.00  0.00    -0.005 C 
HETATM   30  C2  UNL     1      24.327   3.891  49.820  1.00  0.00    -0.082 C 
HETATM   31  C1  UNL     1      25.614   4.478  49.330  1.00  0.00     0.043 C 
HETATM   32  C24 UNL     1      23.316   3.210  48.967  1.00  0.00     0.092 C 
HETATM   33  C23 UNL     1      22.726   1.969  49.673  1.00  0.00     0.277 C 
HETATM   34  F1  UNL     1      21.376   2.028  49.388  1.00  0.00    -0.226 F 
ENDBRANCH   1  27
TORSDOF 4
ENDMDL
MODEL 8
REMARK VINA RESULT:      -9.0      2.787      5.159
REMARK  4 active torsions:
REMARK  status: ('A' for Active; 'I' for Inactive)
REMARK    1  A    between atoms: N1_5  and  C5_6 
REMARK    2  A    between atoms: C10_13  and  N4_14 
REMARK       I    between atoms: N4_14  and  C11_15 
REMARK    3  A    between atoms: C11_15  and  C12_17 
REMARK    4  A    between atoms: N5_22  and  O2_23 
ROOT
HETATM    1  C5  UNL     1      22.772   2.788  49.779  1.00  0.00     0.142 A 
HETATM    2  N2  UNL     1      21.941   2.038  50.540  1.00  0.00    -0.224 NA
HETATM    3  C6  UNL     1      22.323   1.330  51.608  1.00  0.00     0.236 A 
HETATM    4  N3  UNL     1      23.609   1.342  51.978  1.00  0.00    -0.241 NA
HETATM    5  C7  UNL     1      24.501   2.047  51.294  1.00  0.00     0.072 A 
HETATM    6  C8  UNL     1      25.828   2.057  51.661  1.00  0.00     0.035 A 
HETATM    7  C9  UNL     1      26.679   2.810  50.882  1.00  0.00     0.032 A 
HETATM    8  C10 UNL     1      26.319   3.548  49.776  1.00  0.00     0.035 A 
HETATM    9  C21 UNL     1      24.981   3.490  49.472  1.00  0.00     0.047 A 
HETATM   10  C22 UNL     1      24.079   2.764  50.202  1.00  0.00     0.041 A 
ENDROOT
BRANCH   8  11
HETATM   11  N4  UNL     1      27.172   4.316  48.977  1.00  0.00    -0.327 N 
HETATM   12  C11 UNL     1      27.265   5.711  48.781  1.00  0.00     0.226 C 
HETATM   13  O1  UNL     1      26.456   6.422  49.423  1.00  0.00    -0.273 OA
HETATM   14  H10 UNL     1      27.903   3.841  48.383  1.00  0.00     0.169 HD
BRANCH  12  15
HETATM   15  C12 UNL     1      28.216   6.417  47.902  1.00  0.00     0.082 C 
HETATM   16  C13 UNL     1      27.709   7.819  47.705  1.00  0.00     0.041 C 
HETATM   17  C14 UNL     1      28.710   8.896  47.959  1.00  0.00     0.033 C 
HETATM   18  C15 UNL     1      28.232  10.149  47.234  1.00  0.00     0.034 C 
HETATM   19  C16 UNL     1      28.836   9.297  49.410  1.00  0.00     0.034 C 
HETATM   20  N5  UNL     1      29.955   8.545  47.361  1.00  0.00    -0.182 NA
HETATM   21  C17 UNL     1      30.548   7.344  47.825  1.00  0.00     0.033 C 
HETATM   22  C18 UNL     1      31.349   6.747  46.660  1.00  0.00     0.034 C 
HETATM   23  C19 UNL     1      31.601   7.727  48.873  1.00  0.00     0.034 C 
HETATM   24  C20 UNL     1      29.630   6.349  48.428  1.00  0.00     0.041 C 
BRANCH  20  25
HETATM   25  O2  UNL     1      29.843   8.585  46.012  1.00  0.00    -0.312 OA
HETATM   26  H20 UNL     1      30.445   9.209  45.567  1.00  0.00     0.237 HD
ENDBRANCH  20  25
ENDBRANCH  12  15
ENDBRANCH   8  11
BRANCH   1  27
HETATM   27  N1  UNL     1      22.171   3.527  48.722  1.00  0.00    -0.331 N 
HETATM   28  C4  UNL     1      21.417   4.725  49.163  1.00  0.00     0.155 C 
HETATM   29  C3  UNL     1      22.378   5.849  48.997  1.00  0.00    -0.005 C 
HETATM   30  C2  UNL     1      22.727   5.882  47.717  1.00  0.00    -0.082 C 
HETATM   31  C1  UNL     1      23.700   6.984  47.438  1.00  0.00     0.043 C 
HETATM   32  C24 UNL     1      22.198   4.929  46.705  1.00  0.00     0.092 C 
HETATM   33  C23 UNL     1      22.100   3.496  47.277  1.00  0.00     0.277 C 
HETATM   34  F1  UNL     1      20.891   3.026  46.802  1.00  0.00    -0.226 F 
ENDBRANCH   1  27
TORSDOF 4
ENDMDL
MODEL 9
REMARK VINA RESULT:      -8.8      5.384     10.544
REMARK  4 active torsions:
REMARK  status: ('A' for Active; 'I' for Inactive)
REMARK    1  A    between atoms: N1_5  and  C5_6 
REMARK    2  A    between atoms: C10_13  and  N4_14 
REMARK       I    between atoms: N4_14  and  C11_15 
REMARK    3  A    between atoms: C11_15  and  C12_17 
REMARK    4  A    between atoms: N5_22  and  O2_23 
ROOT
HETATM    1  C5  UNL     1      24.389   2.307  52.527  1.00  0.00     0.142 A 
HETATM    2  N2  UNL     1      25.622   2.081  53.037  1.00  0.00    -0.224 NA
HETATM    3  C6  UNL     1      25.979   0.976  53.700  1.00  0.00     0.236 A 
HETATM    4  N3  UNL     1      25.078   0.006  53.891  1.00  0.00    -0.241 NA
HETATM    5  C7  UNL     1      23.841   0.133  53.429  1.00  0.00     0.072 A 
HETATM    6  C8  UNL     1      22.904  -0.855  53.629  1.00  0.00     0.035 A 
HETATM    7  C9  UNL     1      21.644  -0.625  53.122  1.00  0.00     0.032 A 
HETATM    8  C10 UNL     1      21.243   0.500  52.438  1.00  0.00     0.035 A 
HETATM    9  C21 UNL     1      22.231   1.441  52.276  1.00  0.00     0.047 A 
HETATM   10  C22 UNL     1      23.504   1.279  52.752  1.00  0.00     0.041 A 
ENDROOT
BRANCH   8  11
HETATM   11  N4  UNL     1      19.969   0.747  51.918  1.00  0.00    -0.327 N 
HETATM   12  C11 UNL     1      19.527   0.986  50.599  1.00  0.00     0.226 C 
HETATM   13  O1  UNL     1      20.406   0.984  49.705  1.00  0.00    -0.273 OA
HETATM   14  H10 UNL     1      19.136   0.776  52.565  1.00  0.00     0.169 HD
BRANCH  12  15
HETATM   15  C12 UNL     1      18.140   1.237  50.164  1.00  0.00     0.082 C 
HETATM   16  C13 UNL     1      17.407  -0.076  50.176  1.00  0.00     0.041 C 
HETATM   17  C14 UNL     1      16.107  -0.068  50.907  1.00  0.00     0.033 C 
HETATM   18  C15 UNL     1      15.284  -1.245  50.393  1.00  0.00     0.034 C 
HETATM   19  C16 UNL     1      16.230  -0.287  52.396  1.00  0.00     0.034 C 
HETATM   20  N5  UNL     1      15.372   1.105  50.567  1.00  0.00    -0.182 NA
HETATM   21  C17 UNL     1      15.999   2.338  50.875  1.00  0.00     0.033 C 
HETATM   22  C18 UNL     1      15.525   3.365  49.837  1.00  0.00     0.034 C 
HETATM   23  C19 UNL     1      15.417   2.828  52.208  1.00  0.00     0.034 C 
HETATM   24  C20 UNL     1      17.475   2.313  50.990  1.00  0.00     0.041 C 
BRANCH  20  25
HETATM   25  O2  UNL     1      14.963   1.033  49.278  1.00  0.00    -0.312 OA
HETATM   26  H20 UNL     1      15.010   1.871  48.784  1.00  0.00     0.237 HD
ENDBRANCH  20  25
ENDBRANCH  12  15
ENDBRANCH   8  11
BRANCH   1  27
HETATM   27  N1  UNL     1      24.215   3.512  51.792  1.00  0.00    -0.331 N 
HETATM   28  C4  UNL     1      25.175   3.693  50.677  1.00  0.00     0.155 C 
HETATM   29  C3  UNL     1      24.440   3.212  49.476  1.00  0.00    -0.005 C 
HETATM   30  C2  UNL     1      23.345   3.952  49.361  1.00  0.00    -0.082 C 
HETATM   31  C1  UNL     1      22.525   3.548  48.176  1.00  0.00     0.043 C 
HETATM   32  C24 UNL     1      23.000   5.046  50.308  1.00  0.00     0.092 C 
HETATM   33  C23 UNL     1      23.324   4.652  51.767  1.00  0.00     0.277 C 
HETATM   34  F1  UNL     1      23.883   5.792  52.309  1.00  0.00    -0.226 F 
ENDBRANCH   1  27
TORSDOF 4
ENDMDL
