MODEL 1
REMARK VINA RESULT:      -7.6      0.000      0.000
REMARK  4 active torsions:
REMARK  status: ('A' for Active; 'I' for Inactive)
REMARK    1  A    between atoms: C1_2  and  C2_3 
REMARK       I    between atoms: C1_2  and  N1_11 
REMARK    2  A    between atoms: C2_3  and  C3_4 
REMARK    3  A    between atoms: N1_11  and  S1_12 
REMARK    4  A    between atoms: S1_12  and  C9_15 
ROOT
HETATM    1  O1  UNL     1      22.356   0.985  53.456  1.00  0.00    -0.272 OA
HETATM    2  C1  UNL     1      23.545   0.725  53.062  1.00  0.00     0.235 C 
HETATM    3  N1  UNL     1      24.216   1.507  52.111  1.00  0.00    -0.250 N 
HETATM    4  H7  UNL     1      25.187   1.241  51.829  1.00  0.00     0.181 HD
ENDROOT
BRANCH   3   5
HETATM    5  S1  UNL     1      23.659   2.916  51.285  1.00  0.00     0.261 S 
HETATM    6  O2  UNL     1      22.538   2.552  50.366  1.00  0.00    -0.200 OA
HETATM    7  O3  UNL     1      23.148   3.950  52.256  1.00  0.00    -0.200 OA
BRANCH   5   8
HETATM    8  C9  UNL     1      24.993   3.616  50.362  1.00  0.00     0.062 A 
HETATM    9  C10 UNL     1      24.990   4.841  49.814  1.00  0.00     0.044 A 
HETATM   10  C11 UNL     1      26.265   5.047  49.140  1.00  0.00     0.031 A 
HETATM   11 CL2  UNL     1      26.713   6.515  48.272  1.00  0.00    -0.085 Cl
HETATM   12  C12 UNL     1      26.990   3.967  49.295  1.00  0.00     0.002 A 
HETATM   13  C13 UNL     1      26.267   2.935  50.086  1.00  0.00     0.081 A 
ENDBRANCH   5   8
ENDBRANCH   3   5
BRANCH   2  14
HETATM   14  C2  UNL     1      24.108  -0.459  53.710  1.00  0.00     0.142 C 
BRANCH  14  15
HETATM   15  C3  UNL     1      25.597  -0.496  53.654  1.00  0.00    -0.049 A 
HETATM   16  C4  UNL     1      26.271   0.227  54.625  1.00  0.00     0.009 A 
HETATM   17  C5  UNL     1      27.650   0.265  54.674  1.00  0.00     0.024 A 
HETATM   18  C6  UNL     1      28.367  -0.445  53.720  1.00  0.00     0.034 A 
HETATM   19 CL1  UNL     1      30.121  -0.487  53.658  1.00  0.00    -0.084 Cl
HETATM   20  C7  UNL     1      27.729  -1.179  52.735  1.00  0.00     0.024 A 
HETATM   21  C8  UNL     1      26.341  -1.190  52.720  1.00  0.00     0.009 A 
ENDBRANCH  14  15
ENDBRANCH   2  14
TORSDOF 4
ENDMDL
MODEL 2
REMARK VINA RESULT:      -7.4      1.858      2.342
REMARK  4 active torsions:
REMARK  status: ('A' for Active; 'I' for Inactive)
REMARK    1  A    between atoms: C1_2  and  C2_3 
REMARK       I    between atoms: C1_2  and  N1_11 
REMARK    2  A    between atoms: C2_3  and  C3_4 
REMARK    3  A    between atoms: N1_11  and  S1_12 
REMARK    4  A    between atoms: S1_12  and  C9_15 
ROOT
HETATM    1  O1  UNL     1      24.227   2.237  50.814  1.00  0.00    -0.272 OA
HETATM    2  C1  UNL     1      24.419   2.919  51.880  1.00  0.00     0.235 C 
HETATM    3  N1  UNL     1      24.491   4.319  51.881  1.00  0.00    -0.250 N 
HETATM    4  H7  UNL     1      24.652   4.818  52.786  1.00  0.00     0.181 HD
ENDROOT
BRANCH   3   5
HETATM    5  S1  UNL     1      24.348   5.409  50.550  1.00  0.00     0.261 S 
HETATM    6  O2  UNL     1      23.207   4.993  49.679  1.00  0.00    -0.200 OA
HETATM    7  O3  UNL     1      24.085   6.816  51.023  1.00  0.00    -0.200 OA
BRANCH   5   8
HETATM    8  C9  UNL     1      25.852   5.395  49.622  1.00  0.00     0.062 A 
HETATM    9  C10 UNL     1      26.374   6.455  48.988  1.00  0.00     0.044 A 
HETATM   10  C11 UNL     1      27.613   6.042  48.343  1.00  0.00     0.031 A 
HETATM   11 CL2  UNL     1      28.646   7.103  47.386  1.00  0.00    -0.085 Cl
HETATM   12  C12 UNL     1      27.804   4.771  48.598  1.00  0.00     0.002 A 
HETATM   13  C13 UNL     1      26.710   4.214  49.437  1.00  0.00     0.081 A 
ENDBRANCH   5   8
ENDBRANCH   3   5
BRANCH   2  14
HETATM   14  C2  UNL     1      24.552   2.079  53.070  1.00  0.00     0.142 C 
BRANCH  14  15
HETATM   15  C3  UNL     1      25.864   1.377  53.139  1.00  0.00    -0.049 A 
HETATM   16  C4  UNL     1      25.830  -0.007  53.076  1.00  0.00     0.009 A 
HETATM   17  C5  UNL     1      26.983  -0.764  53.128  1.00  0.00     0.024 A 
HETATM   18  C6  UNL     1      28.202  -0.109  53.247  1.00  0.00     0.034 A 
HETATM   19 CL1  UNL     1      29.746  -0.940  53.326  1.00  0.00    -0.084 Cl
HETATM   20  C7  UNL     1      28.276   1.272  53.313  1.00  0.00     0.024 A 
HETATM   21  C8  UNL     1      27.093   1.996  53.258  1.00  0.00     0.009 A 
ENDBRANCH  14  15
ENDBRANCH   2  14
TORSDOF 4
ENDMDL
MODEL 3
REMARK VINA RESULT:      -7.4      1.155      1.630
REMARK  4 active torsions:
REMARK  status: ('A' for Active; 'I' for Inactive)
REMARK    1  A    between atoms: C1_2  and  C2_3 
REMARK       I    between atoms: C1_2  and  N1_11 
REMARK    2  A    between atoms: C2_3  and  C3_4 
REMARK    3  A    between atoms: N1_11  and  S1_12 
REMARK    4  A    between atoms: S1_12  and  C9_15 
ROOT
HETATM    1  O1  UNL     1      24.289   3.199  52.897  1.00  0.00    -0.272 OA
HETATM    2  C1  UNL     1      23.996   2.065  52.380  1.00  0.00     0.235 C 
HETATM    3  N1  UNL     1      23.582   1.924  51.047  1.00  0.00    -0.250 N 
HETATM    4  H7  UNL     1      23.356   0.970  50.685  1.00  0.00     0.181 HD
ENDROOT
BRANCH   3   5
HETATM    5  S1  UNL     1      23.377   3.147  49.846  1.00  0.00     0.261 S 
HETATM    6  O2  UNL     1      22.790   2.545  48.610  1.00  0.00    -0.200 OA
HETATM    7  O3  UNL     1      22.444   4.230  50.325  1.00  0.00    -0.200 OA
BRANCH   5   8
HETATM    8  C9  UNL     1      24.945   3.871  49.479  1.00  0.00     0.062 A 
HETATM    9  C10 UNL     1      25.129   5.123  49.031  1.00  0.00     0.044 A 
HETATM   10  C11 UNL     1      26.557   5.343  48.850  1.00  0.00     0.031 A 
HETATM   11 CL2  UNL     1      27.274   6.847  48.272  1.00  0.00    -0.085 Cl
HETATM   12  C12 UNL     1      27.187   4.244  49.185  1.00  0.00     0.002 A 
HETATM   13  C13 UNL     1      26.238   3.184  49.620  1.00  0.00     0.081 A 
ENDBRANCH   5   8
ENDBRANCH   3   5
BRANCH   2  14
HETATM   14  C2  UNL     1      24.142   0.960  53.326  1.00  0.00     0.142 C 
BRANCH  14  15
HETATM   15  C3  UNL     1      25.546   0.473  53.435  1.00  0.00    -0.049 A 
HETATM   16  C4  UNL     1      25.924  -0.529  52.555  1.00  0.00     0.009 A 
HETATM   17  C5  UNL     1      27.199  -1.056  52.562  1.00  0.00     0.024 A 
HETATM   18  C6  UNL     1      28.118  -0.561  53.478  1.00  0.00     0.034 A 
HETATM   19 CL1  UNL     1      29.772  -1.136  53.602  1.00  0.00    -0.084 Cl
HETATM   20  C7  UNL     1      27.777   0.439  54.372  1.00  0.00     0.024 A 
HETATM   21  C8  UNL     1      26.484   0.942  54.334  1.00  0.00     0.009 A 
ENDBRANCH  14  15
ENDBRANCH   2  14
TORSDOF 4
ENDMDL
MODEL 4
REMARK VINA RESULT:      -7.1      3.516      7.104
REMARK  4 active torsions:
REMARK  status: ('A' for Active; 'I' for Inactive)
REMARK    1  A    between atoms: C1_2  and  C2_3 
REMARK       I    between atoms: C1_2  and  N1_11 
REMARK    2  A    between atoms: C2_3  and  C3_4 
REMARK    3  A    between atoms: N1_11  and  S1_12 
REMARK    4  A    between atoms: S1_12  and  C9_15 
ROOT
HETATM    1  O1  UNL     1      27.727   2.474  52.104  1.00  0.00    -0.272 OA
HETATM    2  C1  UNL     1      26.733   1.904  51.534  1.00  0.00     0.235 C 
HETATM    3  N1  UNL     1      25.977   0.898  52.155  1.00  0.00    -0.250 N 
HETATM    4  H7  UNL     1      25.177   0.471  51.635  1.00  0.00     0.181 HD
ENDROOT
BRANCH   3   5
HETATM    5  S1  UNL     1      26.172   0.218  53.729  1.00  0.00     0.261 S 
HETATM    6  O2  UNL     1      27.216  -0.851  53.690  1.00  0.00    -0.200 OA
HETATM    7  O3  UNL     1      26.612   1.263  54.723  1.00  0.00    -0.200 OA
BRANCH   5   8
HETATM    8  C9  UNL     1      24.632  -0.461  54.265  1.00  0.00     0.062 A 
HETATM    9  C10 UNL     1      23.475  -0.369  53.590  1.00  0.00     0.044 A 
HETATM   10  C11 UNL     1      22.441  -1.053  54.355  1.00  0.00     0.031 A 
HETATM   11 CL2  UNL     1      20.754  -1.188  53.860  1.00  0.00    -0.085 Cl
HETATM   12  C12 UNL     1      22.986  -1.529  55.448  1.00  0.00     0.002 A 
HETATM   13  C13 UNL     1      24.436  -1.208  55.516  1.00  0.00     0.081 A 
ENDBRANCH   5   8
ENDBRANCH   3   5
BRANCH   2  14
HETATM   14  C2  UNL     1      26.485   2.417  50.187  1.00  0.00     0.142 C 
BRANCH  14  15
HETATM   15  C3  UNL     1      25.857   3.769  50.190  1.00  0.00    -0.049 A 
HETATM   16  C4  UNL     1      26.444   4.724  49.375  1.00  0.00     0.009 A 
HETATM   17  C5  UNL     1      25.948   6.010  49.294  1.00  0.00     0.024 A 
HETATM   18  C6  UNL     1      24.833   6.341  50.054  1.00  0.00     0.034 A 
HETATM   19 CL1  UNL     1      24.096   7.934  50.052  1.00  0.00    -0.084 Cl
HETATM   20  C7  UNL     1      24.221   5.413  50.879  1.00  0.00     0.024 A 
HETATM   21  C8  UNL     1      24.751   4.132  50.932  1.00  0.00     0.009 A 
ENDBRANCH  14  15
ENDBRANCH   2  14
TORSDOF 4
ENDMDL
MODEL 5
REMARK VINA RESULT:      -7.1      3.237      6.732
REMARK  4 active torsions:
REMARK  status: ('A' for Active; 'I' for Inactive)
REMARK    1  A    between atoms: C1_2  and  C2_3 
REMARK       I    between atoms: C1_2  and  N1_11 
REMARK    2  A    between atoms: C2_3  and  C3_4 
REMARK    3  A    between atoms: N1_11  and  S1_12 
REMARK    4  A    between atoms: S1_12  and  C9_15 
ROOT
HETATM    1  O1  UNL     1      23.798   3.399  52.180  1.00  0.00    -0.272 OA
HETATM    2  C1  UNL     1      24.152   2.638  51.214  1.00  0.00     0.235 C 
HETATM    3  N1  UNL     1      24.687   1.357  51.415  1.00  0.00    -0.250 N 
HETATM    4  H7  UNL     1      24.959   0.784  50.584  1.00  0.00     0.181 HD
ENDROOT
BRANCH   3   5
HETATM    5  S1  UNL     1      24.986   0.533  52.903  1.00  0.00     0.261 S 
HETATM    6  O2  UNL     1      25.958  -0.579  52.676  1.00  0.00    -0.200 OA
HETATM    7  O3  UNL     1      25.575   1.465  53.932  1.00  0.00    -0.200 OA
BRANCH   5   8
HETATM    8  C9  UNL     1      23.464  -0.111  53.527  1.00  0.00     0.062 A 
HETATM    9  C10 UNL     1      22.259   0.091  52.972  1.00  0.00     0.044 A 
HETATM   10  C11 UNL     1      21.260  -0.601  53.776  1.00  0.00     0.031 A 
HETATM   11 CL2  UNL     1      19.531  -0.614  53.433  1.00  0.00    -0.085 Cl
HETATM   12  C12 UNL     1      21.873  -1.192  54.773  1.00  0.00     0.002 A 
HETATM   13  C13 UNL     1      23.340  -0.948  54.730  1.00  0.00     0.081 A 
ENDBRANCH   5   8
ENDBRANCH   3   5
BRANCH   2  14
HETATM   14  C2  UNL     1      23.935   3.251  49.905  1.00  0.00     0.142 C 
BRANCH  14  15
HETATM   15  C3  UNL     1      25.092   4.073  49.452  1.00  0.00    -0.049 A 
HETATM   16  C4  UNL     1      24.817   5.382  49.091  1.00  0.00     0.009 A 
HETATM   17  C5  UNL     1      25.810   6.238  48.657  1.00  0.00     0.024 A 
HETATM   18  C6  UNL     1      27.113   5.762  48.587  1.00  0.00     0.034 A 
HETATM   19 CL1  UNL     1      28.473   6.734  48.054  1.00  0.00    -0.084 Cl
HETATM   20  C7  UNL     1      27.425   4.460  48.939  1.00  0.00     0.024 A 
HETATM   21  C8  UNL     1      26.398   3.631  49.368  1.00  0.00     0.009 A 
ENDBRANCH  14  15
ENDBRANCH   2  14
TORSDOF 4
ENDMDL
MODEL 6
REMARK VINA RESULT:      -7.0      4.210      5.543
REMARK  4 active torsions:
REMARK  status: ('A' for Active; 'I' for Inactive)
REMARK    1  A    between atoms: C1_2  and  C2_3 
REMARK       I    between atoms: C1_2  and  N1_11 
REMARK    2  A    between atoms: C2_3  and  C3_4 
REMARK    3  A    between atoms: N1_11  and  S1_12 
REMARK    4  A    between atoms: S1_12  and  C9_15 
ROOT
HETATM    1  O1  UNL     1      24.154   1.516  53.048  1.00  0.00    -0.272 OA
HETATM    2  C1  UNL     1      23.498   0.428  53.201  1.00  0.00     0.235 C 
HETATM    3  N1  UNL     1      22.284   0.177  52.545  1.00  0.00    -0.250 N 
HETATM    4  H7  UNL     1      21.795  -0.732  52.713  1.00  0.00     0.181 HD
ENDROOT
BRANCH   3   5
HETATM    5  S1  UNL     1      21.421   1.190  51.445  1.00  0.00     0.261 S 
HETATM    6  O2  UNL     1      21.409   2.594  51.958  1.00  0.00    -0.200 OA
HETATM    7  O3  UNL     1      22.072   1.195  50.085  1.00  0.00    -0.200 OA
BRANCH   5   8
HETATM    8  C9  UNL     1      19.767   0.593  51.280  1.00  0.00     0.062 A 
HETATM    9  C10 UNL     1      19.127  -0.162  52.187  1.00  0.00     0.044 A 
HETATM   10  C11 UNL     1      17.789  -0.446  51.687  1.00  0.00     0.031 A 
HETATM   11 CL2  UNL     1      16.585  -1.411  52.542  1.00  0.00    -0.085 Cl
HETATM   12  C12 UNL     1      17.656   0.130  50.518  1.00  0.00     0.002 A 
HETATM   13  C13 UNL     1      18.894   0.854  50.125  1.00  0.00     0.081 A 
ENDBRANCH   5   8
ENDBRANCH   3   5
BRANCH   2  14
HETATM   14  C2  UNL     1      24.153  -0.502  54.119  1.00  0.00     0.142 C 
BRANCH  14  15
HETATM   15  C3  UNL     1      25.640  -0.466  54.016  1.00  0.00    -0.049 A 
HETATM   16  C4  UNL     1      26.201  -1.131  52.938  1.00  0.00     0.009 A 
HETATM   17  C5  UNL     1      27.567  -1.165  52.739  1.00  0.00     0.024 A 
HETATM   18  C6  UNL     1      28.387  -0.509  53.648  1.00  0.00     0.034 A 
HETATM   19 CL1  UNL     1      30.137  -0.468  53.522  1.00  0.00    -0.084 Cl
HETATM   20  C7  UNL     1      27.862   0.166  54.737  1.00  0.00     0.024 A 
HETATM   21  C8  UNL     1      26.484   0.175  54.902  1.00  0.00     0.009 A 
ENDBRANCH  14  15
ENDBRANCH   2  14
TORSDOF 4
ENDMDL
MODEL 7
REMARK VINA RESULT:      -6.8      2.620      3.157
REMARK  4 active torsions:
REMARK  status: ('A' for Active; 'I' for Inactive)
REMARK    1  A    between atoms: C1_2  and  C2_3 
REMARK       I    between atoms: C1_2  and  N1_11 
REMARK    2  A    between atoms: C2_3  and  C3_4 
REMARK    3  A    between atoms: N1_11  and  S1_12 
REMARK    4  A    between atoms: S1_12  and  C9_15 
ROOT
HETATM    1  O1  UNL     1      23.043   2.118  53.020  1.00  0.00    -0.272 OA
HETATM    2  C1  UNL     1      24.025   1.421  52.584  1.00  0.00     0.235 C 
HETATM    3  N1  UNL     1      24.739   1.761  51.426  1.00  0.00    -0.250 N 
HETATM    4  H7  UNL     1      25.531   1.149  51.121  1.00  0.00     0.181 HD
ENDROOT
BRANCH   3   5
HETATM    5  S1  UNL     1      24.504   3.104  50.367  1.00  0.00     0.261 S 
HETATM    6  O2  UNL     1      24.276   4.344  51.170  1.00  0.00    -0.200 OA
HETATM    7  O3  UNL     1      25.714   3.328  49.496  1.00  0.00    -0.200 OA
BRANCH   5   8
HETATM    8  C9  UNL     1      23.109   2.789  49.331  1.00  0.00     0.062 A 
HETATM    9  C10 UNL     1      22.733   3.554  48.294  1.00  0.00     0.044 A 
HETATM   10  C11 UNL     1      21.543   2.966  47.695  1.00  0.00     0.031 A 
HETATM   11 CL2  UNL     1      20.690   3.630  46.302  1.00  0.00    -0.085 Cl
HETATM   12  C12 UNL     1      21.236   1.885  48.369  1.00  0.00     0.002 A 
HETATM   13  C13 UNL     1      22.192   1.649  49.484  1.00  0.00     0.081 A 
ENDBRANCH   5   8
ENDBRANCH   3   5
BRANCH   2  14
HETATM   14  C2  UNL     1      24.304   0.255  53.421  1.00  0.00     0.142 C 
BRANCH  14  15
HETATM   15  C3  UNL     1      25.761  -0.027  53.552  1.00  0.00    -0.049 A 
HETATM   16  C4  UNL     1      26.255  -1.091  52.813  1.00  0.00     0.009 A 
HETATM   17  C5  UNL     1      27.589  -1.444  52.854  1.00  0.00     0.024 A 
HETATM   18  C6  UNL     1      28.447  -0.706  53.658  1.00  0.00     0.034 A 
HETATM   19 CL1  UNL     1      30.164  -1.041  53.809  1.00  0.00    -0.084 Cl
HETATM   20  C7  UNL     1      27.990   0.362  54.410  1.00  0.00     0.024 A 
HETATM   21  C8  UNL     1      26.642   0.685  54.343  1.00  0.00     0.009 A 
ENDBRANCH  14  15
ENDBRANCH   2  14
TORSDOF 4
ENDMDL
MODEL 8
REMARK VINA RESULT:      -6.8      2.865      7.142
REMARK  4 active torsions:
REMARK  status: ('A' for Active; 'I' for Inactive)
REMARK    1  A    between atoms: C1_2  and  C2_3 
REMARK       I    between atoms: C1_2  and  N1_11 
REMARK    2  A    between atoms: C2_3  and  C3_4 
REMARK    3  A    between atoms: N1_11  and  S1_12 
REMARK    4  A    between atoms: S1_12  and  C9_15 
ROOT
HETATM    1  O1  UNL     1      24.554   3.342  49.220  1.00  0.00    -0.272 OA
HETATM    2  C1  UNL     1      25.496   3.571  50.056  1.00  0.00     0.235 C 
HETATM    3  N1  UNL     1      25.278   3.651  51.439  1.00  0.00    -0.250 N 
HETATM    4  H7  UNL     1      26.090   3.842  52.070  1.00  0.00     0.181 HD
ENDROOT
BRANCH   3   5
HETATM    5  S1  UNL     1      23.799   3.475  52.312  1.00  0.00     0.261 S 
HETATM    6  O2  UNL     1      23.778   4.427  53.464  1.00  0.00    -0.200 OA
HETATM    7  O3  UNL     1      22.611   3.778  51.435  1.00  0.00    -0.200 OA
BRANCH   5   8
HETATM    8  C9  UNL     1      23.663   1.814  52.897  1.00  0.00     0.062 A 
HETATM    9  C10 UNL     1      22.511   1.201  53.210  1.00  0.00     0.044 A 
HETATM   10  C11 UNL     1      22.815  -0.154  53.650  1.00  0.00     0.031 A 
HETATM   11 CL2  UNL     1      21.611  -1.333  54.167  1.00  0.00    -0.085 Cl
HETATM   12  C12 UNL     1      24.114  -0.322  53.593  1.00  0.00     0.002 A 
HETATM   13  C13 UNL     1      24.800   0.906  53.111  1.00  0.00     0.081 A 
ENDBRANCH   5   8
ENDBRANCH   3   5
BRANCH   2  14
HETATM   14  C2  UNL     1      26.797   3.734  49.409  1.00  0.00     0.142 C 
BRANCH  14  15
HETATM   15  C3  UNL     1      26.997   5.101  48.850  1.00  0.00    -0.049 A 
HETATM   16  C4  UNL     1      28.273   5.405  48.401  1.00  0.00     0.009 A 
HETATM   17  C5  UNL     1      28.576   6.639  47.862  1.00  0.00     0.024 A 
HETATM   18  C6  UNL     1      27.569   7.590  47.772  1.00  0.00     0.034 A 
HETATM   19 CL1  UNL     1      27.808   9.199  47.111  1.00  0.00    -0.084 Cl
HETATM   20  C7  UNL     1      26.283   7.323  48.211  1.00  0.00     0.024 A 
HETATM   21  C8  UNL     1      26.019   6.071  48.748  1.00  0.00     0.009 A 
ENDBRANCH  14  15
ENDBRANCH   2  14
TORSDOF 4
ENDMDL
MODEL 9
REMARK VINA RESULT:      -6.5      3.774      4.849
REMARK  4 active torsions:
REMARK  status: ('A' for Active; 'I' for Inactive)
REMARK    1  A    between atoms: C1_2  and  C2_3 
REMARK       I    between atoms: C1_2  and  N1_11 
REMARK    2  A    between atoms: C2_3  and  C3_4 
REMARK    3  A    between atoms: N1_11  and  S1_12 
REMARK    4  A    between atoms: S1_12  and  C9_15 
ROOT
HETATM    1  O1  UNL     1      22.164   4.603  49.642  1.00  0.00    -0.272 OA
HETATM    2  C1  UNL     1      23.115   3.827  49.279  1.00  0.00     0.235 C 
HETATM    3  N1  UNL     1      24.423   4.284  49.061  1.00  0.00    -0.250 N 
HETATM    4  H7  UNL     1      25.156   3.599  48.764  1.00  0.00     0.181 HD
ENDROOT
BRANCH   3   5
HETATM    5  S1  UNL     1      25.047   5.886  49.212  1.00  0.00     0.261 S 
HETATM    6  O2  UNL     1      24.253   6.819  48.356  1.00  0.00    -0.200 OA
HETATM    7  O3  UNL     1      24.960   6.372  50.637  1.00  0.00    -0.200 OA
BRANCH   5   8
HETATM    8  C9  UNL     1      26.741   5.901  48.711  1.00  0.00     0.062 A 
HETATM    9  C10 UNL     1      27.410   6.986  48.292  1.00  0.00     0.044 A 
HETATM   10  C11 UNL     1      28.775   6.591  47.972  1.00  0.00     0.031 A 
HETATM   11 CL2  UNL     1      30.022   7.687  47.378  1.00  0.00    -0.085 Cl
HETATM   12  C12 UNL     1      28.894   5.306  48.199  1.00  0.00     0.002 A 
HETATM   13  C13 UNL     1      27.619   4.720  48.692  1.00  0.00     0.081 A 
ENDBRANCH   5   8
ENDBRANCH   3   5
BRANCH   2  14
HETATM   14  C2  UNL     1      22.683   2.439  49.125  1.00  0.00     0.142 C 
BRANCH  14  15
HETATM   15  C3  UNL     1      22.599   1.712  50.423  1.00  0.00    -0.049 A 
HETATM   16  C4  UNL     1      21.506   0.876  50.594  1.00  0.00     0.009 A 
HETATM   17  C5  UNL     1      21.323   0.151  51.754  1.00  0.00     0.024 A 
HETATM   18  C6  UNL     1      22.266   0.270  52.767  1.00  0.00     0.034 A 
HETATM   19 CL1  UNL     1      22.163  -0.590  54.294  1.00  0.00    -0.084 Cl
HETATM   20  C7  UNL     1      23.369   1.095  52.632  1.00  0.00     0.024 A 
HETATM   21  C8  UNL     1      23.516   1.808  51.451  1.00  0.00     0.009 A 
ENDBRANCH  14  15
ENDBRANCH   2  14
TORSDOF 4
ENDMDL
