MODEL 1
REMARK VINA RESULT:     -10.4      0.000      0.000
REMARK  5 active torsions:
REMARK  status: ('A' for Active; 'I' for Inactive)
REMARK    1  A    between atoms: C12_17  and  N4_18 
REMARK    2  A    between atoms: N4_18  and  C13_19 
REMARK    3  A    between atoms: C16_22  and  O2_23 
REMARK    4  A    between atoms: O2_23  and  C17_24 
REMARK    5  A    between atoms: C17_24  and  C18_25 
ROOT
HETATM    1  C1  UNL     1      28.603   0.715  54.580  1.00  0.00     0.036 C 
HETATM    2  C2  UNL     1      27.289   1.030  53.872  1.00  0.00     0.099 C 
HETATM    3  C3  UNL     1      27.620   2.106  52.890  1.00  0.00     0.010 C 
HETATM    4  C4  UNL     1      26.885   2.333  51.771  1.00  0.00    -0.018 C 
HETATM    5  C5  UNL     1      26.118   1.287  51.768  1.00  0.00    -0.017 C 
HETATM    6  C6  UNL     1      26.874  -0.043  51.870  1.00  0.00     0.158 C 
HETATM    7  N1  UNL     1      26.802  -0.191  53.318  1.00  0.00    -0.394 N 
HETATM    8  C7  UNL     1      25.693  -0.818  53.843  1.00  0.00     0.202 C 
HETATM    9  C8  UNL     1      24.331  -0.249  53.668  1.00  0.00     0.184 C 
HETATM   10  O1  UNL     1      23.339  -0.686  54.299  1.00  0.00    -0.290 OA
HETATM   11  C9  UNL     1      23.941   0.905  52.736  1.00  0.00     0.066 A 
HETATM   12  S1  UNL     1      22.416   1.546  52.687  1.00  0.00    -0.065 SA
HETATM   13  C10 UNL     1      22.801   2.811  51.348  1.00  0.00     0.114 A 
HETATM   14  N2  UNL     1      22.081   3.773  50.697  1.00  0.00    -0.234 NA
HETATM   15  C11 UNL     1      22.656   4.525  49.762  1.00  0.00     0.236 A 
HETATM   16  N3  UNL     1      23.951   4.274  49.513  1.00  0.00    -0.223 NA
HETATM   17  C12 UNL     1      24.711   3.348  50.114  1.00  0.00     0.143 A 
HETATM   18  C25 UNL     1      24.176   2.553  51.087  1.00  0.00     0.058 A 
HETATM   19  C26 UNL     1      24.745   1.609  51.778  1.00  0.00     0.010 A 
ENDROOT
BRANCH  17  20
HETATM   20  N4  UNL     1      25.988   3.297  49.510  1.00  0.00    -0.343 N 
HETATM   21  H11 UNL     1      26.847   2.870  49.116  1.00  0.00     0.167 HD
BRANCH  20  22
HETATM   22  C13 UNL     1      26.566   4.574  49.156  1.00  0.00     0.017 A 
HETATM   23  C14 UNL     1      26.155   5.832  49.267  1.00  0.00     0.028 A 
HETATM   24  C15 UNL     1      27.091   6.827  48.768  1.00  0.00     0.034 A 
HETATM   25  C16 UNL     1      28.122   6.141  48.334  1.00  0.00     0.052 A 
HETATM   26  C24 UNL     1      27.908   4.708  48.526  1.00  0.00     0.121 A 
BRANCH  25  27
HETATM   27  O2  UNL     1      29.263   6.677  47.770  1.00  0.00    -0.351 OA
BRANCH  27  28
HETATM   28  C17 UNL     1      30.538   6.367  48.330  1.00  0.00     0.214 C 
BRANCH  28  29
HETATM   29  C18 UNL     1      31.339   5.533  47.406  1.00  0.00    -0.031 A 
HETATM   30  C19 UNL     1      32.003   6.298  46.468  1.00  0.00     0.009 A 
HETATM   31  C20 UNL     1      32.817   5.727  45.494  1.00  0.00     0.004 A 
HETATM   32  C21 UNL     1      32.952   4.358  45.481  1.00  0.00     0.042 A 
HETATM   33  C22 UNL     1      32.290   3.587  46.419  1.00  0.00     0.117 A 
HETATM   34  F1  UNL     1      32.401   2.221  46.437  1.00  0.00    -0.206 F 
HETATM   35  C23 UNL     1      31.483   4.184  47.380  1.00  0.00     0.051 A 
ENDBRANCH  28  29
ENDBRANCH  27  28
ENDBRANCH  25  27
ENDBRANCH  20  22
ENDBRANCH  17  20
TORSDOF 5
ENDMDL
MODEL 2
REMARK VINA RESULT:     -10.1      2.669      4.801
REMARK  5 active torsions:
REMARK  status: ('A' for Active; 'I' for Inactive)
REMARK    1  A    between atoms: C12_17  and  N4_18 
REMARK    2  A    between atoms: N4_18  and  C13_19 
REMARK    3  A    between atoms: C16_22  and  O2_23 
REMARK    4  A    between atoms: O2_23  and  C17_24 
REMARK    5  A    between atoms: C17_24  and  C18_25 
ROOT
HETATM    1  C1  UNL     1      18.545  -0.380  51.563  1.00  0.00     0.036 C 
HETATM    2  C2  UNL     1      20.003  -0.143  51.942  1.00  0.00     0.099 C 
HETATM    3  C3  UNL     1      20.561   0.701  50.843  1.00  0.00     0.010 C 
HETATM    4  C4  UNL     1      21.641   1.508  51.010  1.00  0.00    -0.018 C 
HETATM    5  C5  UNL     1      21.780   1.463  52.300  1.00  0.00    -0.017 C 
HETATM    6  C6  UNL     1      20.505   1.804  53.079  1.00  0.00     0.158 C 
HETATM    7  N1  UNL     1      20.014   0.442  53.243  1.00  0.00    -0.394 N 
HETATM    8  C7  UNL     1      20.454  -0.269  54.339  1.00  0.00     0.202 C 
HETATM    9  C8  UNL     1      21.894  -0.590  54.521  1.00  0.00     0.184 C 
HETATM   10  O1  UNL     1      22.292  -1.398  55.394  1.00  0.00    -0.290 OA
HETATM   11  C9  UNL     1      23.063  -0.014  53.713  1.00  0.00     0.066 A 
HETATM   12  S1  UNL     1      24.628  -0.512  53.914  1.00  0.00    -0.065 SA
HETATM   13  C10 UNL     1      25.350   0.653  52.624  1.00  0.00     0.114 A 
HETATM   14  N2  UNL     1      26.606   0.901  52.147  1.00  0.00    -0.234 NA
HETATM   15  C11 UNL     1      26.797   1.824  51.208  1.00  0.00     0.236 A 
HETATM   16  N3  UNL     1      25.702   2.473  50.783  1.00  0.00    -0.223 NA
HETATM   17  C12 UNL     1      24.447   2.278  51.208  1.00  0.00     0.143 A 
HETATM   18  C25 UNL     1      24.189   1.337  52.165  1.00  0.00     0.058 A 
HETATM   19  C26 UNL     1      23.052   1.005  52.702  1.00  0.00     0.010 A 
ENDROOT
BRANCH  17  20
HETATM   20  N4  UNL     1      23.578   3.223  50.618  1.00  0.00    -0.343 N 
HETATM   21  H11 UNL     1      22.744   3.576  50.112  1.00  0.00     0.167 HD
BRANCH  20  22
HETATM   22  C13 UNL     1      23.981   4.606  50.739  1.00  0.00     0.017 A 
HETATM   23  C14 UNL     1      23.801   5.539  51.667  1.00  0.00     0.028 A 
HETATM   24  C15 UNL     1      24.403   6.828  51.364  1.00  0.00     0.034 A 
HETATM   25  C16 UNL     1      24.978   6.670  50.195  1.00  0.00     0.052 A 
HETATM   26  C24 UNL     1      24.781   5.310  49.699  1.00  0.00     0.121 A 
BRANCH  25  27
HETATM   27  O2  UNL     1      25.679   7.643  49.509  1.00  0.00    -0.351 OA
BRANCH  27  28
HETATM   28  C17 UNL     1      26.243   7.337  48.234  1.00  0.00     0.214 C 
BRANCH  28  29
HETATM   29  C18 UNL     1      27.714   7.191  48.322  1.00  0.00    -0.031 A 
HETATM   30  C19 UNL     1      28.107   5.873  48.205  1.00  0.00     0.009 A 
HETATM   31  C20 UNL     1      29.445   5.495  48.259  1.00  0.00     0.004 A 
HETATM   32  C21 UNL     1      30.391   6.479  48.435  1.00  0.00     0.042 A 
HETATM   33  C22 UNL     1      30.003   7.801  48.552  1.00  0.00     0.117 A 
HETATM   34  F1  UNL     1      30.917   8.807  48.730  1.00  0.00    -0.206 F 
HETATM   35  C23 UNL     1      28.659   8.149  48.495  1.00  0.00     0.051 A 
ENDBRANCH  28  29
ENDBRANCH  27  28
ENDBRANCH  25  27
ENDBRANCH  20  22
ENDBRANCH  17  20
TORSDOF 5
ENDMDL
MODEL 3
REMARK VINA RESULT:      -9.9      3.496      7.920
REMARK  5 active torsions:
REMARK  status: ('A' for Active; 'I' for Inactive)
REMARK    1  A    between atoms: C12_17  and  N4_18 
REMARK    2  A    between atoms: N4_18  and  C13_19 
REMARK    3  A    between atoms: C16_22  and  O2_23 
REMARK    4  A    between atoms: O2_23  and  C17_24 
REMARK    5  A    between atoms: C17_24  and  C18_25 
ROOT
HETATM    1  C1  UNL     1      28.371   6.997  47.605  1.00  0.00     0.036 C 
HETATM    2  C2  UNL     1      26.914   7.113  48.037  1.00  0.00     0.099 C 
HETATM    3  C3  UNL     1      26.660   5.912  48.889  1.00  0.00     0.010 C 
HETATM    4  C4  UNL     1      25.681   5.869  49.829  1.00  0.00    -0.018 C 
HETATM    5  C5  UNL     1      25.323   7.116  49.864  1.00  0.00    -0.017 C 
HETATM    6  C6  UNL     1      26.483   8.093  50.084  1.00  0.00     0.158 C 
HETATM    7  N1  UNL     1      26.760   8.376  48.681  1.00  0.00    -0.394 N 
HETATM    8  C7  UNL     1      26.055   9.399  48.083  1.00  0.00     0.202 C 
HETATM    9  C8  UNL     1      24.576   9.339  47.950  1.00  0.00     0.184 C 
HETATM   10  O1  UNL     1      23.936  10.152  47.240  1.00  0.00    -0.290 OA
HETATM   11  C9  UNL     1      23.643   8.327  48.626  1.00  0.00     0.066 A 
HETATM   12  S1  UNL     1      22.015   8.269  48.333  1.00  0.00    -0.065 SA
HETATM   13  C10 UNL     1      21.676   6.843  49.513  1.00  0.00     0.114 A 
HETATM   14  N2  UNL     1      20.560   6.149  49.890  1.00  0.00    -0.234 NA
HETATM   15  C11 UNL     1      20.649   5.167  50.783  1.00  0.00     0.236 A 
HETATM   16  N3  UNL     1      21.874   4.920  51.271  1.00  0.00    -0.223 NA
HETATM   17  C12 UNL     1      23.005   5.560  50.945  1.00  0.00     0.143 A 
HETATM   18  C25 UNL     1      22.975   6.572  50.028  1.00  0.00     0.058 A 
HETATM   19  C26 UNL     1      23.953   7.305  49.585  1.00  0.00     0.010 A 
ENDROOT
BRANCH  17  20
HETATM   20  N4  UNL     1      24.075   5.103  51.747  1.00  0.00    -0.343 N 
HETATM   21  H11 UNL     1      24.898   5.165  52.374  1.00  0.00     0.167 HD
BRANCH  20  22
HETATM   22  C13 UNL     1      24.205   3.668  51.861  1.00  0.00     0.017 A 
HETATM   23  C14 UNL     1      24.156   2.668  50.989  1.00  0.00     0.028 A 
HETATM   24  C15 UNL     1      24.348   1.346  51.564  1.00  0.00     0.034 A 
HETATM   25  C16 UNL     1      24.525   1.552  52.848  1.00  0.00     0.052 A 
HETATM   26  C24 UNL     1      24.456   2.979  53.157  1.00  0.00     0.121 A 
BRANCH  25  27
HETATM   27  O2  UNL     1      24.746   0.572  53.795  1.00  0.00    -0.351 OA
BRANCH  27  28
HETATM   28  C17 UNL     1      25.494  -0.591  53.444  1.00  0.00     0.214 C 
BRANCH  28  29
HETATM   29  C18 UNL     1      26.946  -0.367  53.625  1.00  0.00    -0.031 A 
HETATM   30  C19 UNL     1      27.694  -1.412  53.120  1.00  0.00     0.009 A 
HETATM   31  C20 UNL     1      29.084  -1.420  53.180  1.00  0.00     0.004 A 
HETATM   32  C21 UNL     1      29.716  -0.346  53.764  1.00  0.00     0.042 A 
HETATM   33  C22 UNL     1      28.971   0.704  54.271  1.00  0.00     0.117 A 
HETATM   34  F1  UNL     1      29.565   1.789  54.861  1.00  0.00    -0.206 F 
HETATM   35  C23 UNL     1      27.584   0.685  54.198  1.00  0.00     0.051 A 
ENDBRANCH  28  29
ENDBRANCH  27  28
ENDBRANCH  25  27
ENDBRANCH  20  22
ENDBRANCH  17  20
TORSDOF 5
ENDMDL
MODEL 4
REMARK VINA RESULT:      -9.7      3.553      8.485
REMARK  5 active torsions:
REMARK  status: ('A' for Active; 'I' for Inactive)
REMARK    1  A    between atoms: C12_17  and  N4_18 
REMARK    2  A    between atoms: N4_18  and  C13_19 
REMARK    3  A    between atoms: C16_22  and  O2_23 
REMARK    4  A    between atoms: O2_23  and  C17_24 
REMARK    5  A    between atoms: C17_24  and  C18_25 
ROOT
HETATM    1  C1  UNL     1      33.666   5.062  47.153  1.00  0.00     0.036 C 
HETATM    2  C2  UNL     1      32.422   5.919  47.365  1.00  0.00     0.099 C 
HETATM    3  C3  UNL     1      31.277   4.960  47.345  1.00  0.00     0.010 C 
HETATM    4  C4  UNL     1      30.088   5.220  47.948  1.00  0.00    -0.018 C 
HETATM    5  C5  UNL     1      30.389   6.283  48.629  1.00  0.00    -0.017 C 
HETATM    6  C6  UNL     1      31.624   6.125  49.523  1.00  0.00     0.158 C 
HETATM    7  N1  UNL     1      32.607   6.644  48.579  1.00  0.00    -0.394 N 
HETATM    8  C7  UNL     1      32.829   8.004  48.570  1.00  0.00     0.202 C 
HETATM    9  C8  UNL     1      31.745   8.959  48.219  1.00  0.00     0.184 C 
HETATM   10  O1  UNL     1      31.968  10.175  48.009  1.00  0.00    -0.290 OA
HETATM   11  C9  UNL     1      30.255   8.626  48.067  1.00  0.00     0.066 A 
HETATM   12  S1  UNL     1      29.132   9.734  47.567  1.00  0.00    -0.065 SA
HETATM   13  C10 UNL     1      27.666   8.560  47.676  1.00  0.00     0.114 A 
HETATM   14  N2  UNL     1      26.325   8.668  47.434  1.00  0.00    -0.234 NA
HETATM   15  C11 UNL     1      25.523   7.624  47.620  1.00  0.00     0.236 A 
HETATM   16  N3  UNL     1      26.108   6.495  48.051  1.00  0.00    -0.223 NA
HETATM   17  C12 UNL     1      27.412   6.323  48.305  1.00  0.00     0.143 A 
HETATM   18  C25 UNL     1      28.285   7.359  48.125  1.00  0.00     0.058 A 
HETATM   19  C26 UNL     1      29.571   7.389  48.316  1.00  0.00     0.010 A 
ENDROOT
BRANCH  17  20
HETATM   20  N4  UNL     1      27.639   5.040  48.852  1.00  0.00    -0.343 N 
HETATM   21  H11 UNL     1      28.154   4.167  49.069  1.00  0.00     0.167 HD
BRANCH  20  22
HETATM   22  C13 UNL     1      26.554   4.491  49.634  1.00  0.00     0.017 A 
HETATM   23  C14 UNL     1      25.471   5.013  50.198  1.00  0.00     0.028 A 
HETATM   24  C15 UNL     1      24.631   4.060  50.907  1.00  0.00     0.034 A 
HETATM   25  C16 UNL     1      25.232   2.902  50.765  1.00  0.00     0.052 A 
HETATM   26  C24 UNL     1      26.457   3.046  49.980  1.00  0.00     0.121 A 
BRANCH  25  27
HETATM   27  O2  UNL     1      24.788   1.700  51.279  1.00  0.00    -0.351 OA
BRANCH  27  28
HETATM   28  C17 UNL     1      25.001   1.400  52.657  1.00  0.00     0.214 C 
BRANCH  28  29
HETATM   29  C18 UNL     1      26.181   0.525  52.838  1.00  0.00    -0.031 A 
HETATM   30  C19 UNL     1      27.282   1.232  53.279  1.00  0.00     0.009 A 
HETATM   31  C20 UNL     1      28.507   0.615  53.517  1.00  0.00     0.004 A 
HETATM   32  C21 UNL     1      28.605  -0.741  53.301  1.00  0.00     0.042 A 
HETATM   33  C22 UNL     1      27.505  -1.453  52.860  1.00  0.00     0.117 A 
HETATM   34  F1  UNL     1      27.565  -2.804  52.633  1.00  0.00    -0.206 F 
HETATM   35  C23 UNL     1      26.294  -0.811  52.630  1.00  0.00     0.051 A 
ENDBRANCH  28  29
ENDBRANCH  27  28
ENDBRANCH  25  27
ENDBRANCH  20  22
ENDBRANCH  17  20
TORSDOF 5
ENDMDL
MODEL 5
REMARK VINA RESULT:      -9.6      3.808      9.052
REMARK  5 active torsions:
REMARK  status: ('A' for Active; 'I' for Inactive)
REMARK    1  A    between atoms: C12_17  and  N4_18 
REMARK    2  A    between atoms: N4_18  and  C13_19 
REMARK    3  A    between atoms: C16_22  and  O2_23 
REMARK    4  A    between atoms: O2_23  and  C17_24 
REMARK    5  A    between atoms: C17_24  and  C18_25 
ROOT
HETATM    1  C1  UNL     1      32.898   5.008  47.381  1.00  0.00     0.036 C 
HETATM    2  C2  UNL     1      31.695   5.896  47.083  1.00  0.00     0.099 C 
HETATM    3  C3  UNL     1      30.553   5.268  47.813  1.00  0.00     0.010 C 
HETATM    4  C4  UNL     1      29.452   5.965  48.197  1.00  0.00    -0.018 C 
HETATM    5  C5  UNL     1      29.842   7.181  47.965  1.00  0.00    -0.017 C 
HETATM    6  C6  UNL     1      31.180   7.543  48.617  1.00  0.00     0.158 C 
HETATM    7  N1  UNL     1      32.036   7.222  47.482  1.00  0.00    -0.394 N 
HETATM    8  C7  UNL     1      32.260   8.211  46.549  1.00  0.00     0.202 C 
HETATM    9  C8  UNL     1      31.143   8.788  45.755  1.00  0.00     0.184 C 
HETATM   10  O1  UNL     1      31.342   9.537  44.769  1.00  0.00    -0.290 OA
HETATM   11  C9  UNL     1      29.645   8.570  46.002  1.00  0.00     0.066 A 
HETATM   12  S1  UNL     1      28.471   9.165  44.999  1.00  0.00    -0.065 SA
HETATM   13  C10 UNL     1      27.027   8.489  45.998  1.00  0.00     0.114 A 
HETATM   14  N2  UNL     1      25.667   8.529  45.872  1.00  0.00    -0.234 NA
HETATM   15  C11 UNL     1      24.891   7.942  46.779  1.00  0.00     0.236 A 
HETATM   16  N3  UNL     1      25.523   7.333  47.795  1.00  0.00    -0.223 NA
HETATM   17  C12 UNL     1      26.848   7.258  47.976  1.00  0.00     0.143 A 
HETATM   18  C25 UNL     1      27.694   7.835  47.072  1.00  0.00     0.058 A 
HETATM   19  C26 UNL     1      28.994   7.871  47.073  1.00  0.00     0.010 A 
ENDROOT
BRANCH  17  20
HETATM   20  N4  UNL     1      27.138   6.641  49.214  1.00  0.00    -0.343 N 
HETATM   21  H11 UNL     1      27.590   6.509  50.138  1.00  0.00     0.167 HD
BRANCH  20  22
HETATM   22  C13 UNL     1      26.395   5.436  49.503  1.00  0.00     0.017 A 
HETATM   23  C14 UNL     1      26.525   4.165  49.137  1.00  0.00     0.028 A 
HETATM   24  C15 UNL     1      25.522   3.266  49.687  1.00  0.00     0.034 A 
HETATM   25  C16 UNL     1      24.747   4.026  50.424  1.00  0.00     0.052 A 
HETATM   26  C24 UNL     1      25.197   5.415  50.387  1.00  0.00     0.121 A 
BRANCH  25  27
HETATM   27  O2  UNL     1      23.650   3.593  51.143  1.00  0.00    -0.351 OA
BRANCH  27  28
HETATM   28  C17 UNL     1      23.709   3.566  52.568  1.00  0.00     0.214 C 
BRANCH  28  29
HETATM   29  C18 UNL     1      24.394   2.345  53.051  1.00  0.00    -0.031 A 
HETATM   30  C19 UNL     1      23.624   1.215  52.860  1.00  0.00     0.009 A 
HETATM   31  C20 UNL     1      24.065  -0.050  53.239  1.00  0.00     0.004 A 
HETATM   32  C21 UNL     1      25.307  -0.158  53.820  1.00  0.00     0.042 A 
HETATM   33  C22 UNL     1      26.083   0.971  54.013  1.00  0.00     0.117 A 
HETATM   34  F1  UNL     1      27.325   0.902  54.589  1.00  0.00    -0.206 F 
HETATM   35  C23 UNL     1      25.617   2.221  53.625  1.00  0.00     0.051 A 
ENDBRANCH  28  29
ENDBRANCH  27  28
ENDBRANCH  25  27
ENDBRANCH  20  22
ENDBRANCH  17  20
TORSDOF 5
ENDMDL
MODEL 6
REMARK VINA RESULT:      -9.3      4.317      9.218
REMARK  5 active torsions:
REMARK  status: ('A' for Active; 'I' for Inactive)
REMARK    1  A    between atoms: C12_17  and  N4_18 
REMARK    2  A    between atoms: N4_18  and  C13_19 
REMARK    3  A    between atoms: C16_22  and  O2_23 
REMARK    4  A    between atoms: O2_23  and  C17_24 
REMARK    5  A    between atoms: C17_24  and  C18_25 
ROOT
HETATM    1  C1  UNL     1      34.716   3.424  47.515  1.00  0.00     0.036 C 
HETATM    2  C2  UNL     1      33.955   4.735  47.352  1.00  0.00     0.099 C 
HETATM    3  C3  UNL     1      32.532   4.338  47.129  1.00  0.00     0.010 C 
HETATM    4  C4  UNL     1      31.487   5.160  47.404  1.00  0.00    -0.018 C 
HETATM    5  C5  UNL     1      32.088   6.109  48.054  1.00  0.00    -0.017 C 
HETATM    6  C6  UNL     1      32.940   5.618  49.230  1.00  0.00     0.158 C 
HETATM    7  N1  UNL     1      34.207   5.520  48.517  1.00  0.00    -0.394 N 
HETATM    8  C7  UNL     1      34.997   6.648  48.457  1.00  0.00     0.202 C 
HETATM    9  C8  UNL     1      34.524   7.885  47.782  1.00  0.00     0.184 C 
HETATM   10  O1  UNL     1      35.290   8.848  47.540  1.00  0.00    -0.290 OA
HETATM   11  C9  UNL     1      33.096   8.167  47.299  1.00  0.00     0.066 A 
HETATM   12  S1  UNL     1      32.683   9.532  46.458  1.00  0.00    -0.065 SA
HETATM   13  C10 UNL     1      30.860   9.094  46.298  1.00  0.00     0.114 A 
HETATM   14  N2  UNL     1      29.772   9.695  45.731  1.00  0.00    -0.234 NA
HETATM   15  C11 UNL     1      28.575   9.118  45.796  1.00  0.00     0.236 A 
HETATM   16  N3  UNL     1      28.519   7.942  46.440  1.00  0.00    -0.223 NA
HETATM   17  C12 UNL     1      29.545   7.300  47.016  1.00  0.00     0.143 A 
HETATM   18  C25 UNL     1      30.798   7.843  46.974  1.00  0.00     0.058 A 
HETATM   19  C26 UNL     1      31.908   7.379  47.468  1.00  0.00     0.010 A 
ENDROOT
BRANCH  17  20
HETATM   20  N4  UNL     1      29.083   6.152  47.697  1.00  0.00    -0.343 N 
HETATM   21  H11 UNL     1      29.087   5.173  48.041  1.00  0.00     0.167 HD
BRANCH  20  22
HETATM   22  C13 UNL     1      27.844   6.310  48.424  1.00  0.00     0.017 A 
HETATM   23  C14 UNL     1      27.225   7.348  48.974  1.00  0.00     0.028 A 
HETATM   24  C15 UNL     1      25.960   7.036  49.618  1.00  0.00     0.034 A 
HETATM   25  C16 UNL     1      25.800   5.744  49.451  1.00  0.00     0.052 A 
HETATM   26  C24 UNL     1      26.923   5.174  48.711  1.00  0.00     0.121 A 
BRANCH  25  27
HETATM   27  O2  UNL     1      24.725   5.004  49.904  1.00  0.00    -0.351 OA
BRANCH  27  28
HETATM   28  C17 UNL     1      24.772   3.579  49.834  1.00  0.00     0.214 C 
BRANCH  28  29
HETATM   29  C18 UNL     1      25.345   3.002  51.071  1.00  0.00    -0.031 A 
HETATM   30  C19 UNL     1      24.489   3.140  52.146  1.00  0.00     0.009 A 
HETATM   31  C20 UNL     1      24.818   2.671  53.414  1.00  0.00     0.004 A 
HETATM   32  C21 UNL     1      26.036   2.055  53.584  1.00  0.00     0.042 A 
HETATM   33  C22 UNL     1      26.897   1.914  52.511  1.00  0.00     0.117 A 
HETATM   34  F1  UNL     1      28.119   1.306  52.642  1.00  0.00    -0.206 F 
HETATM   35  C23 UNL     1      26.543   2.392  51.255  1.00  0.00     0.051 A 
ENDBRANCH  28  29
ENDBRANCH  27  28
ENDBRANCH  25  27
ENDBRANCH  20  22
ENDBRANCH  17  20
TORSDOF 5
ENDMDL
MODEL 7
REMARK VINA RESULT:      -9.1      6.283     11.394
REMARK  5 active torsions:
REMARK  status: ('A' for Active; 'I' for Inactive)
REMARK    1  A    between atoms: C12_17  and  N4_18 
REMARK    2  A    between atoms: N4_18  and  C13_19 
REMARK    3  A    between atoms: C16_22  and  O2_23 
REMARK    4  A    between atoms: O2_23  and  C17_24 
REMARK    5  A    between atoms: C17_24  and  C18_25 
ROOT
HETATM    1  C1  UNL     1      23.955   6.769  51.235  1.00  0.00     0.036 C 
HETATM    2  C2  UNL     1      23.954   5.284  51.582  1.00  0.00     0.099 C 
HETATM    3  C3  UNL     1      22.652   5.043  52.274  1.00  0.00     0.010 C 
HETATM    4  C4  UNL     1      22.057   3.823  52.322  1.00  0.00    -0.018 C 
HETATM    5  C5  UNL     1      22.785   3.166  51.472  1.00  0.00    -0.017 C 
HETATM    6  C6  UNL     1      22.916   3.844  50.104  1.00  0.00     0.158 C 
HETATM    7  N1  UNL     1      24.156   4.563  50.368  1.00  0.00    -0.394 N 
HETATM    8  C7  UNL     1      25.342   3.906  50.120  1.00  0.00     0.202 C 
HETATM    9  C8  UNL     1      25.708   2.670  50.860  1.00  0.00     0.184 C 
HETATM   10  O1  UNL     1      26.856   2.170  50.798  1.00  0.00    -0.290 OA
HETATM   11  C9  UNL     1      24.786   1.850  51.771  1.00  0.00     0.066 A 
HETATM   12  S1  UNL     1      25.310   0.545  52.643  1.00  0.00    -0.065 SA
HETATM   13  C10 UNL     1      23.635   0.160  53.407  1.00  0.00     0.114 A 
HETATM   14  N2  UNL     1      23.167  -0.789  54.273  1.00  0.00    -0.234 NA
HETATM   15  C11 UNL     1      21.884  -0.801  54.626  1.00  0.00     0.236 A 
HETATM   16  N3  UNL     1      21.111   0.153  54.085  1.00  0.00    -0.223 NA
HETATM   17  C12 UNL     1      21.506   1.109  53.233  1.00  0.00     0.143 A 
HETATM   18  C25 UNL     1      22.813   1.175  52.841  1.00  0.00     0.058 A 
HETATM   19  C26 UNL     1      23.384   2.017  52.031  1.00  0.00     0.010 A 
ENDROOT
BRANCH  17  20
HETATM   20  N4  UNL     1      20.394   1.858  52.788  1.00  0.00    -0.343 N 
HETATM   21  H11 UNL     1      19.761   2.674  52.697  1.00  0.00     0.167 HD
BRANCH  20  22
HETATM   22  C13 UNL     1      19.512   1.182  51.863  1.00  0.00     0.017 A 
HETATM   23  C14 UNL     1      19.528   0.994  50.548  1.00  0.00     0.028 A 
HETATM   24  C15 UNL     1      18.406   0.229  50.027  1.00  0.00     0.034 A 
HETATM   25  C16 UNL     1      17.674  -0.064  51.076  1.00  0.00     0.052 A 
HETATM   26  C24 UNL     1      18.270   0.483  52.293  1.00  0.00     0.121 A 
BRANCH  25  27
HETATM   27  O2  UNL     1      16.499  -0.788  51.056  1.00  0.00    -0.351 OA
BRANCH  27  28
HETATM   28  C17 UNL     1      15.860  -1.129  52.286  1.00  0.00     0.214 C 
BRANCH  28  29
HETATM   29  C18 UNL     1      15.608  -2.586  52.371  1.00  0.00    -0.031 A 
HETATM   30  C19 UNL     1      14.569  -2.975  51.549  1.00  0.00     0.009 A 
HETATM   31  C20 UNL     1      14.152  -4.301  51.466  1.00  0.00     0.004 A 
HETATM   32  C21 UNL     1      14.807  -5.237  52.233  1.00  0.00     0.042 A 
HETATM   33  C22 UNL     1      15.849  -4.852  53.057  1.00  0.00     0.117 A 
HETATM   34  F1  UNL     1      16.524  -5.756  53.835  1.00  0.00    -0.206 F 
HETATM   35  C23 UNL     1      16.243  -3.521  53.121  1.00  0.00     0.051 A 
ENDBRANCH  28  29
ENDBRANCH  27  28
ENDBRANCH  25  27
ENDBRANCH  20  22
ENDBRANCH  17  20
TORSDOF 5
ENDMDL
MODEL 8
REMARK VINA RESULT:      -9.1      7.594     12.265
REMARK  5 active torsions:
REMARK  status: ('A' for Active; 'I' for Inactive)
REMARK    1  A    between atoms: C12_17  and  N4_18 
REMARK    2  A    between atoms: N4_18  and  C13_19 
REMARK    3  A    between atoms: C16_22  and  O2_23 
REMARK    4  A    between atoms: O2_23  and  C17_24 
REMARK    5  A    between atoms: C17_24  and  C18_25 
ROOT
HETATM    1  C1  UNL     1      23.517   4.447  52.080  1.00  0.00     0.036 C 
HETATM    2  C2  UNL     1      22.734   3.165  52.339  1.00  0.00     0.099 C 
HETATM    3  C3  UNL     1      21.379   3.409  51.759  1.00  0.00     0.010 C 
HETATM    4  C4  UNL     1      20.557   2.404  51.360  1.00  0.00    -0.018 C 
HETATM    5  C5  UNL     1      21.366   1.391  51.419  1.00  0.00    -0.017 C 
HETATM    6  C6  UNL     1      22.676   1.591  50.649  1.00  0.00     0.158 C 
HETATM    7  N1  UNL     1      23.474   2.091  51.762  1.00  0.00    -0.394 N 
HETATM    8  C7  UNL     1      24.119   1.164  52.553  1.00  0.00     0.202 C 
HETATM    9  C8  UNL     1      23.357   0.157  53.336  1.00  0.00     0.184 C 
HETATM   10  O1  UNL     1      23.900  -0.560  54.210  1.00  0.00    -0.290 OA
HETATM   11  C9  UNL     1      21.860  -0.152  53.207  1.00  0.00     0.066 A 
HETATM   12  S1  UNL     1      21.072  -1.217  54.199  1.00  0.00    -0.065 SA
HETATM   13  C10 UNL     1      19.392  -1.012  53.377  1.00  0.00     0.114 A 
HETATM   14  N2  UNL     1      18.150  -1.545  53.578  1.00  0.00    -0.234 NA
HETATM   15  C11 UNL     1      17.133  -1.193  52.796  1.00  0.00     0.236 A 
HETATM   16  N3  UNL     1      17.410  -0.307  51.826  1.00  0.00    -0.223 NA
HETATM   17  C12 UNL     1      18.601   0.252  51.576  1.00  0.00     0.143 A 
HETATM   18  C25 UNL     1      19.680  -0.067  52.352  1.00  0.00     0.058 A 
HETATM   19  C26 UNL     1      20.904   0.364  52.269  1.00  0.00     0.010 A 
ENDROOT
BRANCH  17  20
HETATM   20  N4  UNL     1      18.535   1.043  50.408  1.00  0.00    -0.343 N 
HETATM   21  H11 UNL     1      18.850   1.461  49.512  1.00  0.00     0.167 HD
BRANCH  20  22
HETATM   22  C13 UNL     1      17.298   1.763  50.207  1.00  0.00     0.017 A 
HETATM   23  C14 UNL     1      16.379   1.764  49.248  1.00  0.00     0.028 A 
HETATM   24  C15 UNL     1      15.264   2.671  49.470  1.00  0.00     0.034 A 
HETATM   25  C16 UNL     1      15.516   3.249  50.621  1.00  0.00     0.052 A 
HETATM   26  C24 UNL     1      16.772   2.757  51.183  1.00  0.00     0.121 A 
BRANCH  25  27
HETATM   27  O2  UNL     1      14.719   4.195  51.235  1.00  0.00    -0.351 OA
BRANCH  27  28
HETATM   28  C17 UNL     1      13.303   4.133  51.076  1.00  0.00     0.214 C 
BRANCH  28  29
HETATM   29  C18 UNL     1      12.647   3.646  52.311  1.00  0.00    -0.031 A 
HETATM   30  C19 UNL     1      12.712   4.578  53.328  1.00  0.00     0.009 A 
HETATM   31  C20 UNL     1      12.162   4.337  54.583  1.00  0.00     0.004 A 
HETATM   32  C21 UNL     1      11.538   3.129  54.799  1.00  0.00     0.042 A 
HETATM   33  C22 UNL     1      11.470   2.193  53.783  1.00  0.00     0.117 A 
HETATM   34  F1  UNL     1      10.858   0.980  53.961  1.00  0.00    -0.206 F 
HETATM   35  C23 UNL     1      12.029   2.460  52.539  1.00  0.00     0.051 A 
ENDBRANCH  28  29
ENDBRANCH  27  28
ENDBRANCH  25  27
ENDBRANCH  20  22
ENDBRANCH  17  20
TORSDOF 5
ENDMDL
MODEL 9
REMARK VINA RESULT:      -9.0      6.731     11.761
REMARK  5 active torsions:
REMARK  status: ('A' for Active; 'I' for Inactive)
REMARK    1  A    between atoms: C12_17  and  N4_18 
REMARK    2  A    between atoms: N4_18  and  C13_19 
REMARK    3  A    between atoms: C16_22  and  O2_23 
REMARK    4  A    between atoms: O2_23  and  C17_24 
REMARK    5  A    between atoms: C17_24  and  C18_25 
ROOT
HETATM    1  C1  UNL     1      24.256   7.288  50.714  1.00  0.00     0.036 C 
HETATM    2  C2  UNL     1      24.124   5.819  51.103  1.00  0.00     0.099 C 
HETATM    3  C3  UNL     1      22.696   5.647  51.507  1.00  0.00     0.010 C 
HETATM    4  C4  UNL     1      22.059   4.448  51.467  1.00  0.00    -0.018 C 
HETATM    5  C5  UNL     1      22.926   3.734  50.816  1.00  0.00    -0.017 C 
HETATM    6  C6  UNL     1      23.371   4.351  49.486  1.00  0.00     0.158 C 
HETATM    7  N1  UNL     1      24.553   5.043  49.986  1.00  0.00    -0.394 N 
HETATM    8  C7  UNL     1      25.739   4.341  50.020  1.00  0.00     0.202 C 
HETATM    9  C8  UNL     1      25.890   3.126  50.864  1.00  0.00     0.184 C 
HETATM   10  O1  UNL     1      27.006   2.590  51.068  1.00  0.00    -0.290 OA
HETATM   11  C9  UNL     1      24.764   2.373  51.582  1.00  0.00     0.066 A 
HETATM   12  S1  UNL     1      25.041   1.090  52.591  1.00  0.00    -0.065 SA
HETATM   13  C10 UNL     1      23.227   0.787  52.990  1.00  0.00     0.114 A 
HETATM   14  N2  UNL     1      22.549  -0.110  53.766  1.00  0.00    -0.234 NA
HETATM   15  C11 UNL     1      21.221  -0.069  53.836  1.00  0.00     0.236 A 
HETATM   16  N3  UNL     1      20.618   0.884  53.109  1.00  0.00    -0.223 NA
HETATM   17  C12 UNL     1      21.223   1.792  52.330  1.00  0.00     0.143 A 
HETATM   18  C25 UNL     1      22.585   1.802  52.226  1.00  0.00     0.058 A 
HETATM   19  C26 UNL     1      23.347   2.593  51.530  1.00  0.00     0.010 A 
ENDROOT
BRANCH  17  20
HETATM   20  N4  UNL     1      20.260   2.555  51.631  1.00  0.00    -0.343 N 
HETATM   21  H11 UNL     1      19.848   3.383  51.163  1.00  0.00     0.167 HD
BRANCH  20  22
HETATM   22  C13 UNL     1      19.049   1.855  51.267  1.00  0.00     0.017 A 
HETATM   23  C14 UNL     1      18.793   0.786  50.521  1.00  0.00     0.028 A 
HETATM   24  C15 UNL     1      17.387   0.426  50.431  1.00  0.00     0.034 A 
HETATM   25  C16 UNL     1      16.757   1.319  51.158  1.00  0.00     0.052 A 
HETATM   26  C24 UNL     1      17.700   2.273  51.737  1.00  0.00     0.121 A 
BRANCH  25  27
HETATM   27  O2  UNL     1      15.392   1.369  51.361  1.00  0.00    -0.351 OA
BRANCH  27  28
HETATM   28  C17 UNL     1      14.852   0.963  52.617  1.00  0.00     0.214 C 
BRANCH  28  29
HETATM   29  C18 UNL     1      13.913   1.977  53.148  1.00  0.00    -0.031 A 
HETATM   30  C19 UNL     1      14.439   3.252  53.075  1.00  0.00     0.009 A 
HETATM   31  C20 UNL     1      13.734   4.366  53.518  1.00  0.00     0.004 A 
HETATM   32  C21 UNL     1      12.476   4.174  54.042  1.00  0.00     0.042 A 
HETATM   33  C22 UNL     1      11.944   2.900  54.116  1.00  0.00     0.117 A 
HETATM   34  F1  UNL     1      10.695   2.669  54.633  1.00  0.00    -0.206 F 
HETATM   35  C23 UNL     1      12.671   1.804  53.667  1.00  0.00     0.051 A 
ENDBRANCH  28  29
ENDBRANCH  27  28
ENDBRANCH  25  27
ENDBRANCH  20  22
ENDBRANCH  17  20
TORSDOF 5
ENDMDL
