MODEL 1
REMARK VINA RESULT:      -8.6      0.000      0.000
REMARK  5 active torsions:
REMARK  status: ('A' for Active; 'I' for Inactive)
REMARK    1  A    between atoms: O1_2  and  C2_3 
REMARK    2  A    between atoms: C5_9  and  N3_10 
REMARK    3  A    between atoms: N3_10  and  C6_11 
REMARK    4  A    between atoms: C14_20  and  N4_21 
REMARK       I    between atoms: N4_21  and  C15_22 
REMARK    5  A    between atoms: C15_22  and  C16_24 
ROOT
HETATM    1  C2  UNL     1      22.754   0.282  53.602  1.00  0.00     0.201 A 
HETATM    2  P1  UNL     1      20.989   0.901  53.670  1.00  0.00    -0.036 P 
HETATM    3  C3  UNL     1      20.843   2.165  52.366  1.00  0.00     0.075 A 
HETATM    4  N1  UNL     1      19.588   2.654  52.345  1.00  0.00    -0.241 NA
HETATM    5  C4  UNL     1      19.291   3.615  51.437  1.00  0.00     0.236 A 
HETATM    6  N2  UNL     1      20.254   4.027  50.610  1.00  0.00    -0.224 NA
HETATM    7  C5  UNL     1      21.509   3.561  50.608  1.00  0.00     0.142 A 
HETATM    8  C12 UNL     1      21.841   2.583  51.520  1.00  0.00     0.041 A 
HETATM    9  C13 UNL     1      23.146   1.958  51.662  1.00  0.00     0.046 A 
HETATM   10  C14 UNL     1      23.439   1.031  52.531  1.00  0.00     0.046 A 
HETATM   11  H5  UNL     1      20.689   1.456  54.977  1.00  0.00     0.067 HD
ENDROOT
BRANCH  10  12
HETATM   12  N4  UNL     1      24.786   0.534  52.533  1.00  0.00    -0.326 N 
HETATM   13  C15 UNL     1      25.859   1.136  53.203  1.00  0.00     0.247 C 
HETATM   14  O2  UNL     1      25.909   2.173  53.914  1.00  0.00    -0.271 OA
HETATM   15  H13 UNL     1      24.972  -0.346  51.985  1.00  0.00     0.168 HD
BRANCH  13  16
HETATM   16  C16 UNL     1      27.245   0.602  53.190  1.00  0.00     0.203 C 
HETATM   17  C17 UNL     1      27.766   0.315  54.581  1.00  0.00     0.215 C 
HETATM   18  O3  UNL     1      28.687  -0.731  54.341  1.00  0.00    -0.301 OA
HETATM   19  C18 UNL     1      28.242  -1.530  53.291  1.00  0.00     0.361 C 
HETATM   20  O4  UNL     1      28.681  -2.704  53.174  1.00  0.00    -0.238 OA
HETATM   21  N5  UNL     1      27.327  -0.699  52.587  1.00  0.00    -0.321 N 
HETATM   22  H17 UNL     1      26.832  -1.105  51.739  1.00  0.00     0.165 HD
ENDBRANCH  13  16
ENDBRANCH  10  12
BRANCH   1  23
HETATM   23  O1  UNL     1      22.680  -1.083  53.337  1.00  0.00    -0.380 OA
HETATM   24  C1  UNL     1      21.782  -1.665  54.192  1.00  0.00     0.202 C 
ENDBRANCH   1  23
BRANCH   7  25
HETATM   25  N3  UNL     1      22.509   4.007  49.731  1.00  0.00    -0.340 N 
HETATM   26  H7  UNL     1      22.626   3.625  48.792  1.00  0.00     0.167 HD
BRANCH  25  27
HETATM   27  C6  UNL     1      23.501   5.002  49.923  1.00  0.00     0.035 A 
HETATM   28  C7  UNL     1      23.359   6.140  50.730  1.00  0.00     0.029 A 
HETATM   29  C8  UNL     1      24.327   7.088  50.896  1.00  0.00     0.004 A 
HETATM   30  C9  UNL     1      25.527   6.965  50.255  1.00  0.00     0.019 A 
HETATM   31  C10 UNL     1      25.739   5.873  49.445  1.00  0.00     0.013 A 
HETATM   32 BR1  UNL     1      27.434   5.774  48.590  1.00  0.00    -0.051 Br
HETATM   33  C11 UNL     1      24.736   4.955  49.316  1.00  0.00     0.048 A 
ENDBRANCH  25  27
ENDBRANCH   7  25
TORSDOF 5
ENDMDL
MODEL 2
REMARK VINA RESULT:      -8.5      1.634      1.953
REMARK  5 active torsions:
REMARK  status: ('A' for Active; 'I' for Inactive)
REMARK    1  A    between atoms: O1_2  and  C2_3 
REMARK    2  A    between atoms: C5_9  and  N3_10 
REMARK    3  A    between atoms: N3_10  and  C6_11 
REMARK    4  A    between atoms: C14_20  and  N4_21 
REMARK       I    between atoms: N4_21  and  C15_22 
REMARK    5  A    between atoms: C15_22  and  C16_24 
ROOT
HETATM    1  C2  UNL     1      22.496   0.226  53.444  1.00  0.00     0.201 A 
HETATM    2  P1  UNL     1      20.943   0.354  52.409  1.00  0.00    -0.036 P 
HETATM    3  C3  UNL     1      21.392   1.329  50.937  1.00  0.00     0.075 A 
HETATM    4  N1  UNL     1      20.319   1.457  50.131  1.00  0.00    -0.241 NA
HETATM    5  C4  UNL     1      20.463   2.161  48.982  1.00  0.00     0.236 A 
HETATM    6  N2  UNL     1      21.657   2.690  48.706  1.00  0.00    -0.224 NA
HETATM    7  C5  UNL     1      22.739   2.579  49.486  1.00  0.00     0.142 A 
HETATM    8  C12 UNL     1      22.624   1.869  50.662  1.00  0.00     0.041 A 
HETATM    9  C13 UNL     1      23.687   1.643  51.627  1.00  0.00     0.046 A 
HETATM   10  C14 UNL     1      23.557   0.965  52.734  1.00  0.00     0.046 A 
HETATM   11  H5  UNL     1      19.877   0.994  53.159  1.00  0.00     0.067 HD
ENDROOT
BRANCH  10  12
HETATM   12  N4  UNL     1      24.717   0.850  53.574  1.00  0.00    -0.326 N 
HETATM   13  C15 UNL     1      25.904   0.200  53.212  1.00  0.00     0.247 C 
HETATM   14  O2  UNL     1      26.228  -0.395  52.151  1.00  0.00    -0.271 OA
HETATM   15  H13 UNL     1      24.660   1.288  54.530  1.00  0.00     0.168 HD
BRANCH  13  16
HETATM   16  C16 UNL     1      27.091   0.095  54.098  1.00  0.00     0.203 C 
HETATM   17  C17 UNL     1      28.331  -0.343  53.352  1.00  0.00     0.215 C 
HETATM   18  O3  UNL     1      29.362   0.251  54.117  1.00  0.00    -0.301 OA
HETATM   19  C18 UNL     1      28.927   1.465  54.642  1.00  0.00     0.361 C 
HETATM   20  O4  UNL     1      29.775   2.323  55.005  1.00  0.00    -0.238 OA
HETATM   21  N5  UNL     1      27.509   1.369  54.611  1.00  0.00    -0.321 N 
HETATM   22  H17 UNL     1      26.943   2.202  54.950  1.00  0.00     0.165 HD
ENDBRANCH  13  16
ENDBRANCH  10  12
BRANCH   1  23
HETATM   23  O1  UNL     1      22.778  -1.134  53.561  1.00  0.00    -0.380 OA
HETATM   24  C1  UNL     1      22.258  -1.606  54.737  1.00  0.00     0.202 C 
ENDBRANCH   1  23
BRANCH   7  25
HETATM   25  N3  UNL     1      23.987   3.143  49.179  1.00  0.00    -0.340 N 
HETATM   26  H7  UNL     1      24.691   2.649  48.630  1.00  0.00     0.167 HD
BRANCH  25  27
HETATM   27  C6  UNL     1      24.514   4.412  49.526  1.00  0.00     0.035 A 
HETATM   28  C7  UNL     1      23.969   5.281  50.482  1.00  0.00     0.029 A 
HETATM   29  C8  UNL     1      24.492   6.502  50.796  1.00  0.00     0.004 A 
HETATM   30  C9  UNL     1      25.617   6.951  50.165  1.00  0.00     0.019 A 
HETATM   31  C10 UNL     1      26.209   6.152  49.213  1.00  0.00     0.013 A 
HETATM   32 BR1  UNL     1      27.771   6.848  48.381  1.00  0.00    -0.051 Br
HETATM   33  C11 UNL     1      25.643   4.939  48.939  1.00  0.00     0.048 A 
ENDBRANCH  25  27
ENDBRANCH   7  25
TORSDOF 5
ENDMDL
MODEL 3
REMARK VINA RESULT:      -8.4      2.132      3.001
REMARK  5 active torsions:
REMARK  status: ('A' for Active; 'I' for Inactive)
REMARK    1  A    between atoms: O1_2  and  C2_3 
REMARK    2  A    between atoms: C5_9  and  N3_10 
REMARK    3  A    between atoms: N3_10  and  C6_11 
REMARK    4  A    between atoms: C14_20  and  N4_21 
REMARK       I    between atoms: N4_21  and  C15_22 
REMARK    5  A    between atoms: C15_22  and  C16_24 
ROOT
HETATM    1  C2  UNL     1      22.422   2.318  52.414  1.00  0.00     0.201 A 
HETATM    2  P1  UNL     1      21.022   3.360  51.740  1.00  0.00    -0.036 P 
HETATM    3  C3  UNL     1      21.755   4.968  51.294  1.00  0.00     0.075 A 
HETATM    4  N1  UNL     1      20.804   5.777  50.787  1.00  0.00    -0.241 NA
HETATM    5  C4  UNL     1      21.165   7.025  50.403  1.00  0.00     0.236 A 
HETATM    6  N2  UNL     1      22.441   7.389  50.544  1.00  0.00    -0.224 NA
HETATM    7  C5  UNL     1      23.406   6.609  51.044  1.00  0.00     0.142 A 
HETATM    8  C12 UNL     1      23.070   5.334  51.444  1.00  0.00     0.041 A 
HETATM    9  C13 UNL     1      23.981   4.349  52.005  1.00  0.00     0.046 A 
HETATM   10  C14 UNL     1      23.642   3.145  52.375  1.00  0.00     0.046 A 
HETATM   11  H5  UNL     1      19.974   3.517  52.731  1.00  0.00     0.067 HD
ENDROOT
BRANCH  10  12
HETATM   12  N4  UNL     1      24.677   2.309  52.916  1.00  0.00    -0.326 N 
HETATM   13  C15 UNL     1      25.809   1.880  52.210  1.00  0.00     0.247 C 
HETATM   14  O2  UNL     1      26.175   2.102  51.026  1.00  0.00    -0.271 OA
HETATM   15  H13 UNL     1      24.567   1.998  53.916  1.00  0.00     0.168 HD
BRANCH  13  16
HETATM   16  C16 UNL     1      26.866   1.015  52.791  1.00  0.00     0.203 C 
HETATM   17  C17 UNL     1      26.525   0.546  54.188  1.00  0.00     0.215 C 
HETATM   18  O3  UNL     1      27.213  -0.687  54.263  1.00  0.00    -0.301 OA
HETATM   19  C18 UNL     1      27.229  -1.302  53.013  1.00  0.00     0.361 C 
HETATM   20  O4  UNL     1      27.427  -2.543  52.934  1.00  0.00    -0.238 OA
HETATM   21  N5  UNL     1      26.994  -0.238  52.100  1.00  0.00    -0.321 N 
HETATM   22  H17 UNL     1      26.940  -0.469  51.064  1.00  0.00     0.165 HD
ENDBRANCH  13  16
ENDBRANCH  10  12
BRANCH   1  23
HETATM   23  O1  UNL     1      22.508   1.197  51.591  1.00  0.00    -0.380 OA
HETATM   24  C1  UNL     1      22.244   1.563  50.297  1.00  0.00     0.202 C 
ENDBRANCH   1  23
BRANCH   7  25
HETATM   25  N3  UNL     1      24.743   7.010  51.185  1.00  0.00    -0.340 N 
HETATM   26  H7  UNL     1      25.129   7.328  52.075  1.00  0.00     0.167 HD
BRANCH  25  27
HETATM   27  C6  UNL     1      25.777   7.065  50.217  1.00  0.00     0.035 A 
HETATM   28  C7  UNL     1      26.147   6.012  49.368  1.00  0.00     0.029 A 
HETATM   29  C8  UNL     1      27.151   6.085  48.446  1.00  0.00     0.004 A 
HETATM   30  C9  UNL     1      27.871   7.237  48.305  1.00  0.00     0.019 A 
HETATM   31  C10 UNL     1      27.565   8.315  49.104  1.00  0.00     0.013 A 
HETATM   32 BR1  UNL     1      28.612   9.881  48.845  1.00  0.00    -0.051 Br
HETATM   33  C11 UNL     1      26.550   8.185  50.010  1.00  0.00     0.048 A 
ENDBRANCH  25  27
ENDBRANCH   7  25
TORSDOF 5
ENDMDL
MODEL 4
REMARK VINA RESULT:      -8.3      1.856      2.636
REMARK  5 active torsions:
REMARK  status: ('A' for Active; 'I' for Inactive)
REMARK    1  A    between atoms: O1_2  and  C2_3 
REMARK    2  A    between atoms: C5_9  and  N3_10 
REMARK    3  A    between atoms: N3_10  and  C6_11 
REMARK    4  A    between atoms: C14_20  and  N4_21 
REMARK       I    between atoms: N4_21  and  C15_22 
REMARK    5  A    between atoms: C15_22  and  C16_24 
ROOT
HETATM    1  C2  UNL     1      22.845   1.363  52.743  1.00  0.00     0.201 A 
HETATM    2  P1  UNL     1      21.626   2.633  52.109  1.00  0.00    -0.036 P 
HETATM    3  C3  UNL     1      22.524   3.628  50.875  1.00  0.00     0.075 A 
HETATM    4  N1  UNL     1      21.702   4.565  50.361  1.00  0.00    -0.241 NA
HETATM    5  C4  UNL     1      22.201   5.409  49.426  1.00  0.00     0.236 A 
HETATM    6  N2  UNL     1      23.477   5.270  49.060  1.00  0.00    -0.224 NA
HETATM    7  C5  UNL     1      24.315   4.350  49.552  1.00  0.00     0.142 A 
HETATM    8  C12 UNL     1      23.838   3.478  50.506  1.00  0.00     0.041 A 
HETATM    9  C13 UNL     1      24.597   2.418  51.148  1.00  0.00     0.046 A 
HETATM   10  C14 UNL     1      24.125   1.600  52.047  1.00  0.00     0.046 A 
HETATM   11  H5  UNL     1      21.133   3.460  53.195  1.00  0.00     0.067 HD
ENDROOT
BRANCH  10  12
HETATM   12  N4  UNL     1      25.025   0.617  52.579  1.00  0.00    -0.326 N 
HETATM   13  C15 UNL     1      26.001   0.871  53.553  1.00  0.00     0.247 C 
HETATM   14  O2  UNL     1      26.306   1.932  54.157  1.00  0.00    -0.271 OA
HETATM   15  H13 UNL     1      24.941  -0.363  52.203  1.00  0.00     0.168 HD
BRANCH  13  16
HETATM   16  C16 UNL     1      26.921  -0.164  54.089  1.00  0.00     0.203 C 
HETATM   17  C17 UNL     1      27.112  -1.319  53.131  1.00  0.00     0.215 C 
HETATM   18  O3  UNL     1      28.411  -1.767  53.463  1.00  0.00    -0.301 OA
HETATM   19  C18 UNL     1      29.205  -0.690  53.848  1.00  0.00     0.361 C 
HETATM   20  O4  UNL     1      30.459  -0.793  53.801  1.00  0.00    -0.238 OA
HETATM   21  N5  UNL     1      28.269   0.314  54.220  1.00  0.00    -0.321 N 
HETATM   22  H17 UNL     1      28.645   1.257  54.538  1.00  0.00     0.165 HD
ENDBRANCH  13  16
ENDBRANCH  10  12
BRANCH   1  23
HETATM   23  O1  UNL     1      22.300   0.116  52.449  1.00  0.00    -0.380 OA
HETATM   24  C1  UNL     1      21.160  -0.067  53.187  1.00  0.00     0.202 C 
ENDBRANCH   1  23
BRANCH   7  25
HETATM   25  N3  UNL     1      25.655   4.220  49.155  1.00  0.00    -0.340 N 
HETATM   26  H7  UNL     1      26.110   3.312  49.051  1.00  0.00     0.167 HD
BRANCH  25  27
HETATM   27  C6  UNL     1      26.605   5.223  48.837  1.00  0.00     0.035 A 
HETATM   28  C7  UNL     1      26.330   6.594  48.739  1.00  0.00     0.029 A 
HETATM   29  C8  UNL     1      27.261   7.543  48.425  1.00  0.00     0.004 A 
HETATM   30  C9  UNL     1      28.555   7.182  48.181  1.00  0.00     0.019 A 
HETATM   31  C10 UNL     1      28.900   5.852  48.259  1.00  0.00     0.013 A 
HETATM   32 BR1  UNL     1      30.720   5.430  47.908  1.00  0.00    -0.051 Br
HETATM   33  C11 UNL     1      27.928   4.945  48.578  1.00  0.00     0.048 A 
ENDBRANCH  25  27
ENDBRANCH   7  25
TORSDOF 5
ENDMDL
MODEL 5
REMARK VINA RESULT:      -8.3      3.266      5.495
REMARK  5 active torsions:
REMARK  status: ('A' for Active; 'I' for Inactive)
REMARK    1  A    between atoms: O1_2  and  C2_3 
REMARK    2  A    between atoms: C5_9  and  N3_10 
REMARK    3  A    between atoms: N3_10  and  C6_11 
REMARK    4  A    between atoms: C14_20  and  N4_21 
REMARK       I    between atoms: N4_21  and  C15_22 
REMARK    5  A    between atoms: C15_22  and  C16_24 
ROOT
HETATM    1  C2  UNL     1      24.647   4.996  50.548  1.00  0.00     0.201 A 
HETATM    2  P1  UNL     1      23.632   5.488  49.056  1.00  0.00    -0.036 P 
HETATM    3  C3  UNL     1      22.545   4.072  48.692  1.00  0.00     0.075 A 
HETATM    4  N1  UNL     1      21.768   4.356  47.628  1.00  0.00    -0.241 NA
HETATM    5  C4  UNL     1      20.893   3.412  47.204  1.00  0.00     0.236 A 
HETATM    6  N2  UNL     1      20.843   2.252  47.862  1.00  0.00    -0.224 NA
HETATM    7  C5  UNL     1      21.601   1.942  48.920  1.00  0.00     0.142 A 
HETATM    8  C12 UNL     1      22.501   2.881  49.374  1.00  0.00     0.041 A 
HETATM    9  C13 UNL     1      23.399   2.723  50.506  1.00  0.00     0.046 A 
HETATM   10  C14 UNL     1      24.242   3.628  50.921  1.00  0.00     0.046 A 
HETATM   11  H5  UNL     1      24.491   5.795  47.927  1.00  0.00     0.067 HD
ENDROOT
BRANCH  10  12
HETATM   12  N4  UNL     1      25.059   3.293  52.054  1.00  0.00    -0.326 N 
HETATM   13  C15 UNL     1      26.185   2.460  52.010  1.00  0.00     0.247 C 
HETATM   14  O2  UNL     1      26.720   1.849  51.049  1.00  0.00    -0.271 OA
HETATM   15  H13 UNL     1      24.783   3.707  52.982  1.00  0.00     0.168 HD
BRANCH  13  16
HETATM   16  C16 UNL     1      27.014   2.129  53.196  1.00  0.00     0.203 C 
HETATM   17  C17 UNL     1      26.207   1.495  54.306  1.00  0.00     0.215 C 
HETATM   18  O3  UNL     1      27.174   0.694  54.956  1.00  0.00    -0.301 OA
HETATM   19  C18 UNL     1      28.092   0.207  54.028  1.00  0.00     0.361 C 
HETATM   20  O4  UNL     1      28.776  -0.813  54.307  1.00  0.00    -0.238 OA
HETATM   21  N5  UNL     1      27.974   1.096  52.924  1.00  0.00    -0.321 N 
HETATM   22  H17 UNL     1      28.574   0.912  52.066  1.00  0.00     0.165 HD
ENDBRANCH  13  16
ENDBRANCH  10  12
BRANCH   1  23
HETATM   23  O1  UNL     1      24.361   5.929  51.542  1.00  0.00    -0.380 OA
HETATM   24  C1  UNL     1      24.180   7.161  50.971  1.00  0.00     0.202 C 
ENDBRANCH   1  23
BRANCH   7  25
HETATM   25  N3  UNL     1      21.535   0.715  49.598  1.00  0.00    -0.340 N 
HETATM   26  H7  UNL     1      22.001  -0.126  49.257  1.00  0.00     0.167 HD
BRANCH  25  27
HETATM   27  C6  UNL     1      20.867   0.385  50.805  1.00  0.00     0.035 A 
HETATM   28  C7  UNL     1      19.478   0.417  50.995  1.00  0.00     0.029 A 
HETATM   29  C8  UNL     1      18.857   0.099  52.169  1.00  0.00     0.004 A 
HETATM   30  C9  UNL     1      19.593  -0.279  53.255  1.00  0.00     0.019 A 
HETATM   31  C10 UNL     1      20.964  -0.335  53.144  1.00  0.00     0.013 A 
HETATM   32 BR1  UNL     1      21.916  -0.871  54.699  1.00  0.00    -0.051 Br
HETATM   33  C11 UNL     1      21.532  -0.007  51.945  1.00  0.00     0.048 A 
ENDBRANCH  25  27
ENDBRANCH   7  25
TORSDOF 5
ENDMDL
MODEL 6
REMARK VINA RESULT:      -8.2      3.291      5.686
REMARK  5 active torsions:
REMARK  status: ('A' for Active; 'I' for Inactive)
REMARK    1  A    between atoms: O1_2  and  C2_3 
REMARK    2  A    between atoms: C5_9  and  N3_10 
REMARK    3  A    between atoms: N3_10  and  C6_11 
REMARK    4  A    between atoms: C14_20  and  N4_21 
REMARK       I    between atoms: N4_21  and  C15_22 
REMARK    5  A    between atoms: C15_22  and  C16_24 
ROOT
HETATM    1  C2  UNL     1      25.093   3.373  50.280  1.00  0.00     0.201 A 
HETATM    2  P1  UNL     1      23.771   3.657  48.988  1.00  0.00    -0.036 P 
HETATM    3  C3  UNL     1      22.184   3.258  49.789  1.00  0.00     0.075 A 
HETATM    4  N1  UNL     1      21.173   3.450  48.917  1.00  0.00    -0.241 NA
HETATM    5  C4  UNL     1      19.910   3.197  49.337  1.00  0.00     0.236 A 
HETATM    6  N2  UNL     1      19.730   2.773  50.590  1.00  0.00    -0.224 NA
HETATM    7  C5  UNL     1      20.712   2.574  51.477  1.00  0.00     0.142 A 
HETATM    8  C12 UNL     1      22.008   2.822  51.079  1.00  0.00     0.041 A 
HETATM    9  C13 UNL     1      23.197   2.666  51.901  1.00  0.00     0.046 A 
HETATM   10  C14 UNL     1      24.415   2.909  51.505  1.00  0.00     0.046 A 
HETATM   11  H5  UNL     1      23.999   2.817  47.825  1.00  0.00     0.067 HD
ENDROOT
BRANCH  10  12
HETATM   12  N4  UNL     1      25.470   2.691  52.455  1.00  0.00    -0.326 N 
HETATM   13  C15 UNL     1      26.169   1.486  52.610  1.00  0.00     0.247 C 
HETATM   14  O2  UNL     1      26.060   0.387  52.007  1.00  0.00    -0.271 OA
HETATM   15  H13 UNL     1      25.729   3.500  53.077  1.00  0.00     0.168 HD
BRANCH  13  16
HETATM   16  C16 UNL     1      27.257   1.285  53.599  1.00  0.00     0.203 C 
HETATM   17  C17 UNL     1      26.884   0.287  54.673  1.00  0.00     0.215 C 
HETATM   18  O3  UNL     1      28.144  -0.243  55.036  1.00  0.00    -0.301 OA
HETATM   19  C18 UNL     1      28.983  -0.286  53.925  1.00  0.00     0.361 C 
HETATM   20  O4  UNL     1      29.975  -1.062  53.925  1.00  0.00    -0.238 OA
HETATM   21  N5  UNL     1      28.414   0.656  53.024  1.00  0.00    -0.321 N 
HETATM   22  H17 UNL     1      28.877   0.786  52.076  1.00  0.00     0.165 HD
ENDBRANCH  13  16
ENDBRANCH  10  12
BRANCH   1  23
HETATM   23  O1  UNL     1      25.738   4.595  50.455  1.00  0.00    -0.380 OA
HETATM   24  C1  UNL     1      26.302   4.986  49.269  1.00  0.00     0.202 C 
ENDBRANCH   1  23
BRANCH   7  25
HETATM   25  N3  UNL     1      20.503   2.127  52.790  1.00  0.00    -0.340 N 
HETATM   26  H7  UNL     1      20.287   2.763  53.558  1.00  0.00     0.167 HD
BRANCH  25  27
HETATM   27  C6  UNL     1      20.541   0.809  53.313  1.00  0.00     0.035 A 
HETATM   28  C7  UNL     1      21.641   0.225  53.955  1.00  0.00     0.029 A 
HETATM   29  C8  UNL     1      21.656  -1.049  54.446  1.00  0.00     0.004 A 
HETATM   30  C9  UNL     1      20.552  -1.844  54.327  1.00  0.00     0.019 A 
HETATM   31  C10 UNL     1      19.432  -1.338  53.708  1.00  0.00     0.013 A 
HETATM   32 BR1  UNL     1      17.936  -2.506  53.583  1.00  0.00    -0.051 Br
HETATM   33  C11 UNL     1      19.473  -0.056  53.236  1.00  0.00     0.048 A 
ENDBRANCH  25  27
ENDBRANCH   7  25
TORSDOF 5
ENDMDL
MODEL 7
REMARK VINA RESULT:      -8.2      3.368      4.850
REMARK  5 active torsions:
REMARK  status: ('A' for Active; 'I' for Inactive)
REMARK    1  A    between atoms: O1_2  and  C2_3 
REMARK    2  A    between atoms: C5_9  and  N3_10 
REMARK    3  A    between atoms: N3_10  and  C6_11 
REMARK    4  A    between atoms: C14_20  and  N4_21 
REMARK       I    between atoms: N4_21  and  C15_22 
REMARK    5  A    between atoms: C15_22  and  C16_24 
ROOT
HETATM    1  C2  UNL     1      24.108   2.721  51.464  1.00  0.00     0.201 A 
HETATM    2  P1  UNL     1      23.315   4.201  50.639  1.00  0.00    -0.036 P 
HETATM    3  C3  UNL     1      24.642   5.039  49.714  1.00  0.00     0.075 A 
HETATM    4  N1  UNL     1      24.143   6.118  49.078  1.00  0.00    -0.241 NA
HETATM    5  C4  UNL     1      24.991   6.873  48.339  1.00  0.00     0.236 A 
HETATM    6  N2  UNL     1      26.274   6.511  48.275  1.00  0.00    -0.224 NA
HETATM    7  C5  UNL     1      26.797   5.446  48.894  1.00  0.00     0.142 A 
HETATM    8  C12 UNL     1      25.960   4.658  49.655  1.00  0.00     0.041 A 
HETATM    9  C13 UNL     1      26.348   3.468  50.392  1.00  0.00     0.046 A 
HETATM   10  C14 UNL     1      25.539   2.734  51.104  1.00  0.00     0.046 A 
HETATM   11  H5  UNL     1      22.724   5.085  51.627  1.00  0.00     0.067 HD
ENDROOT
BRANCH  10  12
HETATM   12  N4  UNL     1      26.101   1.594  51.773  1.00  0.00    -0.326 N 
HETATM   13  C15 UNL     1      26.420   1.545  53.137  1.00  0.00     0.247 C 
HETATM   14  O2  UNL     1      26.303   2.411  54.042  1.00  0.00    -0.271 OA
HETATM   15  H13 UNL     1      26.286   0.739  51.187  1.00  0.00     0.168 HD
BRANCH  13  16
HETATM   16  C16 UNL     1      27.001   0.354  53.806  1.00  0.00     0.203 C 
HETATM   17  C17 UNL     1      26.973  -0.874  52.925  1.00  0.00     0.215 C 
HETATM   18  O3  UNL     1      28.085  -1.607  53.402  1.00  0.00    -0.301 OA
HETATM   19  C18 UNL     1      29.090  -0.735  53.816  1.00  0.00     0.361 C 
HETATM   20  O4  UNL     1      30.276  -1.149  53.897  1.00  0.00    -0.238 OA
HETATM   21  N5  UNL     1      28.410   0.492  54.048  1.00  0.00    -0.321 N 
HETATM   22  H17 UNL     1      28.984   1.332  54.359  1.00  0.00     0.165 HD
ENDBRANCH  13  16
ENDBRANCH  10  12
BRANCH   1  23
HETATM   23  O1  UNL     1      23.443   1.598  50.977  1.00  0.00    -0.380 OA
HETATM   24  C1  UNL     1      22.647   1.963  49.923  1.00  0.00     0.202 C 
ENDBRANCH   1  23
BRANCH   7  25
HETATM   25  N3  UNL     1      28.150   5.082  48.816  1.00  0.00    -0.340 N 
HETATM   26  H7  UNL     1      28.492   4.173  49.131  1.00  0.00     0.167 HD
BRANCH  25  27
HETATM   27  C6  UNL     1      29.258   5.819  48.327  1.00  0.00     0.035 A 
HETATM   28  C7  UNL     1      30.389   5.266  47.711  1.00  0.00     0.029 A 
HETATM   29  C8  UNL     1      31.447   5.997  47.253  1.00  0.00     0.004 A 
HETATM   30  C9  UNL     1      31.450   7.357  47.380  1.00  0.00     0.019 A 
HETATM   31  C10 UNL     1      30.372   7.971  47.975  1.00  0.00     0.013 A 
HETATM   32 BR1  UNL     1      30.452   9.866  48.114  1.00  0.00    -0.051 Br
HETATM   33  C11 UNL     1      29.340   7.191  48.415  1.00  0.00     0.048 A 
ENDBRANCH  25  27
ENDBRANCH   7  25
TORSDOF 5
ENDMDL
MODEL 8
REMARK VINA RESULT:      -8.1      4.051      5.793
REMARK  5 active torsions:
REMARK  status: ('A' for Active; 'I' for Inactive)
REMARK    1  A    between atoms: O1_2  and  C2_3 
REMARK    2  A    between atoms: C5_9  and  N3_10 
REMARK    3  A    between atoms: N3_10  and  C6_11 
REMARK    4  A    between atoms: C14_20  and  N4_21 
REMARK       I    between atoms: N4_21  and  C15_22 
REMARK    5  A    between atoms: C15_22  and  C16_24 
ROOT
HETATM    1  C2  UNL     1      23.871   3.624  50.060  1.00  0.00     0.201 A 
HETATM    2  P1  UNL     1      23.512   5.156  49.048  1.00  0.00    -0.036 P 
HETATM    3  C3  UNL     1      25.131   5.883  48.635  1.00  0.00     0.075 A 
HETATM    4  N1  UNL     1      24.955   6.993  47.891  1.00  0.00    -0.241 NA
HETATM    5  C4  UNL     1      26.055   7.676  47.491  1.00  0.00     0.236 A 
HETATM    6  N2  UNL     1      27.255   7.215  47.851  1.00  0.00    -0.224 NA
HETATM    7  C5  UNL     1      27.460   6.117  48.588  1.00  0.00     0.142 A 
HETATM    8  C12 UNL     1      26.361   5.401  49.010  1.00  0.00     0.041 A 
HETATM    9  C13 UNL     1      26.390   4.188  49.811  1.00  0.00     0.046 A 
HETATM   10  C14 UNL     1      25.337   3.524  50.198  1.00  0.00     0.046 A 
HETATM   11  H5  UNL     1      22.694   6.089  49.800  1.00  0.00     0.067 HD
ENDROOT
BRANCH  10  12
HETATM   12  N4  UNL     1      25.557   2.348  50.993  1.00  0.00    -0.326 N 
HETATM   13  C15 UNL     1      25.296   2.252  52.366  1.00  0.00     0.247 C 
HETATM   14  O2  UNL     1      24.841   3.098  53.180  1.00  0.00    -0.271 OA
HETATM   15  H13 UNL     1      25.944   1.503  50.499  1.00  0.00     0.168 HD
BRANCH  13  16
HETATM   16  C16 UNL     1      25.532   1.025  53.167  1.00  0.00     0.203 C 
HETATM   17  C17 UNL     1      26.272  -0.040  52.388  1.00  0.00     0.215 C 
HETATM   18  O3  UNL     1      26.952  -0.738  53.413  1.00  0.00    -0.301 OA
HETATM   19  C18 UNL     1      27.311   0.141  54.433  1.00  0.00     0.361 C 
HETATM   20  O4  UNL     1      28.240  -0.172  55.224  1.00  0.00    -0.238 OA
HETATM   21  N5  UNL     1      26.434   1.247  54.262  1.00  0.00    -0.321 N 
HETATM   22  H17 UNL     1      26.533   2.072  54.925  1.00  0.00     0.165 HD
ENDBRANCH  13  16
ENDBRANCH  10  12
BRANCH   1  23
HETATM   23  O1  UNL     1      23.325   2.553  49.357  1.00  0.00    -0.380 OA
HETATM   24  C1  UNL     1      22.610   3.028  48.289  1.00  0.00     0.202 C 
ENDBRANCH   1  23
BRANCH   7  25
HETATM   25  N3  UNL     1      28.730   5.648  48.958  1.00  0.00    -0.340 N 
HETATM   26  H7  UNL     1      28.871   5.004  49.736  1.00  0.00     0.167 HD
BRANCH  25  27
HETATM   27  C6  UNL     1      29.998   5.933  48.391  1.00  0.00     0.035 A 
HETATM   28  C7  UNL     1      30.692   7.143  48.529  1.00  0.00     0.029 A 
HETATM   29  C8  UNL     1      31.911   7.396  47.969  1.00  0.00     0.004 A 
HETATM   30  C9  UNL     1      32.535   6.442  47.217  1.00  0.00     0.019 A 
HETATM   31  C10 UNL     1      31.914   5.227  47.038  1.00  0.00     0.013 A 
HETATM   32 BR1  UNL     1      32.846   3.951  45.981  1.00  0.00    -0.051 Br
HETATM   33  C11 UNL     1      30.694   5.027  47.622  1.00  0.00     0.048 A 
ENDBRANCH  25  27
ENDBRANCH   7  25
TORSDOF 5
ENDMDL
MODEL 9
REMARK VINA RESULT:      -7.9      5.653      8.130
REMARK  5 active torsions:
REMARK  status: ('A' for Active; 'I' for Inactive)
REMARK    1  A    between atoms: O1_2  and  C2_3 
REMARK    2  A    between atoms: C5_9  and  N3_10 
REMARK    3  A    between atoms: N3_10  and  C6_11 
REMARK    4  A    between atoms: C14_20  and  N4_21 
REMARK       I    between atoms: N4_21  and  C15_22 
REMARK    5  A    between atoms: C15_22  and  C16_24 
ROOT
HETATM    1  C2  UNL     1      28.771   8.442  48.279  1.00  0.00     0.201 A 
HETATM    2  P1  UNL     1      27.357   9.278  49.174  1.00  0.00    -0.036 P 
HETATM    3  C3  UNL     1      26.187   7.955  49.622  1.00  0.00     0.075 A 
HETATM    4  N1  UNL     1      25.137   8.481  50.285  1.00  0.00    -0.241 NA
HETATM    5  C4  UNL     1      24.155   7.642  50.696  1.00  0.00     0.236 A 
HETATM    6  N2  UNL     1      24.277   6.340  50.426  1.00  0.00    -0.224 NA
HETATM    7  C5  UNL     1      25.306   5.790  49.770  1.00  0.00     0.142 A 
HETATM    8  C12 UNL     1      26.320   6.618  49.339  1.00  0.00     0.041 A 
HETATM    9  C13 UNL     1      27.511   6.201  48.618  1.00  0.00     0.046 A 
HETATM   10  C14 UNL     1      28.462   7.001  48.221  1.00  0.00     0.046 A 
HETATM   11  H5  UNL     1      26.726  10.272  48.325  1.00  0.00     0.067 HD
ENDROOT
BRANCH  10  12
HETATM   12  N4  UNL     1      29.564   6.412  47.514  1.00  0.00    -0.326 N 
HETATM   13  C15 UNL     1      30.620   5.715  48.116  1.00  0.00     0.247 C 
HETATM   14  O2  UNL     1      30.848   5.449  49.325  1.00  0.00    -0.271 OA
HETATM   15  H13 UNL     1      29.572   6.519  46.466  1.00  0.00     0.168 HD
BRANCH  13  16
HETATM   16  C16 UNL     1      31.749   5.114  47.363  1.00  0.00     0.203 C 
HETATM   17  C17 UNL     1      32.984   4.938  48.217  1.00  0.00     0.215 C 
HETATM   18  O3  UNL     1      33.613   3.829  47.605  1.00  0.00    -0.301 OA
HETATM   19  C18 UNL     1      32.653   2.955  47.100  1.00  0.00     0.361 C 
HETATM   20  O4  UNL     1      32.962   1.754  46.879  1.00  0.00    -0.238 OA
HETATM   21  N5  UNL     1      31.487   3.758  46.969  1.00  0.00    -0.321 N 
HETATM   22  H17 UNL     1      30.598   3.296  46.613  1.00  0.00     0.165 HD
ENDBRANCH  13  16
ENDBRANCH  10  12
BRANCH   1  23
HETATM   23  O1  UNL     1      29.919   8.714  49.020  1.00  0.00    -0.380 OA
HETATM   24  C1  UNL     1      30.508   9.855  48.542  1.00  0.00     0.202 C 
ENDBRANCH   1  23
BRANCH   7  25
HETATM   25  N3  UNL     1      25.416   4.419  49.495  1.00  0.00    -0.340 N 
HETATM   26  H7  UNL     1      25.666   4.064  48.572  1.00  0.00     0.167 HD
BRANCH  25  27
HETATM   27  C6  UNL     1      25.222   3.307  50.353  1.00  0.00     0.035 A 
HETATM   28  C7  UNL     1      23.994   2.678  50.597  1.00  0.00     0.029 A 
HETATM   29  C8  UNL     1      23.831   1.611  51.433  1.00  0.00     0.004 A 
HETATM   30  C9  UNL     1      24.903   1.087  52.096  1.00  0.00     0.019 A 
HETATM   31  C10 UNL     1      26.143   1.652  51.905  1.00  0.00     0.013 A 
HETATM   32 BR1  UNL     1      27.585   0.865  52.863  1.00  0.00    -0.051 Br
HETATM   33  C11 UNL     1      26.249   2.718  51.057  1.00  0.00     0.048 A 
ENDBRANCH  25  27
ENDBRANCH   7  25
TORSDOF 5
ENDMDL
