MODEL 1
REMARK VINA RESULT:      -9.3      0.000      0.000
REMARK  4 active torsions:
REMARK  status: ('A' for Active; 'I' for Inactive)
REMARK       I    between atoms: C1_2  and  N1_3 
REMARK    1  A    between atoms: C1_2  and  C17_23 
REMARK    2  A    between atoms: N1_3  and  C2_4 
REMARK    3  A    between atoms: C6_8  and  N2_9 
REMARK    4  A    between atoms: N2_9  and  C7_10 
ROOT
HETATM    1  C2  UNL     1      24.059   0.767  53.134  1.00  0.00     0.037 A 
HETATM    2  C3  UNL     1      23.110  -0.112  53.656  1.00  0.00     0.029 A 
HETATM    3  C4  UNL     1      21.943  -0.319  52.950  1.00  0.00     0.004 A 
HETATM    4  C5  UNL     1      21.817   0.375  51.769  1.00  0.00     0.030 A 
HETATM    5  C6  UNL     1      22.718   1.249  51.212  1.00  0.00     0.051 A 
HETATM    6  C16 UNL     1      23.883   1.438  51.943  1.00  0.00     0.059 A 
ENDROOT
BRANCH   5   7
HETATM    7  N2  UNL     1      22.507   1.949  49.994  1.00  0.00    -0.188 N 
HETATM    8  H5  UNL     1      21.869   1.524  49.291  1.00  0.00     0.184 HD
BRANCH   7   9
HETATM    9  C7  UNL     1      23.154   3.182  49.748  1.00  0.00     0.727 A 
HETATM   10  N3  UNL     1      22.173   4.098  49.804  1.00  0.00    -0.075 NA
HETATM   11  C8  UNL     1      22.371   5.428  49.612  1.00  0.00     0.139 A 
HETATM   12  C9  UNL     1      23.649   5.854  49.348  1.00  0.00     0.053 A 
HETATM   13  C10 UNL     1      24.659   4.926  49.287  1.00  0.00     0.089 A 
HETATM   14  C11 UNL     1      26.037   5.254  48.991  1.00  0.00     0.011 A 
HETATM   15  N5  UNL     1      24.388   3.621  49.489  1.00  0.00    -0.062 NA
HETATM   16  C12 UNL     1      26.337   6.577  48.784  1.00  0.00     0.017 A 
HETATM   17  C15 UNL     1      27.077   4.362  48.879  1.00  0.00     0.130 A 
HETATM   18  C13 UNL     1      27.610   6.994  48.479  1.00  0.00     0.020 A 
HETATM   19  C14 UNL     1      28.623   6.042  48.379  1.00  0.00     0.116 A 
HETATM   20  N4  UNL     1      28.339   4.732  48.582  1.00  0.00    -0.272 NA
ENDBRANCH   7   9
ENDBRANCH   5   7
BRANCH   1  21
HETATM   21  N1  UNL     1      25.296   1.083  53.800  1.00  0.00    -0.323 N 
HETATM   22  C1  UNL     1      26.177   0.102  53.196  1.00  0.00     0.257 C 
HETATM   23  O1  UNL     1      25.510  -0.580  52.379  1.00  0.00    -0.267 OA
HETATM   24  H1  UNL     1      25.789   1.700  54.503  1.00  0.00     0.169 HD
BRANCH  22  25
HETATM   25  C17 UNL     1      27.597  -0.148  53.417  1.00  0.00     0.049 A 
HETATM   26  C18 UNL     1      27.940  -1.450  53.083  1.00  0.00     0.020 A 
HETATM   27  C19 UNL     1      29.276  -1.832  53.249  1.00  0.00     0.020 A 
HETATM   28  C20 UNL     1      30.167  -0.894  53.731  1.00  0.00     0.116 A 
HETATM   29  N6  UNL     1      29.748   0.345  54.029  1.00  0.00    -0.272 NA
HETATM   30  C21 UNL     1      28.479   0.784  53.895  1.00  0.00     0.133 A 
ENDBRANCH  22  25
ENDBRANCH   1  21
TORSDOF 4
ENDMDL
MODEL 2
REMARK VINA RESULT:      -9.1      1.949      6.637
REMARK  4 active torsions:
REMARK  status: ('A' for Active; 'I' for Inactive)
REMARK       I    between atoms: C1_2  and  N1_3 
REMARK    1  A    between atoms: C1_2  and  C17_23 
REMARK    2  A    between atoms: N1_3  and  C2_4 
REMARK    3  A    between atoms: C6_8  and  N2_9 
REMARK    4  A    between atoms: N2_9  and  C7_10 
ROOT
HETATM    1  C2  UNL     1      23.295   5.035  49.594  1.00  0.00     0.037 A 
HETATM    2  C3  UNL     1      22.455   5.937  50.245  1.00  0.00     0.029 A 
HETATM    3  C4  UNL     1      21.585   5.458  51.203  1.00  0.00     0.004 A 
HETATM    4  C5  UNL     1      21.626   4.101  51.433  1.00  0.00     0.030 A 
HETATM    5  C6  UNL     1      22.430   3.172  50.822  1.00  0.00     0.051 A 
HETATM    6  C16 UNL     1      23.296   3.683  49.864  1.00  0.00     0.059 A 
ENDROOT
BRANCH   5   7
HETATM    7  N2  UNL     1      22.399   1.779  51.099  1.00  0.00    -0.188 N 
HETATM    8  H5  UNL     1      21.655   1.208  50.647  1.00  0.00     0.184 HD
BRANCH   7   9
HETATM    9  C7  UNL     1      23.348   1.194  51.968  1.00  0.00     0.727 A 
HETATM   10  N3  UNL     1      22.682   0.202  52.581  1.00  0.00    -0.075 NA
HETATM   11  C8  UNL     1      23.237  -0.615  53.514  1.00  0.00     0.139 A 
HETATM   12  C9  UNL     1      24.554  -0.410  53.844  1.00  0.00     0.053 A 
HETATM   13  C10 UNL     1      25.244   0.603  53.224  1.00  0.00     0.089 A 
HETATM   14  C11 UNL     1      26.624   0.929  53.509  1.00  0.00     0.011 A 
HETATM   15  N5  UNL     1      24.628   1.374  52.306  1.00  0.00    -0.062 NA
HETATM   16  C12 UNL     1      27.273   0.155  54.439  1.00  0.00     0.017 A 
HETATM   17  C15 UNL     1      27.348   1.954  52.948  1.00  0.00     0.130 A 
HETATM   18  C13 UNL     1      28.579   0.390  54.795  1.00  0.00     0.020 A 
HETATM   19  C14 UNL     1      29.260   1.445  54.192  1.00  0.00     0.116 A 
HETATM   20  N4  UNL     1      28.631   2.215  53.271  1.00  0.00    -0.272 NA
ENDBRANCH   7   9
ENDBRANCH   5   7
BRANCH   1  21
HETATM   21  N1  UNL     1      24.218   5.418  48.557  1.00  0.00    -0.323 N 
HETATM   22  C1  UNL     1      25.386   5.744  49.353  1.00  0.00     0.257 C 
HETATM   23  O1  UNL     1      25.106   5.558  50.563  1.00  0.00    -0.267 OA
HETATM   24  H1  UNL     1      24.379   5.549  47.520  1.00  0.00     0.169 HD
BRANCH  22  25
HETATM   25  C17 UNL     1      26.704   6.214  48.940  1.00  0.00     0.049 A 
HETATM   26  C18 UNL     1      27.533   5.158  48.591  1.00  0.00     0.020 A 
HETATM   27  C19 UNL     1      28.834   5.463  48.177  1.00  0.00     0.020 A 
HETATM   28  C20 UNL     1      29.211   6.791  48.140  1.00  0.00     0.116 A 
HETATM   29  N6  UNL     1      28.343   7.750  48.495  1.00  0.00    -0.272 NA
HETATM   30  C21 UNL     1      27.075   7.531  48.903  1.00  0.00     0.133 A 
ENDBRANCH  22  25
ENDBRANCH   1  21
TORSDOF 4
ENDMDL
MODEL 3
REMARK VINA RESULT:      -8.9      1.815      5.883
REMARK  4 active torsions:
REMARK  status: ('A' for Active; 'I' for Inactive)
REMARK       I    between atoms: C1_2  and  N1_3 
REMARK    1  A    between atoms: C1_2  and  C17_23 
REMARK    2  A    between atoms: N1_3  and  C2_4 
REMARK    3  A    between atoms: C6_8  and  N2_9 
REMARK    4  A    between atoms: N2_9  and  C7_10 
ROOT
HETATM    1  C2  UNL     1      25.671   3.698  49.634  1.00  0.00     0.037 A 
HETATM    2  C3  UNL     1      25.746   5.079  49.454  1.00  0.00     0.029 A 
HETATM    3  C4  UNL     1      24.617   5.752  49.034  1.00  0.00     0.004 A 
HETATM    4  C5  UNL     1      23.495   4.984  48.826  1.00  0.00     0.030 A 
HETATM    5  C6  UNL     1      23.368   3.626  48.987  1.00  0.00     0.051 A 
HETATM    6  C16 UNL     1      24.519   2.975  49.410  1.00  0.00     0.059 A 
ENDROOT
BRANCH   5   7
HETATM    7  N2  UNL     1      22.177   2.896  48.728  1.00  0.00    -0.188 N 
HETATM    8  H5  UNL     1      21.716   3.025  47.804  1.00  0.00     0.184 HD
BRANCH   7   9
HETATM    9  C7  UNL     1      21.636   2.029  49.705  1.00  0.00     0.727 A 
HETATM   10  N3  UNL     1      20.341   1.906  49.372  1.00  0.00    -0.075 NA
HETATM   11  C8  UNL     1      19.451   1.154  50.069  1.00  0.00     0.139 A 
HETATM   12  C9  UNL     1      19.907   0.483  51.176  1.00  0.00     0.053 A 
HETATM   13  C10 UNL     1      21.229   0.602  51.527  1.00  0.00     0.089 A 
HETATM   14  C11 UNL     1      21.816  -0.036  52.685  1.00  0.00     0.011 A 
HETATM   15  N5  UNL     1      22.056   1.366  50.786  1.00  0.00    -0.062 NA
HETATM   16  C12 UNL     1      20.993  -0.822  53.453  1.00  0.00     0.017 A 
HETATM   17  C15 UNL     1      23.120   0.082  53.103  1.00  0.00     0.130 A 
HETATM   18  C13 UNL     1      21.445  -1.459  54.584  1.00  0.00     0.020 A 
HETATM   19  C14 UNL     1      22.778  -1.300  54.956  1.00  0.00     0.116 A 
HETATM   20  N4  UNL     1      23.601  -0.528  54.206  1.00  0.00    -0.272 NA
ENDBRANCH   7   9
ENDBRANCH   5   7
BRANCH   1  21
HETATM   21  N1  UNL     1      26.792   2.890  50.036  1.00  0.00    -0.323 N 
HETATM   22  C1  UNL     1      26.423   2.594  51.407  1.00  0.00     0.257 C 
HETATM   23  O1  UNL     1      25.322   3.147  51.650  1.00  0.00    -0.267 OA
HETATM   24  H1  UNL     1      27.714   2.453  49.757  1.00  0.00     0.169 HD
BRANCH  22  25
HETATM   25  C17 UNL     1      27.121   1.811  52.421  1.00  0.00     0.049 A 
HETATM   26  C18 UNL     1      26.802   0.464  52.330  1.00  0.00     0.020 A 
HETATM   27  C19 UNL     1      27.398  -0.408  53.247  1.00  0.00     0.020 A 
HETATM   28  C20 UNL     1      28.265   0.122  54.182  1.00  0.00     0.116 A 
HETATM   29  N6  UNL     1      28.518   1.440  54.197  1.00  0.00    -0.272 NA
HETATM   30  C21 UNL     1      27.981   2.339  53.347  1.00  0.00     0.133 A 
ENDBRANCH  22  25
ENDBRANCH   1  21
TORSDOF 4
ENDMDL
MODEL 4
REMARK VINA RESULT:      -8.9      1.460      1.709
REMARK  4 active torsions:
REMARK  status: ('A' for Active; 'I' for Inactive)
REMARK       I    between atoms: C1_2  and  N1_3 
REMARK    1  A    between atoms: C1_2  and  C17_23 
REMARK    2  A    between atoms: N1_3  and  C2_4 
REMARK    3  A    between atoms: C6_8  and  N2_9 
REMARK    4  A    between atoms: N2_9  and  C7_10 
ROOT
HETATM    1  C2  UNL     1      23.212  -0.087  53.320  1.00  0.00     0.037 A 
HETATM    2  C3  UNL     1      22.172  -0.070  54.248  1.00  0.00     0.029 A 
HETATM    3  C4  UNL     1      20.951   0.446  53.863  1.00  0.00     0.004 A 
HETATM    4  C5  UNL     1      20.869   0.908  52.569  1.00  0.00     0.030 A 
HETATM    5  C6  UNL     1      21.860   0.915  51.619  1.00  0.00     0.051 A 
HETATM    6  C16 UNL     1      23.076   0.390  52.033  1.00  0.00     0.059 A 
ENDROOT
BRANCH   5   7
HETATM    7  N2  UNL     1      21.705   1.432  50.305  1.00  0.00    -0.188 N 
HETATM    8  H5  UNL     1      21.124   0.891  49.632  1.00  0.00     0.184 HD
BRANCH   7   9
HETATM    9  C7  UNL     1      22.330   2.643  49.927  1.00  0.00     0.727 A 
HETATM   10  N3  UNL     1      21.319   3.509  49.754  1.00  0.00    -0.075 NA
HETATM   11  C8  UNL     1      21.489   4.802  49.375  1.00  0.00     0.139 A 
HETATM   12  C9  UNL     1      22.771   5.244  49.160  1.00  0.00     0.053 A 
HETATM   13  C10 UNL     1      23.813   4.366  49.332  1.00  0.00     0.089 A 
HETATM   14  C11 UNL     1      25.200   4.710  49.110  1.00  0.00     0.011 A 
HETATM   15  N5  UNL     1      23.568   3.096  49.711  1.00  0.00    -0.062 NA
HETATM   16  C12 UNL     1      25.474   5.999  48.726  1.00  0.00     0.017 A 
HETATM   17  C15 UNL     1      26.276   3.862  49.229  1.00  0.00     0.130 A 
HETATM   18  C13 UNL     1      26.756   6.425  48.472  1.00  0.00     0.020 A 
HETATM   19  C14 UNL     1      27.804   5.518  48.610  1.00  0.00     0.116 A 
HETATM   20  N4  UNL     1      27.547   4.242  48.989  1.00  0.00    -0.272 NA
ENDBRANCH   7   9
ENDBRANCH   5   7
BRANCH   1  21
HETATM   21  N1  UNL     1      24.534  -0.571  53.621  1.00  0.00    -0.323 N 
HETATM   22  C1  UNL     1      25.254   0.684  53.732  1.00  0.00     0.257 C 
HETATM   23  O1  UNL     1      24.446   1.623  53.527  1.00  0.00    -0.267 OA
HETATM   24  H1  UNL     1      25.152  -1.414  53.783  1.00  0.00     0.169 HD
BRANCH  22  25
HETATM   25  C17 UNL     1      26.660   0.939  54.022  1.00  0.00     0.049 A 
HETATM   26  C18 UNL     1      27.128   2.048  53.332  1.00  0.00     0.020 A 
HETATM   27  C19 UNL     1      28.467   2.408  53.512  1.00  0.00     0.020 A 
HETATM   28  C20 UNL     1      29.239   1.642  54.364  1.00  0.00     0.116 A 
HETATM   29  N6  UNL     1      28.704   0.584  54.992  1.00  0.00    -0.272 NA
HETATM   30  C21 UNL     1      27.423   0.178  54.867  1.00  0.00     0.133 A 
ENDBRANCH  22  25
ENDBRANCH   1  21
TORSDOF 4
ENDMDL
MODEL 5
REMARK VINA RESULT:      -8.7      1.914      2.427
REMARK  4 active torsions:
REMARK  status: ('A' for Active; 'I' for Inactive)
REMARK       I    between atoms: C1_2  and  N1_3 
REMARK    1  A    between atoms: C1_2  and  C17_23 
REMARK    2  A    between atoms: N1_3  and  C2_4 
REMARK    3  A    between atoms: C6_8  and  N2_9 
REMARK    4  A    between atoms: N2_9  and  C7_10 
ROOT
HETATM    1  C2  UNL     1      24.130   1.526  52.650  1.00  0.00     0.037 A 
HETATM    2  C3  UNL     1      23.180   1.089  51.728  1.00  0.00     0.029 A 
HETATM    3  C4  UNL     1      22.516   2.029  50.968  1.00  0.00     0.004 A 
HETATM    4  C5  UNL     1      22.858   3.343  51.193  1.00  0.00     0.030 A 
HETATM    5  C6  UNL     1      23.783   3.825  52.086  1.00  0.00     0.051 A 
HETATM    6  C16 UNL     1      24.436   2.857  52.837  1.00  0.00     0.059 A 
ENDROOT
BRANCH   5   7
HETATM    7  N2  UNL     1      24.068   5.204  52.279  1.00  0.00    -0.188 N 
HETATM    8  H5  UNL     1      24.064   5.571  53.252  1.00  0.00     0.184 HD
BRANCH   7   9
HETATM    9  C7  UNL     1      24.340   6.046  51.176  1.00  0.00     0.727 A 
HETATM   10  N3  UNL     1      23.227   6.780  51.025  1.00  0.00    -0.075 NA
HETATM   11  C8  UNL     1      23.069   7.721  50.058  1.00  0.00     0.139 A 
HETATM   12  C9  UNL     1      24.111   7.928  49.189  1.00  0.00     0.053 A 
HETATM   13  C10 UNL     1      25.255   7.181  49.333  1.00  0.00     0.089 A 
HETATM   14  C11 UNL     1      26.405   7.293  48.464  1.00  0.00     0.011 A 
HETATM   15  N5  UNL     1      25.341   6.265  50.319  1.00  0.00    -0.062 NA
HETATM   16  C12 UNL     1      26.341   8.222  47.455  1.00  0.00     0.017 A 
HETATM   17  C15 UNL     1      27.555   6.545  48.539  1.00  0.00     0.130 A 
HETATM   18  C13 UNL     1      27.372   8.397  46.563  1.00  0.00     0.020 A 
HETATM   19  C14 UNL     1      28.512   7.608  46.691  1.00  0.00     0.116 A 
HETATM   20  N4  UNL     1      28.587   6.688  47.683  1.00  0.00    -0.272 NA
ENDBRANCH   7   9
ENDBRANCH   5   7
BRANCH   1  21
HETATM   21  N1  UNL     1      24.859   0.637  53.518  1.00  0.00    -0.323 N 
HETATM   22  C1  UNL     1      25.972   0.285  52.658  1.00  0.00     0.257 C 
HETATM   23  O1  UNL     1      25.832   0.885  51.563  1.00  0.00    -0.267 OA
HETATM   24  H1  UNL     1      24.909   0.169  54.465  1.00  0.00     0.169 HD
BRANCH  22  25
HETATM   25  C17 UNL     1      27.109  -0.595  52.903  1.00  0.00     0.049 A 
HETATM   26  C18 UNL     1      28.224   0.119  53.317  1.00  0.00     0.020 A 
HETATM   27  C19 UNL     1      29.393  -0.601  53.586  1.00  0.00     0.020 A 
HETATM   28  C20 UNL     1      29.365  -1.972  53.425  1.00  0.00     0.116 A 
HETATM   29  N6  UNL     1      28.241  -2.582  53.021  1.00  0.00    -0.272 NA
HETATM   30  C21 UNL     1      27.079  -1.955  52.744  1.00  0.00     0.133 A 
ENDBRANCH  22  25
ENDBRANCH   1  21
TORSDOF 4
ENDMDL
MODEL 6
REMARK VINA RESULT:      -8.5      2.391      7.044
REMARK  4 active torsions:
REMARK  status: ('A' for Active; 'I' for Inactive)
REMARK       I    between atoms: C1_2  and  N1_3 
REMARK    1  A    between atoms: C1_2  and  C17_23 
REMARK    2  A    between atoms: N1_3  and  C2_4 
REMARK    3  A    between atoms: C6_8  and  N2_9 
REMARK    4  A    between atoms: N2_9  and  C7_10 
ROOT
HETATM    1  C2  UNL     1      24.295   6.679  50.880  1.00  0.00     0.037 A 
HETATM    2  C3  UNL     1      23.213   7.552  50.779  1.00  0.00     0.029 A 
HETATM    3  C4  UNL     1      21.947   7.021  50.635  1.00  0.00     0.004 A 
HETATM    4  C5  UNL     1      21.866   5.647  50.604  1.00  0.00     0.030 A 
HETATM    5  C6  UNL     1      22.897   4.745  50.699  1.00  0.00     0.051 A 
HETATM    6  C16 UNL     1      24.158   5.307  50.843  1.00  0.00     0.059 A 
ENDROOT
BRANCH   5   7
HETATM    7  N2  UNL     1      22.736   3.335  50.636  1.00  0.00    -0.188 N 
HETATM    8  H5  UNL     1      22.077   2.950  49.929  1.00  0.00     0.184 HD
BRANCH   7   9
HETATM    9  C7  UNL     1      23.449   2.487  51.514  1.00  0.00     0.727 A 
HETATM   10  N3  UNL     1      22.513   1.686  52.049  1.00  0.00    -0.075 NA
HETATM   11  C8  UNL     1      22.781   0.718  52.962  1.00  0.00     0.139 A 
HETATM   12  C9  UNL     1      24.085   0.553  53.358  1.00  0.00     0.053 A 
HETATM   13  C10 UNL     1      25.051   1.367  52.819  1.00  0.00     0.089 A 
HETATM   14  C11 UNL     1      26.450   1.304  53.177  1.00  0.00     0.011 A 
HETATM   15  N5  UNL     1      24.711   2.308  51.915  1.00  0.00    -0.062 NA
HETATM   16  C12 UNL     1      26.821   0.352  54.094  1.00  0.00     0.017 A 
HETATM   17  C15 UNL     1      27.449   2.119  52.700  1.00  0.00     0.130 A 
HETATM   18  C13 UNL     1      28.122   0.218  54.517  1.00  0.00     0.020 A 
HETATM   19  C14 UNL     1      29.089   1.074  53.996  1.00  0.00     0.116 A 
HETATM   20  N4  UNL     1      28.735   2.018  53.089  1.00  0.00    -0.272 NA
ENDBRANCH   7   9
ENDBRANCH   5   7
BRANCH   1  21
HETATM   21  N1  UNL     1      25.660   7.120  51.000  1.00  0.00    -0.323 N 
HETATM   22  C1  UNL     1      26.044   7.169  49.602  1.00  0.00     0.257 C 
HETATM   23  O1  UNL     1      25.057   6.820  48.908  1.00  0.00    -0.267 OA
HETATM   24  H1  UNL     1      26.444   7.405  51.651  1.00  0.00     0.169 HD
BRANCH  22  25
HETATM   25  C17 UNL     1      27.314   7.539  48.988  1.00  0.00     0.049 A 
HETATM   26  C18 UNL     1      27.838   6.496  48.239  1.00  0.00     0.020 A 
HETATM   27  C19 UNL     1      29.061   6.709  47.594  1.00  0.00     0.020 A 
HETATM   28  C20 UNL     1      29.668   7.940  47.740  1.00  0.00     0.116 A 
HETATM   29  N6  UNL     1      29.089   8.895  48.484  1.00  0.00    -0.272 NA
HETATM   30  C21 UNL     1      27.915   8.761  49.134  1.00  0.00     0.133 A 
ENDBRANCH  22  25
ENDBRANCH   1  21
TORSDOF 4
ENDMDL
MODEL 7
REMARK VINA RESULT:      -8.5      2.385      3.994
REMARK  4 active torsions:
REMARK  status: ('A' for Active; 'I' for Inactive)
REMARK       I    between atoms: C1_2  and  N1_3 
REMARK    1  A    between atoms: C1_2  and  C17_23 
REMARK    2  A    between atoms: N1_3  and  C2_4 
REMARK    3  A    between atoms: C6_8  and  N2_9 
REMARK    4  A    between atoms: N2_9  and  C7_10 
ROOT
HETATM    1  C2  UNL     1      24.604   3.442  51.010  1.00  0.00     0.037 A 
HETATM    2  C3  UNL     1      23.885   2.613  50.149  1.00  0.00     0.029 A 
HETATM    3  C4  UNL     1      23.468   3.123  48.937  1.00  0.00     0.004 A 
HETATM    4  C5  UNL     1      23.805   4.432  48.681  1.00  0.00     0.030 A 
HETATM    5  C6  UNL     1      24.508   5.289  49.491  1.00  0.00     0.051 A 
HETATM    6  C16 UNL     1      24.916   4.749  50.704  1.00  0.00     0.059 A 
ENDROOT
BRANCH   5   7
HETATM    7  N2  UNL     1      24.800   6.641  49.166  1.00  0.00    -0.188 N 
HETATM    8  H5  UNL     1      24.124   7.372  49.467  1.00  0.00     0.184 HD
BRANCH   7   9
HETATM    9  C7  UNL     1      25.972   6.974  48.449  1.00  0.00     0.727 A 
HETATM   10  N3  UNL     1      25.577   7.902  47.563  1.00  0.00    -0.075 NA
HETATM   11  C8  UNL     1      26.409   8.488  46.663  1.00  0.00     0.139 A 
HETATM   12  C9  UNL     1      27.727   8.106  46.665  1.00  0.00     0.053 A 
HETATM   13  C10 UNL     1      28.142   7.157  47.566  1.00  0.00     0.089 A 
HETATM   14  C11 UNL     1      29.498   6.658  47.644  1.00  0.00     0.011 A 
HETATM   15  N5  UNL     1      27.260   6.619  48.432  1.00  0.00    -0.062 NA
HETATM   16  C12 UNL     1      30.415   7.194  46.775  1.00  0.00     0.017 A 
HETATM   17  C15 UNL     1      29.956   5.684  48.497  1.00  0.00     0.130 A 
HETATM   18  C13 UNL     1      31.725   6.779  46.753  1.00  0.00     0.020 A 
HETATM   19  C14 UNL     1      32.129   5.787  47.643  1.00  0.00     0.116 A 
HETATM   20  N4  UNL     1      31.233   5.250  48.508  1.00  0.00    -0.272 NA
ENDBRANCH   7   9
ENDBRANCH   5   7
BRANCH   1  21
HETATM   21  N1  UNL     1      25.060   3.028  52.311  1.00  0.00    -0.323 N 
HETATM   22  C1  UNL     1      26.311   2.385  51.957  1.00  0.00     0.257 C 
HETATM   23  O1  UNL     1      26.459   2.463  50.713  1.00  0.00    -0.267 OA
HETATM   24  H1  UNL     1      24.866   3.004  53.351  1.00  0.00     0.169 HD
BRANCH  22  25
HETATM   25  C17 UNL     1      27.304   1.730  52.802  1.00  0.00     0.049 A 
HETATM   26  C18 UNL     1      27.216   0.349  52.710  1.00  0.00     0.020 A 
HETATM   27  C19 UNL     1      28.108  -0.411  53.474  1.00  0.00     0.020 A 
HETATM   28  C20 UNL     1      29.019   0.258  54.267  1.00  0.00     0.116 A 
HETATM   29  N6  UNL     1      29.035   1.598  54.295  1.00  0.00    -0.272 NA
HETATM   30  C21 UNL     1      28.207   2.395  53.588  1.00  0.00     0.133 A 
ENDBRANCH  22  25
ENDBRANCH   1  21
TORSDOF 4
ENDMDL
MODEL 8
REMARK VINA RESULT:      -8.3      2.426      6.763
REMARK  4 active torsions:
REMARK  status: ('A' for Active; 'I' for Inactive)
REMARK       I    between atoms: C1_2  and  N1_3 
REMARK    1  A    between atoms: C1_2  and  C17_23 
REMARK    2  A    between atoms: N1_3  and  C2_4 
REMARK    3  A    between atoms: C6_8  and  N2_9 
REMARK    4  A    between atoms: N2_9  and  C7_10 
ROOT
HETATM    1  C2  UNL     1      26.289   1.329  52.662  1.00  0.00     0.037 A 
HETATM    2  C3  UNL     1      27.142   0.312  52.233  1.00  0.00     0.029 A 
HETATM    3  C4  UNL     1      26.809  -0.995  52.523  1.00  0.00     0.004 A 
HETATM    4  C5  UNL     1      25.641  -1.182  53.226  1.00  0.00     0.030 A 
HETATM    5  C6  UNL     1      24.769  -0.219  53.670  1.00  0.00     0.051 A 
HETATM    6  C16 UNL     1      25.128   1.087  53.363  1.00  0.00     0.059 A 
ENDROOT
BRANCH   5   7
HETATM    7  N2  UNL     1      23.588  -0.489  54.413  1.00  0.00    -0.188 N 
HETATM    8  H5  UNL     1      23.689  -0.955  55.338  1.00  0.00     0.184 HD
BRANCH   7   9
HETATM    9  C7  UNL     1      22.318  -0.137  53.901  1.00  0.00     0.727 A 
HETATM   10  N3  UNL     1      21.541  -1.202  54.157  1.00  0.00    -0.075 NA
HETATM   11  C8  UNL     1      20.229  -1.279  53.815  1.00  0.00     0.139 A 
HETATM   12  C9  UNL     1      19.670  -0.202  53.172  1.00  0.00     0.053 A 
HETATM   13  C10 UNL     1      20.455   0.892  52.904  1.00  0.00     0.089 A 
HETATM   14  C11 UNL     1      19.985   2.071  52.210  1.00  0.00     0.011 A 
HETATM   15  N5  UNL     1      21.751   0.898  53.274  1.00  0.00    -0.062 NA
HETATM   16  C12 UNL     1      18.667   2.089  51.826  1.00  0.00     0.017 A 
HETATM   17  C15 UNL     1      20.736   3.173  51.882  1.00  0.00     0.130 A 
HETATM   18  C13 UNL     1      18.123   3.152  51.146  1.00  0.00     0.020 A 
HETATM   19  C14 UNL     1      18.936   4.241  50.842  1.00  0.00     0.116 A 
HETATM   20  N4  UNL     1      20.239   4.236  51.217  1.00  0.00    -0.272 NA
ENDBRANCH   7   9
ENDBRANCH   5   7
BRANCH   1  21
HETATM   21  N1  UNL     1      26.553   2.728  52.444  1.00  0.00    -0.323 N 
HETATM   22  C1  UNL     1      25.883   2.925  51.172  1.00  0.00     0.257 C 
HETATM   23  O1  UNL     1      25.376   1.833  50.817  1.00  0.00    -0.267 OA
HETATM   24  H1  UNL     1      27.005   3.611  52.810  1.00  0.00     0.169 HD
BRANCH  22  25
HETATM   25  C17 UNL     1      25.754   4.126  50.354  1.00  0.00     0.049 A 
HETATM   26  C18 UNL     1      26.826   4.265  49.484  1.00  0.00     0.020 A 
HETATM   27  C19 UNL     1      26.836   5.380  48.639  1.00  0.00     0.020 A 
HETATM   28  C20 UNL     1      25.781   6.268  48.720  1.00  0.00     0.116 A 
HETATM   29  N6  UNL     1      24.784   6.055  49.591  1.00  0.00    -0.272 NA
HETATM   30  C21 UNL     1      24.708   5.006  50.436  1.00  0.00     0.133 A 
ENDBRANCH  22  25
ENDBRANCH   1  21
TORSDOF 4
ENDMDL
MODEL 9
REMARK VINA RESULT:      -8.3      1.690      2.378
REMARK  4 active torsions:
REMARK  status: ('A' for Active; 'I' for Inactive)
REMARK       I    between atoms: C1_2  and  N1_3 
REMARK    1  A    between atoms: C1_2  and  C17_23 
REMARK    2  A    between atoms: N1_3  and  C2_4 
REMARK    3  A    between atoms: C6_8  and  N2_9 
REMARK    4  A    between atoms: N2_9  and  C7_10 
ROOT
HETATM    1  C2  UNL     1      23.355   2.011  52.061  1.00  0.00     0.037 A 
HETATM    2  C3  UNL     1      22.475   0.952  51.840  1.00  0.00     0.029 A 
HETATM    3  C4  UNL     1      21.704   0.961  50.695  1.00  0.00     0.004 A 
HETATM    4  C5  UNL     1      21.877   2.039  49.856  1.00  0.00     0.030 A 
HETATM    5  C6  UNL     1      22.726   3.104  50.027  1.00  0.00     0.051 A 
HETATM    6  C16 UNL     1      23.489   3.068  51.187  1.00  0.00     0.059 A 
ENDROOT
BRANCH   5   7
HETATM    7  N2  UNL     1      22.833   4.196  49.125  1.00  0.00    -0.188 N 
HETATM    8  H5  UNL     1      22.390   4.100  48.188  1.00  0.00     0.184 HD
BRANCH   7   9
HETATM    9  C7  UNL     1      23.528   5.371  49.492  1.00  0.00     0.727 A 
HETATM   10  N3  UNL     1      22.647   6.075  50.220  1.00  0.00    -0.075 NA
HETATM   11  C8  UNL     1      22.917   7.289  50.766  1.00  0.00     0.139 A 
HETATM   12  C9  UNL     1      24.165   7.822  50.557  1.00  0.00     0.053 A 
HETATM   13  C10 UNL     1      25.075   7.111  49.812  1.00  0.00     0.089 A 
HETATM   14  C11 UNL     1      26.407   7.582  49.505  1.00  0.00     0.011 A 
HETATM   15  N5  UNL     1      24.736   5.910  49.303  1.00  0.00    -0.062 NA
HETATM   16  C12 UNL     1      26.775   8.802  50.016  1.00  0.00     0.017 A 
HETATM   17  C15 UNL     1      27.340   6.932  48.734  1.00  0.00     0.130 A 
HETATM   18  C13 UNL     1      28.012   9.349  49.771  1.00  0.00     0.020 A 
HETATM   19  C14 UNL     1      28.914   8.641  48.981  1.00  0.00     0.116 A 
HETATM   20  N4  UNL     1      28.563   7.435  48.471  1.00  0.00    -0.272 NA
ENDBRANCH   7   9
ENDBRANCH   5   7
BRANCH   1  21
HETATM   21  N1  UNL     1      24.182   2.121  53.234  1.00  0.00    -0.323 N 
HETATM   22  C1  UNL     1      25.356   1.392  52.796  1.00  0.00     0.257 C 
HETATM   23  O1  UNL     1      25.159   0.990  51.623  1.00  0.00    -0.267 OA
HETATM   24  H1  UNL     1      24.274   2.494  54.220  1.00  0.00     0.169 HD
BRANCH  22  25
HETATM   25  C17 UNL     1      26.602   1.106  53.500  1.00  0.00     0.049 A 
HETATM   26  C18 UNL     1      27.543   2.104  53.292  1.00  0.00     0.020 A 
HETATM   27  C19 UNL     1      28.791   1.958  53.906  1.00  0.00     0.020 A 
HETATM   28  C20 UNL     1      29.009   0.835  54.679  1.00  0.00     0.116 A 
HETATM   29  N6  UNL     1      28.041  -0.082  54.827  1.00  0.00    -0.272 NA
HETATM   30  C21 UNL     1      26.816  -0.008  54.267  1.00  0.00     0.133 A 
ENDBRANCH  22  25
ENDBRANCH   1  21
TORSDOF 4
ENDMDL
