MODEL 1
REMARK VINA RESULT:      -8.2      0.000      0.000
REMARK  7 active torsions:
REMARK  status: ('A' for Active; 'I' for Inactive)
REMARK    1  A    between atoms: C2_2  and  C3_3 
REMARK    2  A    between atoms: C3_3  and  C4_4 
REMARK    3  A    between atoms: N1_5  and  C5_6 
REMARK    4  A    between atoms: N1_5  and  N2_16 
REMARK    5  A    between atoms: C5_6  and  C6_7 
REMARK    6  A    between atoms: C13_14  and  O1_15 
REMARK    7  A    between atoms: C18_21  and  O2_22 
ROOT
HETATM    1  C4  UNL     1      26.831   2.576  51.265  1.00  0.00     0.142 C 
HETATM    2  N1  UNL     1      26.140   1.810  52.146  1.00  0.00    -0.323 N 
ENDROOT
BRANCH   2   3
HETATM    3  C5  UNL     1      24.961   2.039  52.832  1.00  0.00     0.183 C 
BRANCH   3   4
HETATM    4  C6  UNL     1      23.739   1.286  52.619  1.00  0.00    -0.005 A 
HETATM    5  C7  UNL     1      23.284   0.307  53.515  1.00  0.00     0.018 A 
HETATM    6  C8  UNL     1      22.166  -0.491  53.405  1.00  0.00    -0.061 A 
HETATM    7  C9  UNL     1      21.857  -1.473  54.469  1.00  0.00     0.048 C 
HETATM    8  C10 UNL     1      21.417  -0.298  52.281  1.00  0.00     0.016 A 
HETATM    9  C11 UNL     1      21.763   0.638  51.325  1.00  0.00    -0.028 A 
HETATM   10  C12 UNL     1      20.942   0.848  50.098  1.00  0.00     0.051 C 
HETATM   11  C13 UNL     1      22.910   1.399  51.521  1.00  0.00     0.079 A 
BRANCH  11  12
HETATM   12  O1  UNL     1      23.226   2.328  50.541  1.00  0.00    -0.360 OA
HETATM   13  H20 UNL     1      24.116   2.798  50.583  1.00  0.00     0.217 HD
ENDBRANCH  11  12
ENDBRANCH   3   4
ENDBRANCH   2   3
BRANCH   2  14
HETATM   14  N2  UNL     1      26.953   1.056  52.974  1.00  0.00    -0.297 N 
HETATM   15  C14 UNL     1      27.132  -0.293  52.618  1.00  0.00     0.172 C 
HETATM   16  C15 UNL     1      28.475  -0.863  53.036  1.00  0.00    -0.009 C 
HETATM   17  C16 UNL     1      29.122  -0.468  54.143  1.00  0.00    -0.025 C 
HETATM   18  C17 UNL     1      28.308   0.578  54.835  1.00  0.00     0.082 C 
HETATM   19  C18 UNL     1      27.978   1.613  53.721  1.00  0.00     0.239 C 
BRANCH  19  20
HETATM   20  O2  UNL     1      29.209   1.748  53.041  1.00  0.00    -0.375 OA
HETATM   21  H28 UNL     1      29.103   1.487  52.089  1.00  0.00     0.212 HD
ENDBRANCH  19  20
ENDBRANCH   2  14
BRANCH   1  22
HETATM   22  C3  UNL     1      26.502   2.933  49.886  1.00  0.00     0.021 C 
BRANCH  22  23
HETATM   23  C2  UNL     1      26.352   4.354  49.466  1.00  0.00    -0.003 C 
HETATM   24  C1  UNL     1      27.568   4.845  48.673  1.00  0.00     0.005 C 
ENDBRANCH  22  23
ENDBRANCH   1  22
TORSDOF 7
ENDMDL
MODEL 2
REMARK VINA RESULT:      -8.1      1.366      2.461
REMARK  7 active torsions:
REMARK  status: ('A' for Active; 'I' for Inactive)
REMARK    1  A    between atoms: C2_2  and  C3_3 
REMARK    2  A    between atoms: C3_3  and  C4_4 
REMARK    3  A    between atoms: N1_5  and  C5_6 
REMARK    4  A    between atoms: N1_5  and  N2_16 
REMARK    5  A    between atoms: C5_6  and  C6_7 
REMARK    6  A    between atoms: C13_14  and  O1_15 
REMARK    7  A    between atoms: C18_21  and  O2_22 
ROOT
HETATM    1  C4  UNL     1      26.784   2.617  51.149  1.00  0.00     0.142 C 
HETATM    2  N1  UNL     1      26.385   1.659  52.023  1.00  0.00    -0.323 N 
ENDROOT
BRANCH   2   3
HETATM    3  C5  UNL     1      25.323   1.609  52.906  1.00  0.00     0.183 C 
BRANCH   3   4
HETATM    4  C6  UNL     1      24.040   1.005  52.599  1.00  0.00    -0.005 A 
HETATM    5  C7  UNL     1      23.250   1.412  51.513  1.00  0.00     0.018 A 
HETATM    6  C8  UNL     1      22.008   0.941  51.141  1.00  0.00    -0.061 A 
HETATM    7  C9  UNL     1      21.335   1.507  49.951  1.00  0.00     0.048 C 
HETATM    8  C10 UNL     1      21.494  -0.040  51.936  1.00  0.00     0.016 A 
HETATM    9  C11 UNL     1      22.177  -0.524  53.036  1.00  0.00    -0.028 A 
HETATM   10  C12 UNL     1      21.612  -1.597  53.902  1.00  0.00     0.051 C 
HETATM   11  C13 UNL     1      23.426   0.011  53.333  1.00  0.00     0.079 A 
BRANCH  11  12
HETATM   12  O1  UNL     1      24.083  -0.498  54.443  1.00  0.00    -0.360 OA
HETATM   13  H20 UNL     1      23.617  -0.485  55.335  1.00  0.00     0.217 HD
ENDBRANCH  11  12
ENDBRANCH   3   4
ENDBRANCH   2   3
BRANCH   2  14
HETATM   14  N2  UNL     1      27.439   0.982  52.613  1.00  0.00    -0.297 N 
HETATM   15  C14 UNL     1      28.323   1.752  53.388  1.00  0.00     0.172 C 
HETATM   16  C15 UNL     1      28.965   0.984  54.530  1.00  0.00    -0.009 C 
HETATM   17  C16 UNL     1      29.252  -0.325  54.456  1.00  0.00    -0.025 C 
HETATM   18  C17 UNL     1      28.839  -0.839  53.114  1.00  0.00     0.082 C 
HETATM   19  C18 UNL     1      27.367  -0.360  52.950  1.00  0.00     0.239 C 
BRANCH  19  20
HETATM   20  O2  UNL     1      26.805  -0.628  54.218  1.00  0.00    -0.375 OA
HETATM   21  H28 UNL     1      25.845  -0.862  54.124  1.00  0.00     0.212 HD
ENDBRANCH  19  20
ENDBRANCH   2  14
BRANCH   1  22
HETATM   22  C3  UNL     1      26.167   3.045  49.893  1.00  0.00     0.021 C 
BRANCH  22  23
HETATM   23  C2  UNL     1      26.223   4.464  49.444  1.00  0.00    -0.003 C 
HETATM   24  C1  UNL     1      27.529   4.775  48.704  1.00  0.00     0.005 C 
ENDBRANCH  22  23
ENDBRANCH   1  22
TORSDOF 7
ENDMDL
MODEL 3
REMARK VINA RESULT:      -7.8      1.907      6.304
REMARK  7 active torsions:
REMARK  status: ('A' for Active; 'I' for Inactive)
REMARK    1  A    between atoms: C2_2  and  C3_3 
REMARK    2  A    between atoms: C3_3  and  C4_4 
REMARK    3  A    between atoms: N1_5  and  C5_6 
REMARK    4  A    between atoms: N1_5  and  N2_16 
REMARK    5  A    between atoms: C5_6  and  C6_7 
REMARK    6  A    between atoms: C13_14  and  O1_15 
REMARK    7  A    between atoms: C18_21  and  O2_22 
ROOT
HETATM    1  C4  UNL     1      22.348   1.557  52.836  1.00  0.00     0.142 C 
HETATM    2  N1  UNL     1      23.600   1.756  52.351  1.00  0.00    -0.323 N 
ENDROOT
BRANCH   2   3
HETATM    3  C5  UNL     1      24.773   2.141  52.973  1.00  0.00     0.183 C 
BRANCH   3   4
HETATM    4  C6  UNL     1      25.943   1.290  53.094  1.00  0.00    -0.005 A 
HETATM    5  C7  UNL     1      25.956  -0.048  52.671  1.00  0.00     0.018 A 
HETATM    6  C8  UNL     1      26.988  -0.958  52.764  1.00  0.00    -0.061 A 
HETATM    7  C9  UNL     1      26.800  -2.334  52.253  1.00  0.00     0.048 C 
HETATM    8  C10 UNL     1      28.131  -0.489  53.342  1.00  0.00     0.016 A 
HETATM    9  C11 UNL     1      28.239   0.810  53.798  1.00  0.00    -0.028 A 
HETATM   10  C12 UNL     1      29.490   1.320  54.428  1.00  0.00     0.051 C 
HETATM   11  C13 UNL     1      27.145   1.659  53.662  1.00  0.00     0.079 A 
BRANCH  11  12
HETATM   12  O1  UNL     1      27.290   2.956  54.131  1.00  0.00    -0.360 OA
HETATM   13  H20 UNL     1      28.043   3.164  54.765  1.00  0.00     0.217 HD
ENDBRANCH  11  12
ENDBRANCH   3   4
ENDBRANCH   2   3
BRANCH   2  14
HETATM   14  N2  UNL     1      23.614   2.302  51.079  1.00  0.00    -0.297 N 
HETATM   15  C14 UNL     1      22.646   1.822  50.179  1.00  0.00     0.172 C 
HETATM   16  C15 UNL     1      22.213   2.843  49.143  1.00  0.00    -0.009 C 
HETATM   17  C16 UNL     1      23.039   3.782  48.656  1.00  0.00    -0.025 C 
HETATM   18  C17 UNL     1      24.381   3.629  49.296  1.00  0.00     0.082 C 
HETATM   19  C18 UNL     1      24.080   3.582  50.822  1.00  0.00     0.239 C 
BRANCH  19  20
HETATM   20  O2  UNL     1      23.126   4.610  50.988  1.00  0.00    -0.375 OA
HETATM   21  H28 UNL     1      22.511   4.634  50.209  1.00  0.00     0.212 HD
ENDBRANCH  19  20
ENDBRANCH   2  14
BRANCH   1  22
HETATM   22  C3  UNL     1      21.842   0.482  53.689  1.00  0.00     0.021 C 
BRANCH  22  23
HETATM   23  C2  UNL     1      22.494  -0.857  53.720  1.00  0.00    -0.003 C 
HETATM   24  C1  UNL     1      22.729  -1.342  55.154  1.00  0.00     0.005 C 
ENDBRANCH  22  23
ENDBRANCH   1  22
TORSDOF 7
ENDMDL
MODEL 4
REMARK VINA RESULT:      -7.8      1.607      4.543
REMARK  7 active torsions:
REMARK  status: ('A' for Active; 'I' for Inactive)
REMARK    1  A    between atoms: C2_2  and  C3_3 
REMARK    2  A    between atoms: C3_3  and  C4_4 
REMARK    3  A    between atoms: N1_5  and  C5_6 
REMARK    4  A    between atoms: N1_5  and  N2_16 
REMARK    5  A    between atoms: C5_6  and  C6_7 
REMARK    6  A    between atoms: C13_14  and  O1_15 
REMARK    7  A    between atoms: C18_21  and  O2_22 
ROOT
HETATM    1  C4  UNL     1      24.648  -0.363  52.993  1.00  0.00     0.142 C 
HETATM    2  N1  UNL     1      25.481   0.595  53.473  1.00  0.00    -0.323 N 
ENDROOT
BRANCH   2   3
HETATM    3  C5  UNL     1      25.634   1.927  53.138  1.00  0.00     0.183 C 
BRANCH   3   4
HETATM    4  C6  UNL     1      25.326   2.475  51.829  1.00  0.00    -0.005 A 
HETATM    5  C7  UNL     1      24.059   2.358  51.236  1.00  0.00     0.018 A 
HETATM    6  C8  UNL     1      23.658   2.804  49.994  1.00  0.00    -0.061 A 
HETATM    7  C9  UNL     1      22.265   2.581  49.550  1.00  0.00     0.048 C 
HETATM    8  C10 UNL     1      24.620   3.433  49.260  1.00  0.00     0.016 A 
HETATM    9  C11 UNL     1      25.906   3.608  49.737  1.00  0.00    -0.028 A 
HETATM   10  C12 UNL     1      26.955   4.297  48.932  1.00  0.00     0.051 C 
HETATM   11  C13 UNL     1      26.219   3.125  51.003  1.00  0.00     0.079 A 
BRANCH  11  12
HETATM   12  O1  UNL     1      27.518   3.319  51.449  1.00  0.00    -0.360 OA
HETATM   13  H20 UNL     1      27.666   3.700  52.368  1.00  0.00     0.217 HD
ENDBRANCH  11  12
ENDBRANCH   3   4
ENDBRANCH   2   3
BRANCH   2  14
HETATM   14  N2  UNL     1      26.733   0.114  53.814  1.00  0.00    -0.297 N 
HETATM   15  C14 UNL     1      27.075  -1.155  53.314  1.00  0.00     0.172 C 
HETATM   16  C15 UNL     1      28.562  -1.338  53.073  1.00  0.00    -0.009 C 
HETATM   17  C16 UNL     1      29.500  -0.743  53.825  1.00  0.00    -0.025 C 
HETATM   18  C17 UNL     1      28.831   0.083  54.875  1.00  0.00     0.082 C 
HETATM   19  C18 UNL     1      27.802   0.950  54.092  1.00  0.00     0.239 C 
BRANCH  19  20
HETATM   20  O2  UNL     1      28.540   1.372  52.964  1.00  0.00    -0.375 OA
HETATM   21  H28 UNL     1      27.981   1.308  52.146  1.00  0.00     0.212 HD
ENDBRANCH  19  20
ENDBRANCH   2  14
BRANCH   1  22
HETATM   22  C3  UNL     1      23.204  -0.512  53.166  1.00  0.00     0.021 C 
BRANCH  22  23
HETATM   23  C2  UNL     1      22.610  -0.833  54.493  1.00  0.00    -0.003 C 
HETATM   24  C1  UNL     1      21.167  -0.329  54.607  1.00  0.00     0.005 C 
ENDBRANCH  22  23
ENDBRANCH   1  22
TORSDOF 7
ENDMDL
MODEL 5
REMARK VINA RESULT:      -7.6      2.214      3.245
REMARK  7 active torsions:
REMARK  status: ('A' for Active; 'I' for Inactive)
REMARK    1  A    between atoms: C2_2  and  C3_3 
REMARK    2  A    between atoms: C3_3  and  C4_4 
REMARK    3  A    between atoms: N1_5  and  C5_6 
REMARK    4  A    between atoms: N1_5  and  N2_16 
REMARK    5  A    between atoms: C5_6  and  C6_7 
REMARK    6  A    between atoms: C13_14  and  O1_15 
REMARK    7  A    between atoms: C18_21  and  O2_22 
ROOT
HETATM    1  C4  UNL     1      24.811   2.539  53.367  1.00  0.00     0.142 C 
HETATM    2  N1  UNL     1      24.706   1.242  52.981  1.00  0.00    -0.323 N 
ENDROOT
BRANCH   2   3
HETATM    3  C5  UNL     1      23.739   0.286  53.232  1.00  0.00     0.183 C 
BRANCH   3   4
HETATM    4  C6  UNL     1      22.447   0.248  52.573  1.00  0.00    -0.005 A 
HETATM    5  C7  UNL     1      22.251   0.698  51.258  1.00  0.00     0.018 A 
HETATM    6  C8  UNL     1      21.074   0.743  50.542  1.00  0.00    -0.061 A 
HETATM    7  C9  UNL     1      21.079   1.258  49.154  1.00  0.00     0.048 C 
HETATM    8  C10 UNL     1      19.970   0.293  51.203  1.00  0.00     0.016 A 
HETATM    9  C11 UNL     1      20.035  -0.176  52.501  1.00  0.00    -0.028 A 
HETATM   10  C12 UNL     1      18.827  -0.668  53.221  1.00  0.00     0.051 C 
HETATM   11  C13 UNL     1      21.268  -0.184  53.146  1.00  0.00     0.079 A 
BRANCH  11  12
HETATM   12  O1  UNL     1      21.297  -0.661  54.447  1.00  0.00    -0.360 OA
HETATM   13  H20 UNL     1      20.616  -0.321  55.107  1.00  0.00     0.217 HD
ENDBRANCH  11  12
ENDBRANCH   3   4
ENDBRANCH   2   3
BRANCH   2  14
HETATM   14  N2  UNL     1      25.924   0.585  52.927  1.00  0.00    -0.297 N 
HETATM   15  C14 UNL     1      27.049   1.374  52.627  1.00  0.00     0.172 C 
HETATM   16  C15 UNL     1      28.337   0.865  53.247  1.00  0.00    -0.009 C 
HETATM   17  C16 UNL     1      28.583  -0.439  53.448  1.00  0.00    -0.025 C 
HETATM   18  C17 UNL     1      27.412  -1.234  52.971  1.00  0.00     0.082 C 
HETATM   19  C18 UNL     1      26.183  -0.566  53.653  1.00  0.00     0.239 C 
BRANCH  19  20
HETATM   20  O2  UNL     1      26.635  -0.350  54.974  1.00  0.00    -0.375 OA
HETATM   21  H28 UNL     1      27.616  -0.199  54.980  1.00  0.00     0.212 HD
ENDBRANCH  19  20
ENDBRANCH   2  14
BRANCH   1  22
HETATM   22  C3  UNL     1      24.040   3.703  52.933  1.00  0.00     0.021 C 
BRANCH  22  23
HETATM   23  C2  UNL     1      23.830   4.000  51.489  1.00  0.00    -0.003 C 
HETATM   24  C1  UNL     1      22.386   4.427  51.201  1.00  0.00     0.005 C 
ENDBRANCH  22  23
ENDBRANCH   1  22
TORSDOF 7
ENDMDL
MODEL 6
REMARK VINA RESULT:      -7.5      2.015      5.808
REMARK  7 active torsions:
REMARK  status: ('A' for Active; 'I' for Inactive)
REMARK    1  A    between atoms: C2_2  and  C3_3 
REMARK    2  A    between atoms: C3_3  and  C4_4 
REMARK    3  A    between atoms: N1_5  and  C5_6 
REMARK    4  A    between atoms: N1_5  and  N2_16 
REMARK    5  A    between atoms: C5_6  and  C6_7 
REMARK    6  A    between atoms: C13_14  and  O1_15 
REMARK    7  A    between atoms: C18_21  and  O2_22 
ROOT
HETATM    1  C4  UNL     1      23.587   2.443  51.303  1.00  0.00     0.142 C 
HETATM    2  N1  UNL     1      23.194   1.820  52.443  1.00  0.00    -0.323 N 
ENDROOT
BRANCH   2   3
HETATM    3  C5  UNL     1      23.920   1.224  53.458  1.00  0.00     0.183 C 
BRANCH   3   4
HETATM    4  C6  UNL     1      25.311   0.829  53.336  1.00  0.00    -0.005 A 
HETATM    5  C7  UNL     1      25.703  -0.465  52.962  1.00  0.00     0.018 A 
HETATM    6  C8  UNL     1      26.983  -0.965  52.845  1.00  0.00    -0.061 A 
HETATM    7  C9  UNL     1      27.187  -2.371  52.432  1.00  0.00     0.048 C 
HETATM    8  C10 UNL     1      27.983  -0.084  53.134  1.00  0.00     0.016 A 
HETATM    9  C11 UNL     1      27.723   1.219  53.515  1.00  0.00    -0.028 A 
HETATM   10  C12 UNL     1      28.818   2.180  53.828  1.00  0.00     0.051 C 
HETATM   11  C13 UNL     1      26.398   1.635  53.605  1.00  0.00     0.079 A 
BRANCH  11  12
HETATM   12  O1  UNL     1      26.174   2.948  53.989  1.00  0.00    -0.360 OA
HETATM   13  H20 UNL     1      25.898   3.139  54.938  1.00  0.00     0.217 HD
ENDBRANCH  11  12
ENDBRANCH   3   4
ENDBRANCH   2   3
BRANCH   2  14
HETATM   14  N2  UNL     1      22.025   1.094  52.297  1.00  0.00    -0.297 N 
HETATM   15  C14 UNL     1      21.872  -0.024  53.136  1.00  0.00     0.172 C 
HETATM   16  C15 UNL     1      20.426  -0.340  53.478  1.00  0.00    -0.009 C 
HETATM   17  C16 UNL     1      19.411  -0.110  52.631  1.00  0.00    -0.025 C 
HETATM   18  C17 UNL     1      19.953   0.480  51.369  1.00  0.00     0.082 C 
HETATM   19  C18 UNL     1      20.845   1.663  51.846  1.00  0.00     0.239 C 
BRANCH  19  20
HETATM   20  O2  UNL     1      20.054   2.272  52.845  1.00  0.00    -0.375 OA
HETATM   21  H28 UNL     1      19.725   3.154  52.530  1.00  0.00     0.212 HD
ENDBRANCH  19  20
ENDBRANCH   2  14
BRANCH   1  22
HETATM   22  C3  UNL     1      24.238   3.740  51.130  1.00  0.00     0.021 C 
BRANCH  22  23
HETATM   23  C2  UNL     1      25.537   3.867  50.412  1.00  0.00    -0.003 C 
HETATM   24  C1  UNL     1      26.216   2.507  50.220  1.00  0.00     0.005 C 
ENDBRANCH  22  23
ENDBRANCH   1  22
TORSDOF 7
ENDMDL
MODEL 7
REMARK VINA RESULT:      -7.5      2.280      6.520
REMARK  7 active torsions:
REMARK  status: ('A' for Active; 'I' for Inactive)
REMARK    1  A    between atoms: C2_2  and  C3_3 
REMARK    2  A    between atoms: C3_3  and  C4_4 
REMARK    3  A    between atoms: N1_5  and  C5_6 
REMARK    4  A    between atoms: N1_5  and  N2_16 
REMARK    5  A    between atoms: C5_6  and  C6_7 
REMARK    6  A    between atoms: C13_14  and  O1_15 
REMARK    7  A    between atoms: C18_21  and  O2_22 
ROOT
HETATM    1  C4  UNL     1      23.960   0.567  53.603  1.00  0.00     0.142 C 
HETATM    2  N1  UNL     1      24.396   0.981  52.387  1.00  0.00    -0.323 N 
ENDROOT
BRANCH   2   3
HETATM    3  C5  UNL     1      25.656   0.984  51.817  1.00  0.00     0.183 C 
BRANCH   3   4
HETATM    4  C6  UNL     1      26.858   0.551  52.505  1.00  0.00    -0.005 A 
HETATM    5  C7  UNL     1      27.726   1.444  53.153  1.00  0.00     0.018 A 
HETATM    6  C8  UNL     1      28.906   1.159  53.806  1.00  0.00    -0.061 A 
HETATM    7  C9  UNL     1      29.682   2.253  54.431  1.00  0.00     0.048 C 
HETATM    8  C10 UNL     1      29.265  -0.157  53.817  1.00  0.00     0.016 A 
HETATM    9  C11 UNL     1      28.493  -1.131  53.213  1.00  0.00    -0.028 A 
HETATM   10  C12 UNL     1      28.887  -2.568  53.227  1.00  0.00     0.051 C 
HETATM   11  C13 UNL     1      27.316  -0.749  52.577  1.00  0.00     0.079 A 
BRANCH  11  12
HETATM   12  O1  UNL     1      26.566  -1.752  51.982  1.00  0.00    -0.360 OA
HETATM   13  H20 UNL     1      26.570  -2.672  52.391  1.00  0.00     0.217 HD
ENDBRANCH  11  12
ENDBRANCH   3   4
ENDBRANCH   2   3
BRANCH   2  14
HETATM   14  N2  UNL     1      23.735   2.104  51.919  1.00  0.00    -0.297 N 
HETATM   15  C14 UNL     1      22.339   2.125  52.089  1.00  0.00     0.172 C 
HETATM   16  C15 UNL     1      21.764   3.520  52.255  1.00  0.00    -0.009 C 
HETATM   17  C16 UNL     1      22.290   4.601  51.657  1.00  0.00    -0.025 C 
HETATM   18  C17 UNL     1      23.476   4.182  50.850  1.00  0.00     0.082 C 
HETATM   19  C18 UNL     1      24.342   3.346  51.837  1.00  0.00     0.239 C 
BRANCH  19  20
HETATM   20  O2  UNL     1      24.297   4.113  53.023  1.00  0.00    -0.375 OA
HETATM   21  H28 UNL     1      24.138   3.523  53.806  1.00  0.00     0.212 HD
ENDBRANCH  19  20
ENDBRANCH   2  14
BRANCH   1  22
HETATM   22  C3  UNL     1      23.823  -0.790  54.129  1.00  0.00     0.021 C 
BRANCH  22  23
HETATM   23  C2  UNL     1      22.651  -1.187  54.959  1.00  0.00    -0.003 C 
HETATM   24  C1  UNL     1      21.434  -0.297  54.685  1.00  0.00     0.005 C 
ENDBRANCH  22  23
ENDBRANCH   1  22
TORSDOF 7
ENDMDL
MODEL 8
REMARK VINA RESULT:      -7.4      6.887      9.031
REMARK  7 active torsions:
REMARK  status: ('A' for Active; 'I' for Inactive)
REMARK    1  A    between atoms: C2_2  and  C3_3 
REMARK    2  A    between atoms: C3_3  and  C4_4 
REMARK    3  A    between atoms: N1_5  and  C5_6 
REMARK    4  A    between atoms: N1_5  and  N2_16 
REMARK    5  A    between atoms: C5_6  and  C6_7 
REMARK    6  A    between atoms: C13_14  and  O1_15 
REMARK    7  A    between atoms: C18_21  and  O2_22 
ROOT
HETATM    1  C4  UNL     1      32.063   6.791  49.316  1.00  0.00     0.142 C 
HETATM    2  N1  UNL     1      31.682   6.059  48.237  1.00  0.00    -0.323 N 
ENDROOT
BRANCH   2   3
HETATM    3  C5  UNL     1      30.484   5.447  47.923  1.00  0.00     0.183 C 
BRANCH   3   4
HETATM    4  C6  UNL     1      29.222   6.152  47.795  1.00  0.00    -0.005 A 
HETATM    5  C7  UNL     1      29.060   7.276  46.971  1.00  0.00     0.018 A 
HETATM    6  C8  UNL     1      27.928   8.044  46.793  1.00  0.00    -0.061 A 
HETATM    7  C9  UNL     1      27.963   9.199  45.869  1.00  0.00     0.048 C 
HETATM    8  C10 UNL     1      26.839   7.655  47.515  1.00  0.00     0.016 A 
HETATM    9  C11 UNL     1      26.875   6.564  48.362  1.00  0.00    -0.028 A 
HETATM   10  C12 UNL     1      25.682   6.140  49.149  1.00  0.00     0.051 C 
HETATM   11  C13 UNL     1      28.061   5.847  48.477  1.00  0.00     0.079 A 
BRANCH  11  12
HETATM   12  O1  UNL     1      28.061   4.758  49.335  1.00  0.00    -0.360 OA
HETATM   13  H20 UNL     1      28.109   3.831  48.947  1.00  0.00     0.217 HD
ENDBRANCH  11  12
ENDBRANCH   3   4
ENDBRANCH   2   3
BRANCH   2  14
HETATM   14  N2  UNL     1      32.694   5.261  47.731  1.00  0.00    -0.297 N 
HETATM   15  C14 UNL     1      34.010   5.649  48.036  1.00  0.00     0.172 C 
HETATM   16  C15 UNL     1      34.986   4.488  48.121  1.00  0.00    -0.009 C 
HETATM   17  C16 UNL     1      34.869   3.382  47.370  1.00  0.00    -0.025 C 
HETATM   18  C17 UNL     1      33.665   3.514  46.494  1.00  0.00     0.082 C 
HETATM   19  C18 UNL     1      32.518   3.913  47.467  1.00  0.00     0.239 C 
BRANCH  19  20
HETATM   20  O2  UNL     1      32.726   3.055  48.570  1.00  0.00    -0.375 OA
HETATM   21  H28 UNL     1      32.420   2.137  48.351  1.00  0.00     0.212 HD
ENDBRANCH  19  20
ENDBRANCH   2  14
BRANCH   1  22
HETATM   22  C3  UNL     1      31.666   8.142  49.710  1.00  0.00     0.021 C 
BRANCH  22  23
HETATM   23  C2  UNL     1      31.411   9.202  48.696  1.00  0.00    -0.003 C 
HETATM   24  C1  UNL     1      30.244  10.109  49.103  1.00  0.00     0.005 C 
ENDBRANCH  22  23
ENDBRANCH   1  22
TORSDOF 7
ENDMDL
MODEL 9
REMARK VINA RESULT:      -7.3      2.640      5.540
REMARK  7 active torsions:
REMARK  status: ('A' for Active; 'I' for Inactive)
REMARK    1  A    between atoms: C2_2  and  C3_3 
REMARK    2  A    between atoms: C3_3  and  C4_4 
REMARK    3  A    between atoms: N1_5  and  C5_6 
REMARK    4  A    between atoms: N1_5  and  N2_16 
REMARK    5  A    between atoms: C5_6  and  C6_7 
REMARK    6  A    between atoms: C13_14  and  O1_15 
REMARK    7  A    between atoms: C18_21  and  O2_22 
ROOT
HETATM    1  C4  UNL     1      25.107   3.395  50.109  1.00  0.00     0.142 C 
HETATM    2  N1  UNL     1      24.326   3.919  51.088  1.00  0.00    -0.323 N 
ENDROOT
BRANCH   2   3
HETATM    3  C5  UNL     1      24.127   3.540  52.402  1.00  0.00     0.183 C 
BRANCH   3   4
HETATM    4  C6  UNL     1      24.419   2.215  52.918  1.00  0.00    -0.005 A 
HETATM    5  C7  UNL     1      23.506   1.153  52.843  1.00  0.00     0.018 A 
HETATM    6  C8  UNL     1      23.654  -0.131  53.323  1.00  0.00    -0.061 A 
HETATM    7  C9  UNL     1      22.562  -1.113  53.141  1.00  0.00     0.048 C 
HETATM    8  C10 UNL     1      24.840  -0.389  53.946  1.00  0.00     0.016 A 
HETATM    9  C11 UNL     1      25.819   0.576  54.082  1.00  0.00    -0.028 A 
HETATM   10  C12 UNL     1      27.114   0.292  54.763  1.00  0.00     0.051 C 
HETATM   11  C13 UNL     1      25.580   1.846  53.566  1.00  0.00     0.079 A 
BRANCH  11  12
HETATM   12  O1  UNL     1      26.585   2.789  53.719  1.00  0.00    -0.360 OA
HETATM   13  H20 UNL     1      27.513   2.479  53.957  1.00  0.00     0.217 HD
ENDBRANCH  11  12
ENDBRANCH   3   4
ENDBRANCH   2   3
BRANCH   2  14
HETATM   14  N2  UNL     1      23.122   4.418  50.621  1.00  0.00    -0.297 N 
HETATM   15  C14 UNL     1      22.025   3.538  50.648  1.00  0.00     0.172 C 
HETATM   16  C15 UNL     1      20.688   4.232  50.835  1.00  0.00    -0.009 C 
HETATM   17  C16 UNL     1      20.432   5.460  50.357  1.00  0.00    -0.025 C 
HETATM   18  C17 UNL     1      21.646   5.972  49.653  1.00  0.00     0.082 C 
HETATM   19  C18 UNL     1      22.803   5.765  50.674  1.00  0.00     0.239 C 
BRANCH  19  20
HETATM   20  O2  UNL     1      22.231   6.197  51.891  1.00  0.00    -0.375 OA
HETATM   21  H28 UNL     1      22.944   6.408  52.549  1.00  0.00     0.212 HD
ENDBRANCH  19  20
ENDBRANCH   2  14
BRANCH   1  22
HETATM   22  C3  UNL     1      26.562   3.414  49.971  1.00  0.00     0.021 C 
BRANCH  22  23
HETATM   23  C2  UNL     1      27.241   4.342  49.024  1.00  0.00    -0.003 C 
HETATM   24  C1  UNL     1      26.478   5.663  48.878  1.00  0.00     0.005 C 
ENDBRANCH  22  23
ENDBRANCH   1  22
TORSDOF 7
ENDMDL
