MODEL 1
REMARK VINA RESULT:      -9.0      0.000      0.000
REMARK  3 active torsions:
REMARK  status: ('A' for Active; 'I' for Inactive)
REMARK    1  A    between atoms: O1_2  and  C2_3 
REMARK    2  A    between atoms: C5_6  and  N1_7 
REMARK    3  A    between atoms: N1_7  and  C6_8 
ROOT
HETATM    1  C6  UNL     1      24.537   3.598  50.363  1.00  0.00     0.134 C 
HETATM    2  C7  UNL     1      25.738   2.827  50.940  1.00  0.00     0.019 C 
HETATM    3  C8  UNL     1      26.826   2.146  51.380  1.00  0.00     0.111 C 
HETATM    4  N2  UNL     1      27.423   1.575  52.586  1.00  0.00    -0.270 N 
HETATM    5  N3  UNL     1      28.501   2.371  52.998  1.00  0.00    -0.165 NA
HETATM    6  C9  UNL     1      29.012   1.981  54.156  1.00  0.00     0.254 A 
HETATM    7  N4  UNL     1      28.521   0.866  54.885  1.00  0.00    -0.254 NA
HETATM    8  C10 UNL     1      27.525   0.129  54.445  1.00  0.00     0.118 A 
HETATM    9  C11 UNL     1      26.858   0.374  53.197  1.00  0.00     0.150 A 
HETATM   10  C12 UNL     1      25.369   0.433  53.134  1.00  0.00     0.033 C 
HETATM   11  C13 UNL     1      24.597  -0.537  53.928  1.00  0.00     0.002 C 
HETATM   12  C14 UNL     1      23.153  -0.620  53.611  1.00  0.00     0.002 C 
HETATM   13  C15 UNL     1      22.242   0.525  53.521  1.00  0.00     0.030 C 
HETATM   14  C16 UNL     1      22.249   1.377  52.300  1.00  0.00     0.269 C 
HETATM   15  N5  UNL     1      23.329   2.201  51.978  1.00  0.00     0.085 N 
HETATM   16  C17 UNL     1      23.346   2.684  50.612  1.00  0.00     0.298 C 
HETATM   17  H23 UNL     1      23.549   2.955  52.665  1.00  0.00     0.315 HD
ENDROOT
BRANCH   1  18
HETATM   18  N1  UNL     1      24.421   4.849  51.026  1.00  0.00    -0.380 N 
HETATM   19  H6  UNL     1      23.959   4.946  51.949  1.00  0.00     0.160 HD
BRANCH  18  20
HETATM   20  C5  UNL     1      24.962   6.028  50.395  1.00  0.00     0.030 A 
HETATM   21  C4  UNL     1      24.513   7.333  50.649  1.00  0.00     0.032 A 
HETATM   22  C3  UNL     1      25.105   8.400  50.021  1.00  0.00     0.040 A 
HETATM   23  C2  UNL     1      26.142   8.210  49.140  1.00  0.00     0.090 A 
HETATM   24  C19 UNL     1      26.628   6.958  48.849  1.00  0.00     0.069 A 
HETATM   25  C18 UNL     1      26.021   5.886  49.490  1.00  0.00     0.056 A 
HETATM   26 CL1  UNL     1      27.942   6.793  47.720  1.00  0.00    -0.081 Cl
BRANCH  23  27
HETATM   27  O1  UNL     1      26.697   9.347  48.535  1.00  0.00    -0.354 OA
HETATM   28  C1  UNL     1      27.624  10.166  49.161  1.00  0.00     0.210 C 
ENDBRANCH  23  27
ENDBRANCH  18  20
ENDBRANCH   1  18
TORSDOF 3
ENDMDL
MODEL 2
REMARK VINA RESULT:      -8.8      3.917      8.315
REMARK  3 active torsions:
REMARK  status: ('A' for Active; 'I' for Inactive)
REMARK    1  A    between atoms: O1_2  and  C2_3 
REMARK    2  A    between atoms: C5_6  and  N1_7 
REMARK    3  A    between atoms: N1_7  and  C6_8 
ROOT
HETATM    1  C6  UNL     1      25.623   2.976  50.212  1.00  0.00     0.134 C 
HETATM    2  C7  UNL     1      24.457   3.913  49.850  1.00  0.00     0.019 C 
HETATM    3  C8  UNL     1      23.390   4.679  49.508  1.00  0.00     0.111 C 
HETATM    4  N2  UNL     1      22.923   6.064  49.482  1.00  0.00    -0.270 N 
HETATM    5  N3  UNL     1      21.976   6.259  50.497  1.00  0.00    -0.165 NA
HETATM    6  C9  UNL     1      21.600   7.523  50.612  1.00  0.00     0.254 A 
HETATM    7  N4  UNL     1      22.099   8.559  49.779  1.00  0.00    -0.254 NA
HETATM    8  C10 UNL     1      22.965   8.325  48.819  1.00  0.00     0.118 A 
HETATM    9  C11 UNL     1      23.473   7.016  48.519  1.00  0.00     0.150 A 
HETATM   10  C12 UNL     1      24.938   6.787  48.370  1.00  0.00     0.033 C 
HETATM   11  C13 UNL     1      25.736   7.802  47.661  1.00  0.00     0.002 C 
HETATM   12  C14 UNL     1      27.111   7.396  47.296  1.00  0.00     0.002 C 
HETATM   13  C15 UNL     1      28.087   6.799  48.213  1.00  0.00     0.030 C 
HETATM   14  C16 UNL     1      27.978   5.357  48.568  1.00  0.00     0.269 C 
HETATM   15  N5  UNL     1      26.930   4.863  49.347  1.00  0.00     0.085 N 
HETATM   16  C17 UNL     1      26.763   3.425  49.309  1.00  0.00     0.298 C 
HETATM   17  H23 UNL     1      26.865   5.242  50.317  1.00  0.00     0.315 HD
ENDROOT
BRANCH   1  18
HETATM   18  N1  UNL     1      25.925   3.115  51.593  1.00  0.00    -0.380 N 
HETATM   19  H6  UNL     1      25.607   3.929  52.150  1.00  0.00     0.160 HD
BRANCH  18  20
HETATM   20  C5  UNL     1      26.701   2.089  52.246  1.00  0.00     0.030 A 
HETATM   21  C4  UNL     1      27.742   2.346  53.152  1.00  0.00     0.032 A 
HETATM   22  C3  UNL     1      28.411   1.306  53.746  1.00  0.00     0.040 A 
HETATM   23  C2  UNL     1      28.075   0.004  53.467  1.00  0.00     0.090 A 
HETATM   24  C19 UNL     1      27.066  -0.314  52.591  1.00  0.00     0.069 A 
HETATM   25  C18 UNL     1      26.396   0.746  51.995  1.00  0.00     0.056 A 
HETATM   26 CL1  UNL     1      26.698  -1.987  52.284  1.00  0.00    -0.081 Cl
BRANCH  23  27
HETATM   27  O1  UNL     1      28.803  -1.006  54.112  1.00  0.00    -0.354 OA
HETATM   28  C1  UNL     1      30.093  -1.365  53.751  1.00  0.00     0.210 C 
ENDBRANCH  23  27
ENDBRANCH  18  20
ENDBRANCH   1  18
TORSDOF 3
ENDMDL
MODEL 3
REMARK VINA RESULT:      -8.5      1.511      1.518
REMARK  3 active torsions:
REMARK  status: ('A' for Active; 'I' for Inactive)
REMARK    1  A    between atoms: O1_2  and  C2_3 
REMARK    2  A    between atoms: C5_6  and  N1_7 
REMARK    3  A    between atoms: N1_7  and  C6_8 
ROOT
HETATM    1  C6  UNL     1      24.441   3.559  50.586  1.00  0.00     0.134 C 
HETATM    2  C7  UNL     1      25.685   2.818  51.108  1.00  0.00     0.019 C 
HETATM    3  C8  UNL     1      26.809   2.165  51.498  1.00  0.00     0.111 C 
HETATM    4  N2  UNL     1      27.466   1.595  52.673  1.00  0.00    -0.270 N 
HETATM    5  N3  UNL     1      28.533   2.418  53.061  1.00  0.00    -0.165 NA
HETATM    6  C9  UNL     1      29.096   2.028  54.193  1.00  0.00     0.254 A 
HETATM    7  N4  UNL     1      28.667   0.886  54.920  1.00  0.00    -0.254 NA
HETATM    8  C10 UNL     1      27.680   0.124  54.502  1.00  0.00     0.118 A 
HETATM    9  C11 UNL     1      26.961   0.366  53.283  1.00  0.00     0.150 A 
HETATM   10  C12 UNL     1      25.470   0.379  53.273  1.00  0.00     0.033 C 
HETATM   11  C13 UNL     1      24.758  -0.629  54.077  1.00  0.00     0.002 C 
HETATM   12  C14 UNL     1      23.307  -0.753  53.809  1.00  0.00     0.002 C 
HETATM   13  C15 UNL     1      22.358   0.363  53.770  1.00  0.00     0.030 C 
HETATM   14  C16 UNL     1      22.294   1.234  52.564  1.00  0.00     0.269 C 
HETATM   15  N5  UNL     1      23.336   2.098  52.219  1.00  0.00     0.085 N 
HETATM   16  C17 UNL     1      23.289   2.602  50.862  1.00  0.00     0.298 C 
HETATM   17  H23 UNL     1      23.556   2.847  52.910  1.00  0.00     0.315 HD
ENDROOT
BRANCH   1  18
HETATM   18  N1  UNL     1      24.308   4.795  51.274  1.00  0.00    -0.380 N 
HETATM   19  H6  UNL     1      24.289   4.853  52.309  1.00  0.00     0.160 HD
BRANCH  18  20
HETATM   20  C5  UNL     1      24.196   6.012  50.509  1.00  0.00     0.030 A 
HETATM   21  C4  UNL     1      24.430   7.294  51.030  1.00  0.00     0.032 A 
HETATM   22  C3  UNL     1      24.325   8.397  50.221  1.00  0.00     0.040 A 
HETATM   23  C2  UNL     1      23.992   8.266  48.895  1.00  0.00     0.090 A 
HETATM   24  C19 UNL     1      23.751   7.040  48.324  1.00  0.00     0.069 A 
HETATM   25  C18 UNL     1      23.860   5.931  49.152  1.00  0.00     0.056 A 
HETATM   26 CL1  UNL     1      23.330   6.952  46.637  1.00  0.00    -0.081 Cl
BRANCH  23  27
HETATM   27  O1  UNL     1      23.902   9.438  48.130  1.00  0.00    -0.354 OA
HETATM   28  C1  UNL     1      25.007  10.092  47.605  1.00  0.00     0.210 C 
ENDBRANCH  23  27
ENDBRANCH  18  20
ENDBRANCH   1  18
TORSDOF 3
ENDMDL
MODEL 4
REMARK VINA RESULT:      -8.5      3.647      7.418
REMARK  3 active torsions:
REMARK  status: ('A' for Active; 'I' for Inactive)
REMARK    1  A    between atoms: O1_2  and  C2_3 
REMARK    2  A    between atoms: C5_6  and  N1_7 
REMARK    3  A    between atoms: N1_7  and  C6_8 
ROOT
HETATM    1  C6  UNL     1      26.116   3.478  49.908  1.00  0.00     0.134 C 
HETATM    2  C7  UNL     1      24.636   3.072  50.035  1.00  0.00     0.019 C 
HETATM    3  C8  UNL     1      23.342   2.667  50.090  1.00  0.00     0.111 C 
HETATM    4  N2  UNL     1      22.099   2.867  50.832  1.00  0.00    -0.270 N 
HETATM    5  N3  UNL     1      21.854   1.752  51.646  1.00  0.00    -0.165 NA
HETATM    6  C9  UNL     1      20.808   1.917  52.440  1.00  0.00     0.254 A 
HETATM    7  N4  UNL     1      20.017   3.096  52.447  1.00  0.00    -0.254 NA
HETATM    8  C10 UNL     1      20.267   4.107  51.644  1.00  0.00     0.118 A 
HETATM    9  C11 UNL     1      21.340   4.108  50.691  1.00  0.00     0.150 A 
HETATM   10  C12 UNL     1      22.280   5.263  50.610  1.00  0.00     0.033 C 
HETATM   11  C13 UNL     1      21.729   6.623  50.737  1.00  0.00     0.002 C 
HETATM   12  C14 UNL     1      22.647   7.723  50.368  1.00  0.00     0.002 C 
HETATM   13  C15 UNL     1      24.019   7.880  50.862  1.00  0.00     0.030 C 
HETATM   14  C16 UNL     1      25.111   7.053  50.280  1.00  0.00     0.269 C 
HETATM   15  N5  UNL     1      25.185   5.673  50.487  1.00  0.00     0.085 N 
HETATM   16  C17 UNL     1      26.072   4.966  49.587  1.00  0.00     0.298 C 
HETATM   17  H23 UNL     1      25.301   5.366  51.478  1.00  0.00     0.315 HD
ENDROOT
BRANCH   1  18
HETATM   18  N1  UNL     1      26.787   3.196  51.128  1.00  0.00    -0.380 N 
HETATM   19  H6  UNL     1      27.636   3.711  51.424  1.00  0.00     0.160 HD
BRANCH  18  20
HETATM   20  C5  UNL     1      26.270   2.159  51.986  1.00  0.00     0.030 A 
HETATM   21  C4  UNL     1      25.339   2.377  53.013  1.00  0.00     0.032 A 
HETATM   22  C3  UNL     1      24.884   1.324  53.765  1.00  0.00     0.040 A 
HETATM   23  C2  UNL     1      25.328   0.046  53.528  1.00  0.00     0.090 A 
HETATM   24  C19 UNL     1      26.238  -0.234  52.537  1.00  0.00     0.069 A 
HETATM   25  C18 UNL     1      26.693   0.839  51.783  1.00  0.00     0.056 A 
HETATM   26 CL1  UNL     1      26.759  -1.877  52.296  1.00  0.00    -0.081 Cl
BRANCH  23  27
HETATM   27  O1  UNL     1      24.819  -0.979  54.337  1.00  0.00    -0.354 OA
HETATM   28  C1  UNL     1      25.010  -1.033  55.709  1.00  0.00     0.210 C 
ENDBRANCH  23  27
ENDBRANCH  18  20
ENDBRANCH   1  18
TORSDOF 3
ENDMDL
MODEL 5
REMARK VINA RESULT:      -8.3      2.497      5.191
REMARK  3 active torsions:
REMARK  status: ('A' for Active; 'I' for Inactive)
REMARK    1  A    between atoms: O1_2  and  C2_3 
REMARK    2  A    between atoms: C5_6  and  N1_7 
REMARK    3  A    between atoms: N1_7  and  C6_8 
ROOT
HETATM    1  C6  UNL     1      23.457   3.847  51.773  1.00  0.00     0.134 C 
HETATM    2  C7  UNL     1      22.061   3.290  52.110  1.00  0.00     0.019 C 
HETATM    3  C8  UNL     1      20.812   2.868  52.431  1.00  0.00     0.111 C 
HETATM    4  N2  UNL     1      19.954   1.685  52.423  1.00  0.00    -0.270 N 
HETATM    5  N3  UNL     1      19.002   1.802  51.401  1.00  0.00    -0.165 NA
HETATM    6  C9  UNL     1      18.269   0.709  51.255  1.00  0.00     0.254 A 
HETATM    7  N4  UNL     1      18.429  -0.446  52.064  1.00  0.00    -0.254 NA
HETATM    8  C10 UNL     1      19.317  -0.501  53.032  1.00  0.00     0.118 A 
HETATM    9  C11 UNL     1      20.187   0.592  53.365  1.00  0.00     0.150 A 
HETATM   10  C12 UNL     1      21.653   0.371  53.523  1.00  0.00     0.033 C 
HETATM   11  C13 UNL     1      22.106  -0.850  54.210  1.00  0.00     0.002 C 
HETATM   12  C14 UNL     1      23.537  -0.879  54.588  1.00  0.00     0.002 C 
HETATM   13  C15 UNL     1      24.654  -0.579  53.688  1.00  0.00     0.030 C 
HETATM   14  C16 UNL     1      24.983   0.837  53.367  1.00  0.00     0.269 C 
HETATM   15  N5  UNL     1      24.136   1.637  52.597  1.00  0.00     0.085 N 
HETATM   16  C17 UNL     1      24.403   3.059  52.669  1.00  0.00     0.298 C 
HETATM   17  H23 UNL     1      23.970   1.317  51.618  1.00  0.00     0.315 HD
ENDROOT
BRANCH   1  18
HETATM   18  N1  UNL     1      23.717   3.654  50.390  1.00  0.00    -0.380 N 
HETATM   19  H6  UNL     1      23.094   3.091  49.783  1.00  0.00     0.160 HD
BRANCH  18  20
HETATM   20  C5  UNL     1      24.888   4.262  49.808  1.00  0.00     0.030 A 
HETATM   21  C4  UNL     1      26.119   3.606  49.647  1.00  0.00     0.032 A 
HETATM   22  C3  UNL     1      27.174   4.256  49.058  1.00  0.00     0.040 A 
HETATM   23  C2  UNL     1      27.045   5.551  48.618  1.00  0.00     0.090 A 
HETATM   24  C19 UNL     1      25.867   6.247  48.746  1.00  0.00     0.069 A 
HETATM   25  C18 UNL     1      24.807   5.581  49.344  1.00  0.00     0.056 A 
HETATM   26 CL1  UNL     1      25.779   7.887  48.168  1.00  0.00    -0.081 Cl
BRANCH  23  27
HETATM   27  O1  UNL     1      28.166   6.150  48.027  1.00  0.00    -0.354 OA
HETATM   28  C1  UNL     1      29.453   5.649  48.153  1.00  0.00     0.210 C 
ENDBRANCH  23  27
ENDBRANCH  18  20
ENDBRANCH   1  18
TORSDOF 3
ENDMDL
MODEL 6
REMARK VINA RESULT:      -8.2      3.763      8.343
REMARK  3 active torsions:
REMARK  status: ('A' for Active; 'I' for Inactive)
REMARK    1  A    between atoms: O1_2  and  C2_3 
REMARK    2  A    between atoms: C5_6  and  N1_7 
REMARK    3  A    between atoms: N1_7  and  C6_8 
ROOT
HETATM    1  C6  UNL     1      26.386   3.183  49.865  1.00  0.00     0.134 C 
HETATM    2  C7  UNL     1      25.015   3.833  49.605  1.00  0.00     0.019 C 
HETATM    3  C8  UNL     1      23.782   4.340  49.351  1.00  0.00     0.111 C 
HETATM    4  N2  UNL     1      23.003   5.575  49.422  1.00  0.00    -0.270 N 
HETATM    5  N3  UNL     1      22.093   5.496  50.485  1.00  0.00    -0.165 NA
HETATM    6  C9  UNL     1      21.439   6.630  50.685  1.00  0.00     0.254 A 
HETATM    7  N4  UNL     1      21.636   7.790  49.891  1.00  0.00    -0.254 NA
HETATM    8  C10 UNL     1      22.480   7.809  48.883  1.00  0.00     0.118 A 
HETATM    9  C11 UNL     1      23.262   6.671  48.490  1.00  0.00     0.150 A 
HETATM   10  C12 UNL     1      24.730   6.802  48.267  1.00  0.00     0.033 C 
HETATM   11  C13 UNL     1      25.229   8.006  47.582  1.00  0.00     0.002 C 
HETATM   12  C14 UNL     1      26.639   7.953  47.137  1.00  0.00     0.002 C 
HETATM   13  C15 UNL     1      27.776   7.564  47.978  1.00  0.00     0.030 C 
HETATM   14  C16 UNL     1      28.027   6.123  48.256  1.00  0.00     0.269 C 
HETATM   15  N5  UNL     1      27.167   5.362  49.051  1.00  0.00     0.085 N 
HETATM   16  C17 UNL     1      27.339   3.928  48.941  1.00  0.00     0.298 C 
HETATM   17  H23 UNL     1      27.067   5.671  50.043  1.00  0.00     0.315 HD
ENDROOT
BRANCH   1  18
HETATM   18  N1  UNL     1      26.721   3.329  51.237  1.00  0.00    -0.380 N 
HETATM   19  H6  UNL     1      27.158   4.191  51.612  1.00  0.00     0.160 HD
BRANCH  18  20
HETATM   20  C5  UNL     1      26.446   2.242  52.145  1.00  0.00     0.030 A 
HETATM   21  C4  UNL     1      25.220   1.561  52.209  1.00  0.00     0.032 A 
HETATM   22  C3  UNL     1      25.055   0.521  53.087  1.00  0.00     0.040 A 
HETATM   23  C2  UNL     1      26.080   0.129  53.913  1.00  0.00     0.090 A 
HETATM   24  C19 UNL     1      27.304   0.753  53.899  1.00  0.00     0.069 A 
HETATM   25  C18 UNL     1      27.459   1.805  53.007  1.00  0.00     0.056 A 
HETATM   26 CL1  UNL     1      28.555   0.205  54.977  1.00  0.00    -0.081 Cl
BRANCH  23  27
HETATM   27  O1  UNL     1      25.838  -0.942  54.785  1.00  0.00    -0.354 OA
HETATM   28  C1  UNL     1      24.588  -1.225  55.318  1.00  0.00     0.210 C 
ENDBRANCH  23  27
ENDBRANCH  18  20
ENDBRANCH   1  18
TORSDOF 3
ENDMDL
MODEL 7
REMARK VINA RESULT:      -8.2      1.995      2.813
REMARK  3 active torsions:
REMARK  status: ('A' for Active; 'I' for Inactive)
REMARK    1  A    between atoms: O1_2  and  C2_3 
REMARK    2  A    between atoms: C5_6  and  N1_7 
REMARK    3  A    between atoms: N1_7  and  C6_8 
ROOT
HETATM    1  C6  UNL     1      25.522   4.967  49.149  1.00  0.00     0.134 C 
HETATM    2  C7  UNL     1      26.132   3.812  49.964  1.00  0.00     0.019 C 
HETATM    3  C8  UNL     1      26.703   2.770  50.619  1.00  0.00     0.111 C 
HETATM    4  N2  UNL     1      26.808   2.153  51.940  1.00  0.00    -0.270 N 
HETATM    5  N3  UNL     1      28.078   2.406  52.477  1.00  0.00    -0.165 NA
HETATM    6  C9  UNL     1      28.201   1.983  53.725  1.00  0.00     0.254 A 
HETATM    7  N4  UNL     1      27.156   1.329  54.429  1.00  0.00    -0.254 NA
HETATM    8  C10 UNL     1      25.989   1.085  53.875  1.00  0.00     0.118 A 
HETATM    9  C11 UNL     1      25.670   1.443  52.521  1.00  0.00     0.150 A 
HETATM   10  C12 UNL     1      24.410   2.175  52.208  1.00  0.00     0.033 C 
HETATM   11  C13 UNL     1      23.181   1.787  52.920  1.00  0.00     0.002 C 
HETATM   12  C14 UNL     1      21.922   2.341  52.374  1.00  0.00     0.002 C 
HETATM   13  C15 UNL     1      21.685   3.754  52.063  1.00  0.00     0.030 C 
HETATM   14  C16 UNL     1      22.241   4.336  50.811  1.00  0.00     0.269 C 
HETATM   15  N5  UNL     1      23.613   4.515  50.623  1.00  0.00     0.085 N 
HETATM   16  C17 UNL     1      24.019   4.749  49.252  1.00  0.00     0.298 C 
HETATM   17  H23 UNL     1      24.084   5.165  51.290  1.00  0.00     0.315 HD
ENDROOT
BRANCH   1  18
HETATM   18  N1  UNL     1      25.940   6.205  49.705  1.00  0.00    -0.380 N 
HETATM   19  H6  UNL     1      25.502   6.606  50.556  1.00  0.00     0.160 HD
BRANCH  18  20
HETATM   20  C5  UNL     1      27.010   6.933  49.068  1.00  0.00     0.030 A 
HETATM   21  C4  UNL     1      27.915   6.366  48.158  1.00  0.00     0.032 A 
HETATM   22  C3  UNL     1      28.888   7.142  47.580  1.00  0.00     0.040 A 
HETATM   23  C2  UNL     1      28.993   8.478  47.881  1.00  0.00     0.090 A 
HETATM   24  C19 UNL     1      28.138   9.093  48.763  1.00  0.00     0.069 A 
HETATM   25  C18 UNL     1      27.157   8.299  49.342  1.00  0.00     0.056 A 
HETATM   26 CL1  UNL     1      28.332  10.789  49.098  1.00  0.00    -0.081 Cl
BRANCH  23  27
HETATM   27  O1  UNL     1      30.012   9.207  47.253  1.00  0.00    -0.354 OA
HETATM   28  C1  UNL     1      31.321   9.237  47.711  1.00  0.00     0.210 C 
ENDBRANCH  23  27
ENDBRANCH  18  20
ENDBRANCH   1  18
TORSDOF 3
ENDMDL
MODEL 8
REMARK VINA RESULT:      -7.9      3.575      7.308
REMARK  3 active torsions:
REMARK  status: ('A' for Active; 'I' for Inactive)
REMARK    1  A    between atoms: O1_2  and  C2_3 
REMARK    2  A    between atoms: C5_6  and  N1_7 
REMARK    3  A    between atoms: N1_7  and  C6_8 
ROOT
HETATM    1  C6  UNL     1      23.229   1.861  52.578  1.00  0.00     0.134 C 
HETATM    2  C7  UNL     1      23.172   3.397  52.494  1.00  0.00     0.019 C 
HETATM    3  C8  UNL     1      23.133   4.754  52.494  1.00  0.00     0.111 C 
HETATM    4  N2  UNL     1      22.970   5.906  51.609  1.00  0.00    -0.270 N 
HETATM    5  N3  UNL     1      24.208   6.540  51.432  1.00  0.00    -0.165 NA
HETATM    6  C9  UNL     1      24.159   7.519  50.542  1.00  0.00     0.254 A 
HETATM    7  N4  UNL     1      22.971   7.888  49.859  1.00  0.00    -0.254 NA
HETATM    8  C10 UNL     1      21.825   7.284  50.078  1.00  0.00     0.118 A 
HETATM    9  C11 UNL     1      21.667   6.216  51.026  1.00  0.00     0.150 A 
HETATM   10  C12 UNL     1      20.979   4.952  50.635  1.00  0.00     0.033 C 
HETATM   11  C13 UNL     1      19.779   5.043  49.786  1.00  0.00     0.002 C 
HETATM   12  C14 UNL     1      18.983   3.801  49.667  1.00  0.00     0.002 C 
HETATM   13  C15 UNL     1      19.523   2.481  49.327  1.00  0.00     0.030 C 
HETATM   14  C16 UNL     1      20.228   1.683  50.367  1.00  0.00     0.269 C 
HETATM   15  N5  UNL     1      21.469   2.067  50.881  1.00  0.00     0.085 N 
HETATM   16  C17 UNL     1      21.853   1.406  52.112  1.00  0.00     0.298 C 
HETATM   17  H23 UNL     1      22.254   2.111  50.195  1.00  0.00     0.315 HD
ENDROOT
BRANCH   1  18
HETATM   18  N1  UNL     1      24.278   1.384  51.747  1.00  0.00    -0.380 N 
HETATM   19  H6  UNL     1      24.199   1.362  50.714  1.00  0.00     0.160 HD
BRANCH  18  20
HETATM   20  C5  UNL     1      25.497   0.916  52.360  1.00  0.00     0.030 A 
HETATM   21  C4  UNL     1      25.780  -0.434  52.618  1.00  0.00     0.032 A 
HETATM   22  C3  UNL     1      26.979  -0.791  53.182  1.00  0.00     0.040 A 
HETATM   23  C2  UNL     1      27.917   0.160  53.501  1.00  0.00     0.090 A 
HETATM   24  C19 UNL     1      27.701   1.498  53.273  1.00  0.00     0.069 A 
HETATM   25  C18 UNL     1      26.485   1.848  52.702  1.00  0.00     0.056 A 
HETATM   26 CL1  UNL     1      28.934   2.647  53.705  1.00  0.00    -0.081 Cl
BRANCH  23  27
HETATM   27  O1  UNL     1      29.118  -0.279  54.075  1.00  0.00    -0.354 OA
HETATM   28  C1  UNL     1      29.848  -1.352  53.588  1.00  0.00     0.210 C 
ENDBRANCH  23  27
ENDBRANCH  18  20
ENDBRANCH   1  18
TORSDOF 3
ENDMDL
MODEL 9
REMARK VINA RESULT:      -7.9      2.733      4.219
REMARK  3 active torsions:
REMARK  status: ('A' for Active; 'I' for Inactive)
REMARK    1  A    between atoms: O1_2  and  C2_3 
REMARK    2  A    between atoms: C5_6  and  N1_7 
REMARK    3  A    between atoms: N1_7  and  C6_8 
ROOT
HETATM    1  C6  UNL     1      26.347   5.894  48.706  1.00  0.00     0.134 C 
HETATM    2  C7  UNL     1      26.446   4.570  49.485  1.00  0.00     0.019 C 
HETATM    3  C8  UNL     1      26.561   3.370  50.109  1.00  0.00     0.111 C 
HETATM    4  N2  UNL     1      26.348   2.712  51.397  1.00  0.00    -0.270 N 
HETATM    5  N3  UNL     1      27.585   2.473  52.012  1.00  0.00    -0.165 NA
HETATM    6  C9  UNL     1      27.462   1.991  53.239  1.00  0.00     0.254 A 
HETATM    7  N4  UNL     1      26.206   1.733  53.850  1.00  0.00    -0.254 NA
HETATM    8  C10 UNL     1      25.070   1.945  53.223  1.00  0.00     0.118 A 
HETATM    9  C11 UNL     1      24.994   2.440  51.877  1.00  0.00     0.150 A 
HETATM   10  C12 UNL     1      24.103   3.587  51.540  1.00  0.00     0.033 C 
HETATM   11  C13 UNL     1      22.771   3.643  52.165  1.00  0.00     0.002 C 
HETATM   12  C14 UNL     1      21.833   4.631  51.585  1.00  0.00     0.002 C 
HETATM   13  C15 UNL     1      22.139   6.044  51.343  1.00  0.00     0.030 C 
HETATM   14  C16 UNL     1      22.951   6.430  50.157  1.00  0.00     0.269 C 
HETATM   15  N5  UNL     1      24.306   6.109  50.051  1.00  0.00     0.085 N 
HETATM   16  C17 UNL     1      24.862   6.228  48.719  1.00  0.00     0.298 C 
HETATM   17  H23 UNL     1      24.931   6.523  50.777  1.00  0.00     0.315 HD
ENDROOT
BRANCH   1  18
HETATM   18  N1  UNL     1      27.140   6.879  49.353  1.00  0.00    -0.380 N 
HETATM   19  H6  UNL     1      26.949   7.196  50.321  1.00  0.00     0.160 HD
BRANCH  18  20
HETATM   20  C5  UNL     1      28.252   7.460  48.640  1.00  0.00     0.030 A 
HETATM   21  C4  UNL     1      28.821   6.908  47.482  1.00  0.00     0.032 A 
HETATM   22  C3  UNL     1      29.862   7.544  46.855  1.00  0.00     0.040 A 
HETATM   23  C2  UNL     1      30.362   8.725  47.346  1.00  0.00     0.090 A 
HETATM   24  C19 UNL     1      29.849   9.318  48.475  1.00  0.00     0.069 A 
HETATM   25  C18 UNL     1      28.796   8.665  49.102  1.00  0.00     0.056 A 
HETATM   26 CL1  UNL     1      30.536  10.813  49.041  1.00  0.00    -0.081 Cl
BRANCH  23  27
HETATM   27  O1  UNL     1      31.427   9.317  46.653  1.00  0.00    -0.354 OA
HETATM   28  C1  UNL     1      32.085   8.704  45.598  1.00  0.00     0.210 C 
ENDBRANCH  23  27
ENDBRANCH  18  20
ENDBRANCH   1  18
TORSDOF 3
ENDMDL
