MODEL 1
REMARK VINA RESULT:      -7.3      0.000      0.000
REMARK  5 active torsions:
REMARK  status: ('A' for Active; 'I' for Inactive)
REMARK    1  A    between atoms: S1_1  and  C1_2 
REMARK    2  A    between atoms: C2_3  and  N1_4 
REMARK    3  A    between atoms: C2_3  and  C10_15 
REMARK    4  A    between atoms: N1_4  and  N2_5 
REMARK    5  A    between atoms: C3_7  and  C4_8 
ROOT
HETATM    1  N1  UNL     1      26.680  -0.032  53.339  1.00  0.00    -0.275 N 
HETATM    2  H3  UNL     1      27.334  -0.674  52.846  1.00  0.00     0.189 HD
ENDROOT
BRANCH   1   3
HETATM    3  C2  UNL     1      26.785   1.368  53.102  1.00  0.00     0.066 C 
HETATM    4  C1  UNL     1      27.948   1.912  53.415  1.00  0.00     0.073 C 
BRANCH   4   5
HETATM    5  S1  UNL     1      29.251   0.920  54.080  1.00  0.00    -0.152 SA
HETATM    6  H1  UNL     1      30.254   1.733  54.640  1.00  0.00     0.106 HD
ENDBRANCH   4   5
BRANCH   3   7
HETATM    7  C10 UNL     1      25.680   2.139  52.553  1.00  0.00    -0.007 A 
HETATM    8  C11 UNL     1      24.868   2.879  53.390  1.00  0.00     0.014 A 
HETATM    9  C12 UNL     1      23.832   3.594  52.823  1.00  0.00     0.001 A 
HETATM   10  C13 UNL     1      23.566   3.609  51.470  1.00  0.00     0.000 A 
HETATM   11  C14 UNL     1      24.431   2.839  50.710  1.00  0.00     0.001 A 
HETATM   12  C15 UNL     1      25.490   2.092  51.179  1.00  0.00     0.014 A 
ENDBRANCH   3   7
ENDBRANCH   1   3
BRANCH   1  13
HETATM   13  N2  UNL     1      25.706  -0.547  54.225  1.00  0.00    -0.150 N 
HETATM   14  N3  UNL     1      25.205  -1.152  55.392  1.00  0.00    -0.127 NA
HETATM   15  C3  UNL     1      24.326  -0.724  54.333  1.00  0.00     0.201 A 
BRANCH  15  16
HETATM   16  C4  UNL     1      22.934  -0.640  53.894  1.00  0.00     0.015 A 
HETATM   17  C5  UNL     1      22.713   0.031  52.709  1.00  0.00     0.017 A 
HETATM   18  C6  UNL     1      21.393   0.105  52.302  1.00  0.00     0.020 A 
HETATM   19  C7  UNL     1      20.305  -0.423  52.966  1.00  0.00     0.011 A 
HETATM   20 BR1  UNL     1      18.543  -0.260  52.314  1.00  0.00    -0.051 Br
HETATM   21  C8  UNL     1      20.629  -1.084  54.155  1.00  0.00     0.020 A 
HETATM   22  C9  UNL     1      21.917  -1.206  54.635  1.00  0.00     0.017 A 
ENDBRANCH  15  16
ENDBRANCH   1  13
TORSDOF 5
ENDMDL
MODEL 2
REMARK VINA RESULT:      -7.0      4.057      6.256
REMARK  5 active torsions:
REMARK  status: ('A' for Active; 'I' for Inactive)
REMARK    1  A    between atoms: S1_1  and  C1_2 
REMARK    2  A    between atoms: C2_3  and  N1_4 
REMARK    3  A    between atoms: C2_3  and  C10_15 
REMARK    4  A    between atoms: N1_4  and  N2_5 
REMARK    5  A    between atoms: C3_7  and  C4_8 
ROOT
HETATM    1  N1  UNL     1      22.831   1.434  52.749  1.00  0.00    -0.275 N 
HETATM    2  H3  UNL     1      22.159   1.897  53.395  1.00  0.00     0.189 HD
ENDROOT
BRANCH   1   3
HETATM    3  C2  UNL     1      23.774   0.513  53.287  1.00  0.00     0.066 C 
HETATM    4  C1  UNL     1      23.258  -0.554  53.870  1.00  0.00     0.073 C 
BRANCH   4   5
HETATM    5  S1  UNL     1      21.506  -0.772  53.950  1.00  0.00    -0.152 SA
HETATM    6  H1  UNL     1      20.942   0.099  54.901  1.00  0.00     0.106 HD
ENDBRANCH   4   5
BRANCH   3   7
HETATM    7  C10 UNL     1      25.208   0.741  53.194  1.00  0.00    -0.007 A 
HETATM    8  C11 UNL     1      25.742   1.961  53.564  1.00  0.00     0.014 A 
HETATM    9  C12 UNL     1      27.107   2.131  53.459  1.00  0.00     0.001 A 
HETATM   10  C13 UNL     1      27.965   1.151  53.007  1.00  0.00     0.000 A 
HETATM   11  C14 UNL     1      27.343  -0.037  52.659  1.00  0.00     0.001 A 
HETATM   12  C15 UNL     1      25.992  -0.304  52.727  1.00  0.00     0.014 A 
ENDBRANCH   3   7
ENDBRANCH   1   3
BRANCH   1  13
HETATM   13  N2  UNL     1      22.803   1.719  51.365  1.00  0.00    -0.150 N 
HETATM   14  N3  UNL     1      22.344   1.657  50.037  1.00  0.00    -0.127 NA
HETATM   15  C3  UNL     1      23.483   2.461  50.398  1.00  0.00     0.201 A 
BRANCH  15  16
HETATM   16  C4  UNL     1      24.513   3.371  49.897  1.00  0.00     0.015 A 
HETATM   17  C5  UNL     1      25.812   2.914  49.972  1.00  0.00     0.017 A 
HETATM   18  C6  UNL     1      26.779   3.782  49.496  1.00  0.00     0.020 A 
HETATM   19  C7  UNL     1      26.557   5.036  48.965  1.00  0.00     0.011 A 
HETATM   20 BR1  UNL     1      27.958   6.136  48.345  1.00  0.00    -0.051 Br
HETATM   21  C8  UNL     1      25.210   5.410  48.931  1.00  0.00     0.020 A 
HETATM   22  C9  UNL     1      24.182   4.608  49.383  1.00  0.00     0.017 A 
ENDBRANCH  15  16
ENDBRANCH   1  13
TORSDOF 5
ENDMDL
MODEL 3
REMARK VINA RESULT:      -7.0      4.102      5.754
REMARK  5 active torsions:
REMARK  status: ('A' for Active; 'I' for Inactive)
REMARK    1  A    between atoms: S1_1  and  C1_2 
REMARK    2  A    between atoms: C2_3  and  N1_4 
REMARK    3  A    between atoms: C2_3  and  C10_15 
REMARK    4  A    between atoms: N1_4  and  N2_5 
REMARK    5  A    between atoms: C3_7  and  C4_8 
ROOT
HETATM    1  N1  UNL     1      20.046  -0.243  54.144  1.00  0.00    -0.275 N 
HETATM    2  H3  UNL     1      19.408   0.120  54.881  1.00  0.00     0.189 HD
ENDROOT
BRANCH   1   3
HETATM    3  C2  UNL     1      19.766   0.067  52.782  1.00  0.00     0.066 C 
HETATM    4  C1  UNL     1      18.668  -0.477  52.289  1.00  0.00     0.073 C 
BRANCH   4   5
HETATM    5  S1  UNL     1      17.650  -1.512  53.298  1.00  0.00    -0.152 SA
HETATM    6  H1  UNL     1      17.311  -0.855  54.496  1.00  0.00     0.106 HD
ENDBRANCH   4   5
BRANCH   3   7
HETATM    7  C10 UNL     1      20.638   0.925  51.995  1.00  0.00    -0.007 A 
HETATM    8  C11 UNL     1      20.951   2.194  52.444  1.00  0.00     0.014 A 
HETATM    9  C12 UNL     1      21.781   2.972  51.664  1.00  0.00     0.001 A 
HETATM   10  C13 UNL     1      22.315   2.553  50.464  1.00  0.00     0.000 A 
HETATM   11  C14 UNL     1      21.948   1.269  50.094  1.00  0.00     0.001 A 
HETATM   12  C15 UNL     1      21.127   0.417  50.800  1.00  0.00     0.014 A 
ENDBRANCH   3   7
ENDBRANCH   1   3
BRANCH   1  13
HETATM   13  N2  UNL     1      21.168  -1.028  54.493  1.00  0.00    -0.150 N 
HETATM   14  N3  UNL     1      21.868  -2.131  55.016  1.00  0.00    -0.127 NA
HETATM   15  C3  UNL     1      22.563  -1.012  54.431  1.00  0.00     0.201 A 
BRANCH  15  16
HETATM   16  C4  UNL     1      23.875  -0.458  54.103  1.00  0.00     0.015 A 
HETATM   17  C5  UNL     1      24.894  -0.752  54.985  1.00  0.00     0.017 A 
HETATM   18  C6  UNL     1      26.132  -0.224  54.667  1.00  0.00     0.020 A 
HETATM   19  C7  UNL     1      26.426   0.554  53.566  1.00  0.00     0.011 A 
HETATM   20 BR1  UNL     1      28.157   1.223  53.231  1.00  0.00    -0.051 Br
HETATM   21  C8  UNL     1      25.331   0.798  52.731  1.00  0.00     0.020 A 
HETATM   22  C9  UNL     1      24.063   0.310  52.973  1.00  0.00     0.017 A 
ENDBRANCH  15  16
ENDBRANCH   1  13
TORSDOF 5
ENDMDL
MODEL 4
REMARK VINA RESULT:      -6.8      4.459      5.931
REMARK  5 active torsions:
REMARK  status: ('A' for Active; 'I' for Inactive)
REMARK    1  A    between atoms: S1_1  and  C1_2 
REMARK    2  A    between atoms: C2_3  and  N1_4 
REMARK    3  A    between atoms: C2_3  and  C10_15 
REMARK    4  A    between atoms: N1_4  and  N2_5 
REMARK    5  A    between atoms: C3_7  and  C4_8 
ROOT
HETATM    1  N1  UNL     1      24.018   4.625  52.098  1.00  0.00    -0.275 N 
HETATM    2  H3  UNL     1      24.118   5.349  52.839  1.00  0.00     0.189 HD
ENDROOT
BRANCH   1   3
HETATM    3  C2  UNL     1      24.059   5.029  50.734  1.00  0.00     0.066 C 
HETATM    4  C1  UNL     1      22.897   5.368  50.205  1.00  0.00     0.073 C 
BRANCH   4   5
HETATM    5  S1  UNL     1      21.420   5.305  51.174  1.00  0.00    -0.152 SA
HETATM    6  H1  UNL     1      20.340   5.865  50.466  1.00  0.00     0.106 HD
ENDBRANCH   4   5
BRANCH   3   7
HETATM    7  C10 UNL     1      25.304   5.063  49.980  1.00  0.00    -0.007 A 
HETATM    8  C11 UNL     1      25.765   6.256  49.456  1.00  0.00     0.014 A 
HETATM    9  C12 UNL     1      26.949   6.239  48.749  1.00  0.00     0.001 A 
HETATM   10  C13 UNL     1      27.696   5.099  48.538  1.00  0.00     0.000 A 
HETATM   11  C14 UNL     1      27.157   3.952  49.098  1.00  0.00     0.001 A 
HETATM   12  C15 UNL     1      25.985   3.865  49.819  1.00  0.00     0.014 A 
ENDBRANCH   3   7
ENDBRANCH   1   3
BRANCH   1  13
HETATM   13  N2  UNL     1      23.845   3.266  52.447  1.00  0.00    -0.150 N 
HETATM   14  N3  UNL     1      23.147   2.084  52.750  1.00  0.00    -0.127 NA
HETATM   15  C3  UNL     1      24.587   2.120  52.741  1.00  0.00     0.201 A 
BRANCH  15  16
HETATM   16  C4  UNL     1      25.806   1.337  52.941  1.00  0.00     0.015 A 
HETATM   17  C5  UNL     1      26.952   2.059  53.204  1.00  0.00     0.017 A 
HETATM   18  C6  UNL     1      28.099   1.310  53.392  1.00  0.00     0.020 A 
HETATM   19  C7  UNL     1      28.191  -0.065  53.340  1.00  0.00     0.011 A 
HETATM   20 BR1  UNL     1      29.816  -0.984  53.614  1.00  0.00    -0.051 Br
HETATM   21  C8  UNL     1      26.979  -0.708  53.068  1.00  0.00     0.020 A 
HETATM   22  C9  UNL     1      25.788  -0.040  52.868  1.00  0.00     0.017 A 
ENDBRANCH  15  16
ENDBRANCH   1  13
TORSDOF 5
ENDMDL
MODEL 5
REMARK VINA RESULT:      -6.8      3.978      6.126
REMARK  5 active torsions:
REMARK  status: ('A' for Active; 'I' for Inactive)
REMARK    1  A    between atoms: S1_1  and  C1_2 
REMARK    2  A    between atoms: C2_3  and  N1_4 
REMARK    3  A    between atoms: C2_3  and  C10_15 
REMARK    4  A    between atoms: N1_4  and  N2_5 
REMARK    5  A    between atoms: C3_7  and  C4_8 
ROOT
HETATM    1  N1  UNL     1      21.830   2.760  51.135  1.00  0.00    -0.275 N 
HETATM    2  H3  UNL     1      21.088   3.330  50.679  1.00  0.00     0.189 HD
ENDROOT
BRANCH   1   3
HETATM    3  C2  UNL     1      21.662   1.349  51.209  1.00  0.00     0.066 C 
HETATM    4  C1  UNL     1      21.457   0.739  50.056  1.00  0.00     0.073 C 
BRANCH   4   5
HETATM    5  S1  UNL     1      21.404   1.664  48.550  1.00  0.00    -0.152 SA
HETATM    6  H1  UNL     1      22.544   2.482  48.433  1.00  0.00     0.106 HD
ENDBRANCH   4   5
BRANCH   3   7
HETATM    7  C10 UNL     1      21.714   0.635  52.476  1.00  0.00    -0.007 A 
HETATM    8  C11 UNL     1      22.722  -0.279  52.717  1.00  0.00     0.014 A 
HETATM    9  C12 UNL     1      22.730  -0.932  53.932  1.00  0.00     0.001 A 
HETATM   10  C13 UNL     1      21.789  -0.722  54.917  1.00  0.00     0.000 A 
HETATM   11  C14 UNL     1      20.817   0.209  54.589  1.00  0.00     0.001 A 
HETATM   12  C15 UNL     1      20.722   0.912  53.406  1.00  0.00     0.014 A 
ENDBRANCH   3   7
ENDBRANCH   1   3
BRANCH   1  13
HETATM   13  N2  UNL     1      22.981   3.383  51.670  1.00  0.00    -0.150 N 
HETATM   14  N3  UNL     1      23.802   4.440  52.101  1.00  0.00    -0.127 NA
HETATM   15  C3  UNL     1      24.244   3.071  52.178  1.00  0.00     0.201 A 
BRANCH  15  16
HETATM   16  C4  UNL     1      25.341   2.187  52.570  1.00  0.00     0.015 A 
HETATM   17  C5  UNL     1      26.053   1.612  51.538  1.00  0.00     0.017 A 
HETATM   18  C6  UNL     1      27.088   0.778  51.918  1.00  0.00     0.020 A 
HETATM   19  C7  UNL     1      27.460   0.481  53.213  1.00  0.00     0.011 A 
HETATM   20 BR1  UNL     1      28.896  -0.674  53.615  1.00  0.00    -0.051 Br
HETATM   21  C8  UNL     1      26.681   1.111  54.189  1.00  0.00     0.020 A 
HETATM   22  C9  UNL     1      25.631   1.958  53.899  1.00  0.00     0.017 A 
ENDBRANCH  15  16
ENDBRANCH   1  13
TORSDOF 5
ENDMDL
MODEL 6
REMARK VINA RESULT:      -6.7      2.804      3.928
REMARK  5 active torsions:
REMARK  status: ('A' for Active; 'I' for Inactive)
REMARK    1  A    between atoms: S1_1  and  C1_2 
REMARK    2  A    between atoms: C2_3  and  N1_4 
REMARK    3  A    between atoms: C2_3  and  C10_15 
REMARK    4  A    between atoms: N1_4  and  N2_5 
REMARK    5  A    between atoms: C3_7  and  C4_8 
ROOT
HETATM    1  N1  UNL     1      26.570   3.126  49.722  1.00  0.00    -0.275 N 
HETATM    2  H3  UNL     1      27.022   2.719  48.878  1.00  0.00     0.189 HD
ENDROOT
BRANCH   1   3
HETATM    3  C2  UNL     1      25.704   4.245  49.564  1.00  0.00     0.066 C 
HETATM    4  C1  UNL     1      26.250   5.314  49.010  1.00  0.00     0.073 C 
BRANCH   4   5
HETATM    5  S1  UNL     1      27.948   5.299  48.517  1.00  0.00    -0.152 SA
HETATM    6  H1  UNL     1      28.066   5.590  47.145  1.00  0.00     0.106 HD
ENDBRANCH   4   5
BRANCH   3   7
HETATM    7  C10 UNL     1      24.312   4.205  49.987  1.00  0.00    -0.007 A 
HETATM    8  C11 UNL     1      23.923   4.836  51.153  1.00  0.00     0.014 A 
HETATM    9  C12 UNL     1      22.594   4.770  51.514  1.00  0.00     0.001 A 
HETATM   10  C13 UNL     1      21.634   4.112  50.775  1.00  0.00     0.000 A 
HETATM   11  C14 UNL     1      22.114   3.510  49.624  1.00  0.00     0.001 A 
HETATM   12  C15 UNL     1      23.418   3.517  49.178  1.00  0.00     0.014 A 
ENDBRANCH   3   7
ENDBRANCH   1   3
BRANCH   1  13
HETATM   13  N2  UNL     1      26.814   2.573  50.999  1.00  0.00    -0.150 N 
HETATM   14  N3  UNL     1      27.536   2.286  52.172  1.00  0.00    -0.127 NA
HETATM   15  C3  UNL     1      26.195   1.796  51.980  1.00  0.00     0.201 A 
BRANCH  15  16
HETATM   16  C4  UNL     1      25.110   1.013  52.571  1.00  0.00     0.015 A 
HETATM   17  C5  UNL     1      23.841   1.291  52.106  1.00  0.00     0.017 A 
HETATM   18  C6  UNL     1      22.821   0.546  52.671  1.00  0.00     0.020 A 
HETATM   19  C7  UNL     1      22.964  -0.428  53.637  1.00  0.00     0.011 A 
HETATM   20 BR1  UNL     1      21.497  -1.384  54.337  1.00  0.00    -0.051 Br
HETATM   21  C8  UNL     1      24.286  -0.638  54.045  1.00  0.00     0.020 A 
HETATM   22  C9  UNL     1      25.362   0.059  53.534  1.00  0.00     0.017 A 
ENDBRANCH  15  16
ENDBRANCH   1  13
TORSDOF 5
ENDMDL
MODEL 7
REMARK VINA RESULT:      -6.7      2.154      3.651
REMARK  5 active torsions:
REMARK  status: ('A' for Active; 'I' for Inactive)
REMARK    1  A    between atoms: S1_1  and  C1_2 
REMARK    2  A    between atoms: C2_3  and  N1_4 
REMARK    3  A    between atoms: C2_3  and  C10_15 
REMARK    4  A    between atoms: N1_4  and  N2_5 
REMARK    5  A    between atoms: C3_7  and  C4_8 
ROOT
HETATM    1  N1  UNL     1      25.392   1.421  53.465  1.00  0.00    -0.275 N 
HETATM    2  H3  UNL     1      25.220   2.364  53.872  1.00  0.00     0.189 HD
ENDROOT
BRANCH   1   3
HETATM    3  C2  UNL     1      26.499   1.245  52.588  1.00  0.00     0.066 C 
HETATM    4  C1  UNL     1      26.414   1.875  51.430  1.00  0.00     0.073 C 
BRANCH   4   5
HETATM    5  S1  UNL     1      24.995   2.859  51.048  1.00  0.00    -0.152 SA
HETATM    6  H1  UNL     1      25.174   3.529  49.822  1.00  0.00     0.106 HD
ENDBRANCH   4   5
BRANCH   3   7
HETATM    7  C10 UNL     1      27.643   0.423  52.951  1.00  0.00    -0.007 A 
HETATM    8  C11 UNL     1      28.799   1.014  53.425  1.00  0.00     0.014 A 
HETATM    9  C12 UNL     1      29.858   0.195  53.757  1.00  0.00     0.001 A 
HETATM   10  C13 UNL     1      29.825  -1.179  53.642  1.00  0.00     0.000 A 
HETATM   11  C14 UNL     1      28.628  -1.683  53.159  1.00  0.00     0.001 A 
HETATM   12  C15 UNL     1      27.517  -0.950  52.800  1.00  0.00     0.014 A 
ENDBRANCH   3   7
ENDBRANCH   1   3
BRANCH   1  13
HETATM   13  N2  UNL     1      24.538   0.340  53.781  1.00  0.00    -0.150 N 
HETATM   14  N3  UNL     1      24.150  -0.879  54.367  1.00  0.00    -0.127 NA
HETATM   15  C3  UNL     1      23.241  -0.120  53.547  1.00  0.00     0.201 A 
BRANCH  15  16
HETATM   16  C4  UNL     1      21.891  -0.072  52.985  1.00  0.00     0.015 A 
HETATM   17  C5  UNL     1      21.791   0.398  51.691  1.00  0.00     0.017 A 
HETATM   18  C6  UNL     1      20.511   0.439  51.168  1.00  0.00     0.020 A 
HETATM   19  C7  UNL     1      19.354   0.059  51.816  1.00  0.00     0.011 A 
HETATM   20 BR1  UNL     1      17.657   0.158  51.001  1.00  0.00    -0.051 Br
HETATM   21  C8  UNL     1      19.557  -0.403  53.121  1.00  0.00     0.020 A 
HETATM   22  C9  UNL     1      20.798  -0.478  53.721  1.00  0.00     0.017 A 
ENDBRANCH  15  16
ENDBRANCH   1  13
TORSDOF 5
ENDMDL
MODEL 8
REMARK VINA RESULT:      -6.6      4.215      5.296
REMARK  5 active torsions:
REMARK  status: ('A' for Active; 'I' for Inactive)
REMARK    1  A    between atoms: S1_1  and  C1_2 
REMARK    2  A    between atoms: C2_3  and  N1_4 
REMARK    3  A    between atoms: C2_3  and  C10_15 
REMARK    4  A    between atoms: N1_4  and  N2_5 
REMARK    5  A    between atoms: C3_7  and  C4_8 
ROOT
HETATM    1  N1  UNL     1      25.324   4.683  50.725  1.00  0.00    -0.275 N 
HETATM    2  H3  UNL     1      24.890   5.284  51.455  1.00  0.00     0.189 HD
ENDROOT
BRANCH   1   3
HETATM    3  C2  UNL     1      25.354   5.149  49.381  1.00  0.00     0.066 C 
HETATM    4  C1  UNL     1      24.210   5.065  48.724  1.00  0.00     0.073 C 
BRANCH   4   5
HETATM    5  S1  UNL     1      22.770   4.410  49.513  1.00  0.00    -0.152 SA
HETATM    6  H1  UNL     1      23.074   3.980  50.818  1.00  0.00     0.106 HD
ENDBRANCH   4   5
BRANCH   3   7
HETATM    7  C10 UNL     1      26.567   5.680  48.778  1.00  0.00    -0.007 A 
HETATM    8  C11 UNL     1      27.699   4.892  48.689  1.00  0.00     0.014 A 
HETATM    9  C12 UNL     1      28.826   5.439  48.111  1.00  0.00     0.001 A 
HETATM   10  C13 UNL     1      28.883   6.725  47.618  1.00  0.00     0.000 A 
HETATM   11  C14 UNL     1      27.704   7.440  47.750  1.00  0.00     0.001 A 
HETATM   12  C15 UNL     1      26.529   6.986  48.311  1.00  0.00     0.014 A 
ENDBRANCH   3   7
ENDBRANCH   1   3
BRANCH   1  13
HETATM   13  N2  UNL     1      25.873   3.426  51.070  1.00  0.00    -0.150 N 
HETATM   14  N3  UNL     1      26.854   2.423  51.171  1.00  0.00    -0.127 NA
HETATM   15  C3  UNL     1      25.522   2.222  51.682  1.00  0.00     0.201 A 
BRANCH  15  16
HETATM   16  C4  UNL     1      24.629   1.282  52.358  1.00  0.00     0.015 A 
HETATM   17  C5  UNL     1      23.280   1.452  52.122  1.00  0.00     0.017 A 
HETATM   18  C6  UNL     1      22.443   0.559  52.766  1.00  0.00     0.020 A 
HETATM   19  C7  UNL     1      22.835  -0.464  53.604  1.00  0.00     0.011 A 
HETATM   20 BR1  UNL     1      21.601  -1.626  54.430  1.00  0.00    -0.051 Br
HETATM   21  C8  UNL     1      24.220  -0.557  53.782  1.00  0.00     0.020 A 
HETATM   22  C9  UNL     1      25.126   0.291  53.178  1.00  0.00     0.017 A 
ENDBRANCH  15  16
ENDBRANCH   1  13
TORSDOF 5
ENDMDL
MODEL 9
REMARK VINA RESULT:      -6.5      4.084      5.483
REMARK  5 active torsions:
REMARK  status: ('A' for Active; 'I' for Inactive)
REMARK    1  A    between atoms: S1_1  and  C1_2 
REMARK    2  A    between atoms: C2_3  and  N1_4 
REMARK    3  A    between atoms: C2_3  and  C10_15 
REMARK    4  A    between atoms: N1_4  and  N2_5 
REMARK    5  A    between atoms: C3_7  and  C4_8 
ROOT
HETATM    1  N1  UNL     1      22.672   1.507  51.124  1.00  0.00    -0.275 N 
HETATM    2  H3  UNL     1      22.205   1.001  50.344  1.00  0.00     0.189 HD
ENDROOT
BRANCH   1   3
HETATM    3  C2  UNL     1      22.946   2.896  50.974  1.00  0.00     0.066 C 
HETATM    4  C1  UNL     1      21.993   3.712  51.389  1.00  0.00     0.073 C 
BRANCH   4   5
HETATM    5  S1  UNL     1      20.498   3.066  52.077  1.00  0.00    -0.152 SA
HETATM    6  H1  UNL     1      20.156   3.759  53.254  1.00  0.00     0.106 HD
ENDBRANCH   4   5
BRANCH   3   7
HETATM    7  C10 UNL     1      24.194   3.376  50.401  1.00  0.00    -0.007 A 
HETATM    8  C11 UNL     1      24.213   4.538  49.654  1.00  0.00     0.014 A 
HETATM    9  C12 UNL     1      25.420   4.953  49.130  1.00  0.00     0.001 A 
HETATM   10  C13 UNL     1      26.605   4.273  49.312  1.00  0.00     0.000 A 
HETATM   11  C14 UNL     1      26.491   3.120  50.072  1.00  0.00     0.001 A 
HETATM   12  C15 UNL     1      25.336   2.623  50.637  1.00  0.00     0.014 A 
ENDBRANCH   3   7
ENDBRANCH   1   3
BRANCH   1  13
HETATM   13  N2  UNL     1      23.026   0.822  52.309  1.00  0.00    -0.150 N 
HETATM   14  N3  UNL     1      22.826   0.159  53.533  1.00  0.00    -0.127 NA
HETATM   15  C3  UNL     1      24.148   0.351  52.993  1.00  0.00     0.201 A 
BRANCH  15  16
HETATM   16  C4  UNL     1      25.575   0.115  53.209  1.00  0.00     0.015 A 
HETATM   17  C5  UNL     1      26.074  -1.071  52.710  1.00  0.00     0.017 A 
HETATM   18  C6  UNL     1      27.425  -1.285  52.919  1.00  0.00     0.020 A 
HETATM   19  C7  UNL     1      28.293  -0.433  53.569  1.00  0.00     0.011 A 
HETATM   20 BR1  UNL     1      30.123  -0.830  53.796  1.00  0.00    -0.051 Br
HETATM   21  C8  UNL     1      27.696   0.742  54.038  1.00  0.00     0.020 A 
HETATM   22  C9  UNL     1      26.358   1.036  53.874  1.00  0.00     0.017 A 
ENDBRANCH  15  16
ENDBRANCH   1  13
TORSDOF 5
ENDMDL
