MODEL 1
REMARK VINA RESULT:      -7.6      0.000      0.000
REMARK  7 active torsions:
REMARK  status: ('A' for Active; 'I' for Inactive)
REMARK    1  A    between atoms: C4_4  and  C5_5 
REMARK    2  A    between atoms: C5_5  and  N1_6 
REMARK       I    between atoms: N1_6  and  C6_7 
REMARK    3  A    between atoms: C6_7  and  C7_9 
REMARK    4  A    between atoms: C8_10  and  C9_11 
REMARK    5  A    between atoms: C9_11  and  N2_12 
REMARK    6  A    between atoms: N2_12  and  C10_13 
REMARK    7  A    between atoms: C12_15  and  N3_16 
ROOT
HETATM    1  C1  UNL     1      20.796  -1.058  53.826  1.00  0.00     0.045 C 
HETATM    2  C2  UNL     1      22.045  -0.841  54.209  1.00  0.00     0.049 C 
HETATM    3  C3  UNL     1      22.850  -0.011  53.319  1.00  0.00     0.043 C 
HETATM    4  C4  UNL     1      24.159   0.193  53.281  1.00  0.00     0.008 C 
HETATM    5  C12 UNL     1      25.135  -0.410  54.182  1.00  0.00     0.143 C 
HETATM    6  N4  UNL     1      24.916  -1.117  55.242  1.00  0.00    -0.223 NA
HETATM    7  C18 UNL     1      23.715  -1.542  55.879  1.00  0.00     0.235 C 
HETATM    8  N5  UNL     1      22.496  -1.418  55.429  1.00  0.00    -0.243 NA
ENDROOT
BRANCH   4   9
HETATM    9  C5  UNL     1      24.787   1.077  52.295  1.00  0.00     0.166 C 
BRANCH   9  10
HETATM   10  N1  UNL     1      24.471   2.475  52.472  1.00  0.00    -0.346 N 
HETATM   11  C6  UNL     1      24.074   3.096  51.270  1.00  0.00     0.296 C 
HETATM   12  O1  UNL     1      24.023   2.430  50.179  1.00  0.00    -0.258 OA
HETATM   13  H6  UNL     1      24.487   3.088  53.325  1.00  0.00     0.163 HD
BRANCH  11  14
HETATM   14  C7  UNL     1      23.707   4.481  51.177  1.00  0.00    -0.004 C 
HETATM   15  C8  UNL     1      23.411   5.647  51.085  1.00  0.00    -0.066 C 
BRANCH  15  16
HETATM   16  C9  UNL     1      23.075   7.050  50.976  1.00  0.00     0.363 C 
BRANCH  16  17
HETATM   17  N2  UNL     1      24.151   7.936  51.377  1.00  0.00     0.093 N 
HETATM   18  H9  UNL     1      23.831   8.784  51.884  1.00  0.00     0.316 HD
BRANCH  17  19
HETATM   19  C10 UNL     1      24.783   8.381  50.140  1.00  0.00     0.266 C 
HETATM   20  C11 UNL     1      26.239   7.913  50.100  1.00  0.00     0.037 C 
ENDBRANCH  17  19
ENDBRANCH  16  17
ENDBRANCH  15  16
ENDBRANCH  11  14
ENDBRANCH   9  10
ENDBRANCH   4   9
BRANCH   5  21
HETATM   21  N3  UNL     1      26.536  -0.280  53.985  1.00  0.00    -0.316 N 
HETATM   22  C13 UNL     1      27.080  -1.416  53.291  1.00  0.00     0.094 A 
HETATM   23  C14 UNL     1      28.394  -1.414  53.046  1.00  0.00    -0.004 A 
HETATM   24  C15 UNL     1      29.375  -0.361  53.410  1.00  0.00     0.081 A 
HETATM   25  C16 UNL     1      28.661   0.732  54.113  1.00  0.00     0.031 A 
HETATM   26 CL1  UNL     1      29.697   2.052  54.607  1.00  0.00    -0.087 Cl
HETATM   27  C17 UNL     1      27.370   0.777  54.379  1.00  0.00     0.117 A 
ENDBRANCH   5  21
TORSDOF 7
ENDMDL
MODEL 2
REMARK VINA RESULT:      -7.3      2.678      6.875
REMARK  7 active torsions:
REMARK  status: ('A' for Active; 'I' for Inactive)
REMARK    1  A    between atoms: C4_4  and  C5_5 
REMARK    2  A    between atoms: C5_5  and  N1_6 
REMARK       I    between atoms: N1_6  and  C6_7 
REMARK    3  A    between atoms: C6_7  and  C7_9 
REMARK    4  A    between atoms: C8_10  and  C9_11 
REMARK    5  A    between atoms: C9_11  and  N2_12 
REMARK    6  A    between atoms: N2_12  and  C10_13 
REMARK    7  A    between atoms: C12_15  and  N3_16 
ROOT
HETATM    1  C1  UNL     1      23.887   6.086  50.159  1.00  0.00     0.045 C 
HETATM    2  C2  UNL     1      24.597   4.975  50.278  1.00  0.00     0.049 C 
HETATM    3  C3  UNL     1      24.154   4.041  51.309  1.00  0.00     0.043 C 
HETATM    4  C4  UNL     1      24.762   2.989  51.837  1.00  0.00     0.008 C 
HETATM    5  C12 UNL     1      26.092   2.510  51.473  1.00  0.00     0.143 C 
HETATM    6  N4  UNL     1      26.849   2.910  50.505  1.00  0.00    -0.223 NA
HETATM    7  C18 UNL     1      26.675   3.905  49.501  1.00  0.00     0.235 C 
HETATM    8  N5  UNL     1      25.710   4.780  49.414  1.00  0.00    -0.243 NA
ENDROOT
BRANCH   4   9
HETATM    9  C5  UNL     1      24.141   2.165  52.878  1.00  0.00     0.166 C 
BRANCH   9  10
HETATM   10  N1  UNL     1      22.718   1.986  52.716  1.00  0.00    -0.346 N 
HETATM   11  C6  UNL     1      22.319   0.644  52.889  1.00  0.00     0.296 C 
HETATM   12  O1  UNL     1      23.180  -0.262  53.158  1.00  0.00    -0.258 OA
HETATM   13  H6  UNL     1      21.952   2.671  52.497  1.00  0.00     0.163 HD
BRANCH  11  14
HETATM   14  C7  UNL     1      20.957   0.202  52.779  1.00  0.00    -0.004 C 
HETATM   15  C8  UNL     1      19.809  -0.161  52.702  1.00  0.00    -0.066 C 
BRANCH  15  16
HETATM   16  C9  UNL     1      18.434  -0.603  52.628  1.00  0.00     0.363 C 
BRANCH  16  17
HETATM   17  N2  UNL     1      17.975  -1.273  53.830  1.00  0.00     0.093 N 
HETATM   18  H9  UNL     1      18.413  -0.918  54.702  1.00  0.00     0.316 HD
BRANCH  17  19
HETATM   19  C10 UNL     1      18.368  -2.670  53.682  1.00  0.00     0.266 C 
HETATM   20  C11 UNL     1      17.125  -3.552  53.562  1.00  0.00     0.037 C 
ENDBRANCH  17  19
ENDBRANCH  16  17
ENDBRANCH  15  16
ENDBRANCH  11  14
ENDBRANCH   9  10
ENDBRANCH   4   9
BRANCH   5  21
HETATM   21  N3  UNL     1      26.752   1.477  52.191  1.00  0.00    -0.316 N 
HETATM   22  C13 UNL     1      27.636   2.011  53.191  1.00  0.00     0.094 A 
HETATM   23  C14 UNL     1      28.320   1.136  53.936  1.00  0.00    -0.004 A 
HETATM   24  C15 UNL     1      28.274  -0.345  53.853  1.00  0.00     0.081 A 
HETATM   25  C16 UNL     1      27.323  -0.732  52.782  1.00  0.00     0.031 A 
HETATM   26 CL1  UNL     1      27.165  -2.461  52.566  1.00  0.00    -0.087 Cl
HETATM   27  C17 UNL     1      26.627   0.090  52.021  1.00  0.00     0.117 A 
ENDBRANCH   5  21
TORSDOF 7
ENDMDL
MODEL 3
REMARK VINA RESULT:      -7.3      2.774      4.979
REMARK  7 active torsions:
REMARK  status: ('A' for Active; 'I' for Inactive)
REMARK    1  A    between atoms: C4_4  and  C5_5 
REMARK    2  A    between atoms: C5_5  and  N1_6 
REMARK       I    between atoms: N1_6  and  C6_7 
REMARK    3  A    between atoms: C6_7  and  C7_9 
REMARK    4  A    between atoms: C8_10  and  C9_11 
REMARK    5  A    between atoms: C9_11  and  N2_12 
REMARK    6  A    between atoms: N2_12  and  C10_13 
REMARK    7  A    between atoms: C12_15  and  N3_16 
ROOT
HETATM    1  C1  UNL     1      28.977   1.269  53.738  1.00  0.00     0.045 C 
HETATM    2  C2  UNL     1      27.827   0.704  53.406  1.00  0.00     0.049 C 
HETATM    3  C3  UNL     1      26.690   1.607  53.258  1.00  0.00     0.043 C 
HETATM    4  C4  UNL     1      25.392   1.354  53.176  1.00  0.00     0.008 C 
HETATM    5  C12 UNL     1      24.786   0.027  53.220  1.00  0.00     0.143 C 
HETATM    6  N4  UNL     1      25.375  -1.123  53.201  1.00  0.00    -0.223 NA
HETATM    7  C18 UNL     1      26.749  -1.495  53.136  1.00  0.00     0.235 C 
HETATM    8  N5  UNL     1      27.786  -0.707  53.224  1.00  0.00    -0.243 NA
ENDROOT
BRANCH   4   9
HETATM    9  C5  UNL     1      24.393   2.415  53.028  1.00  0.00     0.166 C 
BRANCH   9  10
HETATM   10  N1  UNL     1      24.910   3.635  52.454  1.00  0.00    -0.346 N 
HETATM   11  C6  UNL     1      24.818   3.651  51.047  1.00  0.00     0.296 C 
HETATM   12  O1  UNL     1      24.318   2.657  50.416  1.00  0.00    -0.258 OA
HETATM   13  H6  UNL     1      25.333   4.487  52.899  1.00  0.00     0.163 HD
BRANCH  11  14
HETATM   14  C7  UNL     1      25.264   4.749  50.236  1.00  0.00    -0.004 C 
HETATM   15  C8  UNL     1      25.656   5.665  49.555  1.00  0.00    -0.066 C 
BRANCH  15  16
HETATM   16  C9  UNL     1      26.139   6.768  48.754  1.00  0.00     0.363 C 
BRANCH  16  17
HETATM   17  N2  UNL     1      27.462   7.223  49.132  1.00  0.00     0.093 N 
HETATM   18  H9  UNL     1      27.518   8.244  49.319  1.00  0.00     0.316 HD
BRANCH  17  19
HETATM   19  C10 UNL     1      28.323   6.941  47.990  1.00  0.00     0.266 C 
HETATM   20  C11 UNL     1      29.133   5.669  48.247  1.00  0.00     0.037 C 
ENDBRANCH  17  19
ENDBRANCH  16  17
ENDBRANCH  15  16
ENDBRANCH  11  14
ENDBRANCH   9  10
ENDBRANCH   4   9
BRANCH   5  21
HETATM   21  N3  UNL     1      23.381  -0.166  53.293  1.00  0.00    -0.316 N 
HETATM   22  C13 UNL     1      22.996  -0.785  54.533  1.00  0.00     0.094 A 
HETATM   23  C14 UNL     1      21.694  -1.023  54.722  1.00  0.00    -0.004 A 
HETATM   24  C15 UNL     1      20.579  -0.717  53.790  1.00  0.00     0.081 A 
HETATM   25  C16 UNL     1      21.138  -0.087  52.570  1.00  0.00     0.031 A 
HETATM   26 CL1  UNL     1      19.933   0.330  51.373  1.00  0.00    -0.087 Cl
HETATM   27  C17 UNL     1      22.411   0.167  52.335  1.00  0.00     0.117 A 
ENDBRANCH   5  21
TORSDOF 7
ENDMDL
MODEL 4
REMARK VINA RESULT:      -7.1      2.978      5.058
REMARK  7 active torsions:
REMARK  status: ('A' for Active; 'I' for Inactive)
REMARK    1  A    between atoms: C4_4  and  C5_5 
REMARK    2  A    between atoms: C5_5  and  N1_6 
REMARK       I    between atoms: N1_6  and  C6_7 
REMARK    3  A    between atoms: C6_7  and  C7_9 
REMARK    4  A    between atoms: C8_10  and  C9_11 
REMARK    5  A    between atoms: C9_11  and  N2_12 
REMARK    6  A    between atoms: N2_12  and  C10_13 
REMARK    7  A    between atoms: C12_15  and  N3_16 
ROOT
HETATM    1  C1  UNL     1      28.971   0.769  54.444  1.00  0.00     0.045 C 
HETATM    2  C2  UNL     1      27.712   0.489  54.148  1.00  0.00     0.049 C 
HETATM    3  C3  UNL     1      27.170   1.155  52.968  1.00  0.00     0.043 C 
HETATM    4  C4  UNL     1      25.920   1.283  52.548  1.00  0.00     0.008 C 
HETATM    5  C12 UNL     1      24.742   0.747  53.224  1.00  0.00     0.143 C 
HETATM    6  N4  UNL     1      24.696  -0.047  54.243  1.00  0.00    -0.223 NA
HETATM    7  C18 UNL     1      25.716  -0.653  55.032  1.00  0.00     0.235 C 
HETATM    8  N5  UNL     1      26.999  -0.417  54.983  1.00  0.00    -0.243 NA
ENDROOT
BRANCH   4   9
HETATM    9  C5  UNL     1      25.574   2.000  51.318  1.00  0.00     0.166 C 
BRANCH   9  10
HETATM   10  N1  UNL     1      26.560   2.971  50.906  1.00  0.00    -0.346 N 
HETATM   11  C6  UNL     1      26.187   3.655  49.730  1.00  0.00     0.296 C 
HETATM   12  O1  UNL     1      25.080   3.390  49.147  1.00  0.00    -0.258 OA
HETATM   13  H6  UNL     1      27.484   3.243  51.326  1.00  0.00     0.163 HD
BRANCH  11  14
HETATM   14  C7  UNL     1      26.995   4.669  49.113  1.00  0.00    -0.004 C 
HETATM   15  C8  UNL     1      27.687   5.517  48.605  1.00  0.00    -0.066 C 
BRANCH  15  16
HETATM   16  C9  UNL     1      28.521   6.540  48.015  1.00  0.00     0.363 C 
BRANCH  16  17
HETATM   17  N2  UNL     1      28.873   7.603  48.935  1.00  0.00     0.093 N 
HETATM   18  H9  UNL     1      28.889   7.309  49.932  1.00  0.00     0.316 HD
BRANCH  17  19
HETATM   19  C10 UNL     1      27.830   8.614  48.796  1.00  0.00     0.266 C 
HETATM   20  C11 UNL     1      27.428   9.142  50.174  1.00  0.00     0.037 C 
ENDBRANCH  17  19
ENDBRANCH  16  17
ENDBRANCH  15  16
ENDBRANCH  11  14
ENDBRANCH   9  10
ENDBRANCH   4   9
BRANCH   5  21
HETATM   21  N3  UNL     1      23.420   1.059  52.811  1.00  0.00    -0.316 N 
HETATM   22  C13 UNL     1      22.641  -0.130  52.590  1.00  0.00     0.094 A 
HETATM   23  C14 UNL     1      21.374   0.032  52.194  1.00  0.00    -0.004 A 
HETATM   24  C15 UNL     1      20.663   1.312  51.953  1.00  0.00     0.081 A 
HETATM   25  C16 UNL     1      21.596   2.432  52.224  1.00  0.00     0.031 A 
HETATM   26 CL1  UNL     1      20.892   4.015  51.979  1.00  0.00    -0.087 Cl
HETATM   27  C17 UNL     1      22.851   2.326  52.614  1.00  0.00     0.117 A 
ENDBRANCH   5  21
TORSDOF 7
ENDMDL
MODEL 5
REMARK VINA RESULT:      -7.0      3.631      8.661
REMARK  7 active torsions:
REMARK  status: ('A' for Active; 'I' for Inactive)
REMARK    1  A    between atoms: C4_4  and  C5_5 
REMARK    2  A    between atoms: C5_5  and  N1_6 
REMARK       I    between atoms: N1_6  and  C6_7 
REMARK    3  A    between atoms: C6_7  and  C7_9 
REMARK    4  A    between atoms: C8_10  and  C9_11 
REMARK    5  A    between atoms: C9_11  and  N2_12 
REMARK    6  A    between atoms: N2_12  and  C10_13 
REMARK    7  A    between atoms: C12_15  and  N3_16 
ROOT
HETATM    1  C1  UNL     1      29.129   6.661  47.538  1.00  0.00     0.045 C 
HETATM    2  C2  UNL     1      28.084   6.655  48.351  1.00  0.00     0.049 C 
HETATM    3  C3  UNL     1      27.520   5.344  48.657  1.00  0.00     0.043 C 
HETATM    4  C4  UNL     1      26.367   5.011  49.218  1.00  0.00     0.008 C 
HETATM    5  C12 UNL     1      25.350   5.950  49.680  1.00  0.00     0.143 C 
HETATM    6  N4  UNL     1      25.428   7.238  49.764  1.00  0.00    -0.223 NA
HETATM    7  C18 UNL     1      26.472   8.156  49.454  1.00  0.00     0.235 C 
HETATM    8  N5  UNL     1      27.600   7.897  48.852  1.00  0.00    -0.243 NA
ENDROOT
BRANCH   4   9
HETATM    9  C5  UNL     1      25.977   3.617  49.443  1.00  0.00     0.166 C 
BRANCH   9  10
HETATM   10  N1  UNL     1      26.692   2.972  50.520  1.00  0.00    -0.346 N 
HETATM   11  C6  UNL     1      25.850   2.186  51.333  1.00  0.00     0.296 C 
HETATM   12  O1  UNL     1      24.598   2.101  51.084  1.00  0.00    -0.258 OA
HETATM   13  H6  UNL     1      27.707   2.992  50.789  1.00  0.00     0.163 HD
BRANCH  11  14
HETATM   14  C7  UNL     1      26.315   1.444  52.471  1.00  0.00    -0.004 C 
HETATM   15  C8  UNL     1      26.722   0.821  53.421  1.00  0.00    -0.066 C 
BRANCH  15  16
HETATM   16  C9  UNL     1      27.220   0.063  54.548  1.00  0.00     0.363 C 
BRANCH  16  17
HETATM   17  N2  UNL     1      28.500   0.532  55.041  1.00  0.00     0.093 N 
HETATM   18  H9  UNL     1      28.485   1.511  55.388  1.00  0.00     0.316 HD
BRANCH  17  19
HETATM   19  C10 UNL     1      29.408   0.488  53.900  1.00  0.00     0.266 C 
HETATM   20  C11 UNL     1      29.876  -0.948  53.660  1.00  0.00     0.037 C 
ENDBRANCH  17  19
ENDBRANCH  16  17
ENDBRANCH  15  16
ENDBRANCH  11  14
ENDBRANCH   9  10
ENDBRANCH   4   9
BRANCH   5  21
HETATM   21  N3  UNL     1      24.068   5.527  50.122  1.00  0.00    -0.316 N 
HETATM   22  C13 UNL     1      23.982   5.510  51.557  1.00  0.00     0.094 A 
HETATM   23  C14 UNL     1      22.821   5.126  52.098  1.00  0.00    -0.004 A 
HETATM   24  C15 UNL     1      21.589   4.710  51.382  1.00  0.00     0.081 A 
HETATM   25  C16 UNL     1      21.840   4.783  49.923  1.00  0.00     0.031 A 
HETATM   26 CL1  UNL     1      20.467   4.316  48.944  1.00  0.00    -0.087 Cl
HETATM   27  C17 UNL     1      22.964   5.153  49.341  1.00  0.00     0.117 A 
ENDBRANCH   5  21
TORSDOF 7
ENDMDL
MODEL 6
REMARK VINA RESULT:      -6.8      2.747      3.287
REMARK  7 active torsions:
REMARK  status: ('A' for Active; 'I' for Inactive)
REMARK    1  A    between atoms: C4_4  and  C5_5 
REMARK    2  A    between atoms: C5_5  and  N1_6 
REMARK       I    between atoms: N1_6  and  C6_7 
REMARK    3  A    between atoms: C6_7  and  C7_9 
REMARK    4  A    between atoms: C8_10  and  C9_11 
REMARK    5  A    between atoms: C9_11  and  N2_12 
REMARK    6  A    between atoms: N2_12  and  C10_13 
REMARK    7  A    between atoms: C12_15  and  N3_16 
ROOT
HETATM    1  C1  UNL     1      19.883  -0.864  53.372  1.00  0.00     0.045 C 
HETATM    2  C2  UNL     1      21.130  -0.656  53.767  1.00  0.00     0.049 C 
HETATM    3  C3  UNL     1      21.929   0.223  52.919  1.00  0.00     0.043 C 
HETATM    4  C4  UNL     1      23.236   0.439  52.892  1.00  0.00     0.008 C 
HETATM    5  C12 UNL     1      24.217  -0.201  53.764  1.00  0.00     0.143 C 
HETATM    6  N4  UNL     1      24.003  -0.961  54.787  1.00  0.00    -0.223 NA
HETATM    7  C18 UNL     1      22.804  -1.426  55.401  1.00  0.00     0.235 C 
HETATM    8  N5  UNL     1      21.584  -1.290  54.957  1.00  0.00    -0.243 NA
ENDROOT
BRANCH   4   9
HETATM    9  C5  UNL     1      23.858   1.375  51.952  1.00  0.00     0.166 C 
BRANCH   9  10
HETATM   10  N1  UNL     1      22.993   1.784  50.870  1.00  0.00    -0.346 N 
HETATM   11  C6  UNL     1      23.630   2.666  49.973  1.00  0.00     0.296 C 
HETATM   12  O1  UNL     1      24.844   3.022  50.161  1.00  0.00    -0.258 OA
HETATM   13  H6  UNL     1      21.996   1.539  50.648  1.00  0.00     0.163 HD
BRANCH  11  14
HETATM   14  C7  UNL     1      22.987   3.219  48.814  1.00  0.00    -0.004 C 
HETATM   15  C8  UNL     1      22.455   3.672  47.831  1.00  0.00    -0.066 C 
BRANCH  15  16
HETATM   16  C9  UNL     1      21.836   4.217  46.643  1.00  0.00     0.363 C 
BRANCH  16  17
HETATM   17  N2  UNL     1      20.445   4.582  46.829  1.00  0.00     0.093 N 
HETATM   18  H9  UNL     1      20.238   4.990  47.762  1.00  0.00     0.316 HD
BRANCH  17  19
HETATM   19  C10 UNL     1      19.689   3.339  46.721  1.00  0.00     0.266 C 
HETATM   20  C11 UNL     1      18.692   3.232  47.876  1.00  0.00     0.037 C 
ENDBRANCH  17  19
ENDBRANCH  16  17
ENDBRANCH  15  16
ENDBRANCH  11  14
ENDBRANCH   9  10
ENDBRANCH   4   9
BRANCH   5  21
HETATM   21  N3  UNL     1      25.616  -0.050  53.575  1.00  0.00    -0.316 N 
HETATM   22  C13 UNL     1      26.220  -1.268  53.105  1.00  0.00     0.094 A 
HETATM   23  C14 UNL     1      27.540  -1.256  52.890  1.00  0.00    -0.004 A 
HETATM   24  C15 UNL     1      28.471  -0.116  53.079  1.00  0.00     0.081 A 
HETATM   25  C16 UNL     1      27.699   1.054  53.561  1.00  0.00     0.031 A 
HETATM   26 CL1  UNL     1      28.672   2.483  53.832  1.00  0.00    -0.087 Cl
HETATM   27  C17 UNL     1      26.400   1.093  53.790  1.00  0.00     0.117 A 
ENDBRANCH   5  21
TORSDOF 7
ENDMDL
MODEL 7
REMARK VINA RESULT:      -6.8      2.641      4.914
REMARK  7 active torsions:
REMARK  status: ('A' for Active; 'I' for Inactive)
REMARK    1  A    between atoms: C4_4  and  C5_5 
REMARK    2  A    between atoms: C5_5  and  N1_6 
REMARK       I    between atoms: N1_6  and  C6_7 
REMARK    3  A    between atoms: C6_7  and  C7_9 
REMARK    4  A    between atoms: C8_10  and  C9_11 
REMARK    5  A    between atoms: C9_11  and  N2_12 
REMARK    6  A    between atoms: N2_12  and  C10_13 
REMARK    7  A    between atoms: C12_15  and  N3_16 
ROOT
HETATM    1  C1  UNL     1      28.823   2.037  53.791  1.00  0.00     0.045 C 
HETATM    2  C2  UNL     1      27.739   1.371  53.423  1.00  0.00     0.049 C 
HETATM    3  C3  UNL     1      26.497   2.136  53.400  1.00  0.00     0.043 C 
HETATM    4  C4  UNL     1      25.238   1.732  53.318  1.00  0.00     0.008 C 
HETATM    5  C12 UNL     1      24.799   0.343  53.227  1.00  0.00     0.143 C 
HETATM    6  N4  UNL     1      25.524  -0.716  53.069  1.00  0.00    -0.223 NA
HETATM    7  C18 UNL     1      26.930  -0.903  52.934  1.00  0.00     0.235 C 
HETATM    8  N5  UNL     1      27.865  -0.006  53.087  1.00  0.00    -0.243 NA
ENDROOT
BRANCH   4   9
HETATM    9  C5  UNL     1      24.111   2.670  53.309  1.00  0.00     0.166 C 
BRANCH   9  10
HETATM   10  N1  UNL     1      24.472   4.019  52.942  1.00  0.00    -0.346 N 
HETATM   11  C6  UNL     1      23.670   4.528  51.899  1.00  0.00     0.296 C 
HETATM   12  O1  UNL     1      22.743   3.814  51.384  1.00  0.00    -0.258 OA
HETATM   13  H6  UNL     1      25.213   4.665  53.313  1.00  0.00     0.163 HD
BRANCH  11  14
HETATM   14  C7  UNL     1      23.826   5.846  51.350  1.00  0.00    -0.004 C 
HETATM   15  C8  UNL     1      23.956   6.960  50.905  1.00  0.00    -0.066 C 
BRANCH  15  16
HETATM   16  C9  UNL     1      24.093   8.300  50.380  1.00  0.00     0.363 C 
BRANCH  16  17
HETATM   17  N2  UNL     1      23.546   8.459  49.046  1.00  0.00     0.093 N 
HETATM   18  H9  UNL     1      23.701   9.401  48.638  1.00  0.00     0.316 HD
BRANCH  17  19
HETATM   19  C10 UNL     1      22.105   8.274  49.182  1.00  0.00     0.266 C 
HETATM   20  C11 UNL     1      21.388   9.614  49.008  1.00  0.00     0.037 C 
ENDBRANCH  17  19
ENDBRANCH  16  17
ENDBRANCH  15  16
ENDBRANCH  11  14
ENDBRANCH   9  10
ENDBRANCH   4   9
BRANCH   5  21
HETATM   21  N3  UNL     1      23.432  -0.031  53.308  1.00  0.00    -0.316 N 
HETATM   22  C13 UNL     1      23.157  -0.777  54.507  1.00  0.00     0.094 A 
HETATM   23  C14 UNL     1      21.900  -1.190  54.698  1.00  0.00    -0.004 A 
HETATM   24  C15 UNL     1      20.734  -0.965  53.808  1.00  0.00     0.081 A 
HETATM   25  C16 UNL     1      21.180  -0.188  52.627  1.00  0.00     0.031 A 
HETATM   26 CL1  UNL     1      19.904   0.154  51.480  1.00  0.00    -0.087 Cl
HETATM   27  C17 UNL     1      22.405   0.241  52.391  1.00  0.00     0.117 A 
ENDBRANCH   5  21
TORSDOF 7
ENDMDL
MODEL 8
REMARK VINA RESULT:      -6.6      7.000     11.105
REMARK  7 active torsions:
REMARK  status: ('A' for Active; 'I' for Inactive)
REMARK    1  A    between atoms: C4_4  and  C5_5 
REMARK    2  A    between atoms: C5_5  and  N1_6 
REMARK       I    between atoms: N1_6  and  C6_7 
REMARK    3  A    between atoms: C6_7  and  C7_9 
REMARK    4  A    between atoms: C8_10  and  C9_11 
REMARK    5  A    between atoms: C9_11  and  N2_12 
REMARK    6  A    between atoms: N2_12  and  C10_13 
REMARK    7  A    between atoms: C12_15  and  N3_16 
ROOT
HETATM    1  C1  UNL     1      34.546   3.560  46.886  1.00  0.00     0.045 C 
HETATM    2  C2  UNL     1      34.163   4.684  47.470  1.00  0.00     0.049 C 
HETATM    3  C3  UNL     1      32.754   5.035  47.318  1.00  0.00     0.043 C 
HETATM    4  C4  UNL     1      32.118   6.172  47.559  1.00  0.00     0.008 C 
HETATM    5  C12 UNL     1      32.735   7.396  48.062  1.00  0.00     0.143 C 
HETATM    6  N4  UNL     1      33.943   7.565  48.491  1.00  0.00    -0.223 NA
HETATM    7  C18 UNL     1      35.047   6.674  48.621  1.00  0.00     0.235 C 
HETATM    8  N5  UNL     1      35.129   5.448  48.182  1.00  0.00    -0.243 NA
ENDROOT
BRANCH   4   9
HETATM    9  C5  UNL     1      30.678   6.327  47.340  1.00  0.00     0.166 C 
BRANCH   9  10
HETATM   10  N1  UNL     1      29.870   5.338  48.014  1.00  0.00    -0.346 N 
HETATM   11  C6  UNL     1      28.528   5.746  48.162  1.00  0.00     0.296 C 
HETATM   12  O1  UNL     1      28.141   6.883  47.722  1.00  0.00    -0.258 OA
HETATM   13  H6  UNL     1      30.110   4.392  48.401  1.00  0.00     0.163 HD
BRANCH  11  14
HETATM   14  C7  UNL     1      27.521   4.944  48.799  1.00  0.00    -0.004 C 
HETATM   15  C8  UNL     1      26.669   4.266  49.318  1.00  0.00    -0.066 C 
BRANCH  15  16
HETATM   16  C9  UNL     1      25.632   3.465  49.930  1.00  0.00     0.363 C 
BRANCH  16  17
HETATM   17  N2  UNL     1      25.834   3.242  51.349  1.00  0.00     0.093 N 
HETATM   18  H9  UNL     1      26.273   4.044  51.842  1.00  0.00     0.316 HD
BRANCH  17  19
HETATM   19  C10 UNL     1      26.752   2.113  51.448  1.00  0.00     0.266 C 
HETATM   20  C11 UNL     1      27.475   2.145  52.796  1.00  0.00     0.037 C 
ENDBRANCH  17  19
ENDBRANCH  16  17
ENDBRANCH  15  16
ENDBRANCH  11  14
ENDBRANCH   9  10
ENDBRANCH   4   9
BRANCH   5  21
HETATM   21  N3  UNL     1      32.031   8.626  48.142  1.00  0.00    -0.316 N 
HETATM   22  C13 UNL     1      31.328   8.752  49.391  1.00  0.00     0.094 A 
HETATM   23  C14 UNL     1      30.622   9.870  49.588  1.00  0.00    -0.004 A 
HETATM   24  C15 UNL     1      30.476  11.017  48.657  1.00  0.00     0.081 A 
HETATM   25  C16 UNL     1      31.255  10.734  47.428  1.00  0.00     0.031 A 
HETATM   26 CL1  UNL     1      31.174  12.007  46.230  1.00  0.00    -0.087 Cl
HETATM   27  C17 UNL     1      31.964   9.649  47.185  1.00  0.00     0.117 A 
ENDBRANCH   5  21
TORSDOF 7
ENDMDL
MODEL 9
REMARK VINA RESULT:      -6.5      3.734      5.742
REMARK  7 active torsions:
REMARK  status: ('A' for Active; 'I' for Inactive)
REMARK    1  A    between atoms: C4_4  and  C5_5 
REMARK    2  A    between atoms: C5_5  and  N1_6 
REMARK       I    between atoms: N1_6  and  C6_7 
REMARK    3  A    between atoms: C6_7  and  C7_9 
REMARK    4  A    between atoms: C8_10  and  C9_11 
REMARK    5  A    between atoms: C9_11  and  N2_12 
REMARK    6  A    between atoms: N2_12  and  C10_13 
REMARK    7  A    between atoms: C12_15  and  N3_16 
ROOT
HETATM    1  C1  UNL     1      26.462  -0.025  54.662  1.00  0.00     0.045 C 
HETATM    2  C2  UNL     1      25.248  -0.060  54.136  1.00  0.00     0.049 C 
HETATM    3  C3  UNL     1      25.032   0.792  52.970  1.00  0.00     0.043 C 
HETATM    4  C4  UNL     1      23.910   1.166  52.373  1.00  0.00     0.008 C 
HETATM    5  C12 UNL     1      22.564   0.779  52.782  1.00  0.00     0.143 C 
HETATM    6  N4  UNL     1      22.218  -0.085  53.680  1.00  0.00    -0.223 NA
HETATM    7  C18 UNL     1      22.977  -0.923  54.546  1.00  0.00     0.235 C 
HETATM    8  N5  UNL     1      24.269  -0.904  54.732  1.00  0.00    -0.243 NA
ENDROOT
BRANCH   4   9
HETATM    9  C5  UNL     1      23.901   2.039  51.196  1.00  0.00     0.166 C 
BRANCH   9  10
HETATM   10  N1  UNL     1      25.212   2.481  50.781  1.00  0.00    -0.346 N 
HETATM   11  C6  UNL     1      25.158   3.577  49.896  1.00  0.00     0.296 C 
HETATM   12  O1  UNL     1      24.033   4.074  49.542  1.00  0.00    -0.258 OA
HETATM   13  H6  UNL     1      26.172   2.130  51.023  1.00  0.00     0.163 HD
BRANCH  11  14
HETATM   14  C7  UNL     1      26.323   4.203  49.337  1.00  0.00    -0.004 C 
HETATM   15  C8  UNL     1      27.302   4.718  48.854  1.00  0.00    -0.066 C 
BRANCH  15  16
HETATM   16  C9  UNL     1      28.484   5.316  48.275  1.00  0.00     0.363 C 
BRANCH  16  17
HETATM   17  N2  UNL     1      28.902   6.535  48.940  1.00  0.00     0.093 N 
HETATM   18  H9  UNL     1      28.848   6.489  49.976  1.00  0.00     0.316 HD
BRANCH  17  19
HETATM   19  C10 UNL     1      27.970   7.568  48.501  1.00  0.00     0.266 C 
HETATM   20  C11 UNL     1      28.133   7.816  47.000  1.00  0.00     0.037 C 
ENDBRANCH  17  19
ENDBRANCH  16  17
ENDBRANCH  15  16
ENDBRANCH  11  14
ENDBRANCH   9  10
ENDBRANCH   4   9
BRANCH   5  21
HETATM   21  N3  UNL     1      21.398   1.345  52.201  1.00  0.00    -0.316 N 
HETATM   22  C13 UNL     1      21.266   2.738  52.533  1.00  0.00     0.094 A 
HETATM   23  C14 UNL     1      20.203   3.387  52.046  1.00  0.00    -0.004 A 
HETATM   24  C15 UNL     1      19.127   2.833  51.187  1.00  0.00     0.081 A 
HETATM   25  C16 UNL     1      19.409   1.399  50.938  1.00  0.00     0.031 A 
HETATM   26 CL1  UNL     1      18.215   0.606  49.934  1.00  0.00    -0.087 Cl
HETATM   27  C17 UNL     1      20.439   0.714  51.395  1.00  0.00     0.117 A 
ENDBRANCH   5  21
TORSDOF 7
ENDMDL
