MODEL 1
REMARK VINA RESULT:      -7.5      0.000      0.000
REMARK  7 active torsions:
REMARK  status: ('A' for Active; 'I' for Inactive)
REMARK    1  A    between atoms: C2_2  and  N1_9 
REMARK    2  A    between atoms: C3_3  and  C4_4 
REMARK    3  A    between atoms: C5_6  and  C6_7 
REMARK    4  A    between atoms: N1_9  and  C7_10 
REMARK    5  A    between atoms: C11_17  and  C12_18 
REMARK    6  A    between atoms: C12_18  and  N5_19 
REMARK    7  A    between atoms: C15_22  and  N6_23 
ROOT
HETATM    1  C7  UNL     1      23.136   2.077  52.009  1.00  0.00     0.159 A 
HETATM    2  N2  UNL     1      22.798   1.241  53.027  1.00  0.00    -0.220 NA
HETATM    3  C8  UNL     1      21.953   0.221  52.704  1.00  0.00     0.258 A 
HETATM    4  N3  UNL     1      21.496   0.070  51.451  1.00  0.00    -0.161 NA
HETATM    5  N4  UNL     1      21.837   0.895  50.477  1.00  0.00    -0.240 N 
HETATM    6  C9  UNL     1      21.573   0.997  49.154  1.00  0.00     0.119 A 
HETATM    7  C10 UNL     1      22.249   2.096  48.619  1.00  0.00     0.030 A 
HETATM    8  C11 UNL     1      22.960   2.707  49.636  1.00  0.00    -0.007 A 
HETATM    9  C18 UNL     1      22.663   1.923  50.721  1.00  0.00     0.112 A 
ENDROOT
BRANCH   1  10
HETATM   10  N1  UNL     1      24.071   3.061  52.506  1.00  0.00    -0.343 N 
HETATM   11  H8  UNL     1      24.120   4.043  52.853  1.00  0.00     0.167 HD
BRANCH  10  12
HETATM   12  C2  UNL     1      25.381   2.438  52.519  1.00  0.00     0.008 C 
HETATM   13  C1  UNL     1      26.108   1.886  51.328  1.00  0.00     0.068 C 
HETATM   14  C3  UNL     1      26.011   2.327  53.689  1.00  0.00     0.048 C 
BRANCH  14  15
HETATM   15  C4  UNL     1      27.298   1.744  53.946  1.00  0.00     0.033 C 
HETATM   16 CL1  UNL     1      28.857   2.544  53.698  1.00  0.00    -0.085 Cl
HETATM   17  C5  UNL     1      27.427   0.492  54.414  1.00  0.00     0.012 C 
BRANCH  17  18
HETATM   18  C6  UNL     1      28.712  -0.184  54.706  1.00  0.00     0.143 C 
HETATM   19 CL2  UNL     1      29.376  -1.027  53.295  1.00  0.00    -0.126 Cl
ENDBRANCH  17  18
ENDBRANCH  14  15
ENDBRANCH  10  12
ENDBRANCH   1  10
BRANCH   8  20
HETATM   20  C12 UNL     1      23.702   3.950  49.452  1.00  0.00     0.158 C 
BRANCH  20  21
HETATM   21  N5  UNL     1      22.971   5.149  49.378  1.00  0.00    -0.408 N 
HETATM   22  C13 UNL     1      23.387   6.244  48.628  1.00  0.00     0.119 C 
HETATM   23  C14 UNL     1      24.222   7.252  49.406  1.00  0.00     0.055 C 
HETATM   24  C15 UNL     1      23.592   7.550  50.753  1.00  0.00     0.221 C 
HETATM   25  C16 UNL     1      22.194   6.957  50.839  1.00  0.00     0.055 C 
HETATM   26  C17 UNL     1      22.225   5.476  50.575  1.00  0.00     0.119 C 
BRANCH  24  27
HETATM   27  N6  UNL     1      24.372   7.043  51.855  1.00  0.00     0.083 N 
HETATM   28  H19 UNL     1      24.819   6.125  51.640  1.00  0.00     0.313 HD
HETATM   29  H20 UNL     1      23.766   6.991  52.696  1.00  0.00     0.313 HD
ENDBRANCH  24  27
ENDBRANCH  20  21
ENDBRANCH   8  20
TORSDOF 7
ENDMDL
MODEL 2
REMARK VINA RESULT:      -7.3      3.708      6.871
REMARK  7 active torsions:
REMARK  status: ('A' for Active; 'I' for Inactive)
REMARK    1  A    between atoms: C2_2  and  N1_9 
REMARK    2  A    between atoms: C3_3  and  C4_4 
REMARK    3  A    between atoms: C5_6  and  C6_7 
REMARK    4  A    between atoms: N1_9  and  C7_10 
REMARK    5  A    between atoms: C11_17  and  C12_18 
REMARK    6  A    between atoms: C12_18  and  N5_19 
REMARK    7  A    between atoms: C15_22  and  N6_23 
ROOT
HETATM    1  C7  UNL     1      23.698   3.694  51.849  1.00  0.00     0.159 A 
HETATM    2  N2  UNL     1      22.751   4.670  51.869  1.00  0.00    -0.220 NA
HETATM    3  C8  UNL     1      22.963   5.722  51.029  1.00  0.00     0.258 A 
HETATM    4  N3  UNL     1      24.048   5.772  50.239  1.00  0.00    -0.161 NA
HETATM    5  N4  UNL     1      24.956   4.812  50.237  1.00  0.00    -0.240 N 
HETATM    6  C9  UNL     1      26.105   4.566  49.568  1.00  0.00     0.119 A 
HETATM    7  C10 UNL     1      26.645   3.346  49.984  1.00  0.00     0.030 A 
HETATM    8  C11 UNL     1      25.809   2.808  50.946  1.00  0.00    -0.007 A 
HETATM    9  C18 UNL     1      24.815   3.747  51.039  1.00  0.00     0.112 A 
ENDROOT
BRANCH   1  10
HETATM   10  N1  UNL     1      23.297   2.638  52.750  1.00  0.00    -0.343 N 
HETATM   11  H8  UNL     1      23.516   2.230  53.685  1.00  0.00     0.167 HD
BRANCH  10  12
HETATM   12  C2  UNL     1      22.213   1.918  52.109  1.00  0.00     0.008 C 
HETATM   13  C1  UNL     1      22.255   1.288  50.748  1.00  0.00     0.068 C 
HETATM   14  C3  UNL     1      21.060   1.802  52.769  1.00  0.00     0.048 C 
BRANCH  14  15
HETATM   15  C4  UNL     1      19.858   1.149  52.335  1.00  0.00     0.033 C 
HETATM   16 CL1  UNL     1      18.700   1.796  51.163  1.00  0.00    -0.085 Cl
HETATM   17  C5  UNL     1      19.500  -0.059  52.803  1.00  0.00     0.012 C 
BRANCH  17  18
HETATM   18  C6  UNL     1      18.281  -0.802  52.410  1.00  0.00     0.143 C 
HETATM   19 CL2  UNL     1      17.877  -2.102  53.546  1.00  0.00    -0.126 Cl
ENDBRANCH  17  18
ENDBRANCH  14  15
ENDBRANCH  10  12
ENDBRANCH   1  10
BRANCH   8  20
HETATM   20  C12 UNL     1      26.121   1.582  51.673  1.00  0.00     0.158 C 
BRANCH  20  21
HETATM   21  N5  UNL     1      26.585   1.700  52.995  1.00  0.00    -0.408 N 
HETATM   22  C13 UNL     1      27.857   2.167  53.313  1.00  0.00     0.119 C 
HETATM   23  C14 UNL     1      28.906   1.072  53.452  1.00  0.00     0.055 C 
HETATM   24  C15 UNL     1      28.378  -0.080  54.283  1.00  0.00     0.221 C 
HETATM   25  C16 UNL     1      27.059   0.289  54.943  1.00  0.00     0.055 C 
HETATM   26  C17 UNL     1      26.048   0.718  53.914  1.00  0.00     0.119 C 
BRANCH  24  27
HETATM   27  N6  UNL     1      28.180  -1.280  53.507  1.00  0.00     0.083 N 
HETATM   28  H19 UNL     1      28.431  -1.153  52.502  1.00  0.00     0.313 HD
HETATM   29  H20 UNL     1      27.198  -1.594  53.624  1.00  0.00     0.313 HD
ENDBRANCH  24  27
ENDBRANCH  20  21
ENDBRANCH   8  20
TORSDOF 7
ENDMDL
MODEL 3
REMARK VINA RESULT:      -7.1      3.139      6.462
REMARK  7 active torsions:
REMARK  status: ('A' for Active; 'I' for Inactive)
REMARK    1  A    between atoms: C2_2  and  N1_9 
REMARK    2  A    between atoms: C3_3  and  C4_4 
REMARK    3  A    between atoms: C5_6  and  C6_7 
REMARK    4  A    between atoms: N1_9  and  C7_10 
REMARK    5  A    between atoms: C11_17  and  C12_18 
REMARK    6  A    between atoms: C12_18  and  N5_19 
REMARK    7  A    between atoms: C15_22  and  N6_23 
ROOT
HETATM    1  C7  UNL     1      22.965   3.523  52.167  1.00  0.00     0.159 A 
HETATM    2  N2  UNL     1      21.981   4.442  51.971  1.00  0.00    -0.220 NA
HETATM    3  C8  UNL     1      20.706   3.959  51.972  1.00  0.00     0.258 A 
HETATM    4  N3  UNL     1      20.460   2.652  52.156  1.00  0.00    -0.161 NA
HETATM    5  N4  UNL     1      21.432   1.777  52.344  1.00  0.00    -0.240 N 
HETATM    6  C9  UNL     1      21.508   0.445  52.571  1.00  0.00     0.119 A 
HETATM    7  C10 UNL     1      22.844   0.063  52.713  1.00  0.00     0.030 A 
HETATM    8  C11 UNL     1      23.635   1.189  52.569  1.00  0.00    -0.007 A 
HETATM    9  C18 UNL     1      22.711   2.178  52.353  1.00  0.00     0.112 A 
ENDROOT
BRANCH   1  10
HETATM   10  N1  UNL     1      24.240   4.203  52.190  1.00  0.00    -0.343 N 
HETATM   11  H8  UNL     1      24.986   4.523  52.843  1.00  0.00     0.167 HD
BRANCH  10  12
HETATM   12  C2  UNL     1      24.569   4.539  50.818  1.00  0.00     0.008 C 
HETATM   13  C1  UNL     1      24.657   3.576  49.670  1.00  0.00     0.068 C 
HETATM   14  C3  UNL     1      24.831   5.814  50.529  1.00  0.00     0.048 C 
BRANCH  14  15
HETATM   15  C4  UNL     1      25.185   6.375  49.256  1.00  0.00     0.033 C 
HETATM   16 CL1  UNL     1      24.082   6.610  47.892  1.00  0.00    -0.085 Cl
HETATM   17  C5  UNL     1      26.437   6.785  48.987  1.00  0.00     0.012 C 
BRANCH  17  18
HETATM   18  C6  UNL     1      26.886   7.374  47.705  1.00  0.00     0.143 C 
HETATM   19 CL2  UNL     1      28.585   7.014  47.347  1.00  0.00    -0.126 Cl
ENDBRANCH  17  18
ENDBRANCH  14  15
ENDBRANCH  10  12
ENDBRANCH   1  10
BRANCH   8  20
HETATM   20  C12 UNL     1      25.093   1.140  52.558  1.00  0.00     0.158 C 
BRANCH  20  21
HETATM   21  N5  UNL     1      25.718  -0.006  53.081  1.00  0.00    -0.408 N 
HETATM   22  C13 UNL     1      25.881  -0.225  54.445  1.00  0.00     0.119 C 
HETATM   23  C14 UNL     1      27.205   0.279  55.003  1.00  0.00     0.055 C 
HETATM   24  C15 UNL     1      28.358  -0.128  54.107  1.00  0.00     0.221 C 
HETATM   25  C16 UNL     1      27.899  -1.123  53.054  1.00  0.00     0.055 C 
HETATM   26  C17 UNL     1      26.762  -0.559  52.245  1.00  0.00     0.119 C 
BRANCH  24  27
HETATM   27  N6  UNL     1      28.966   0.997  53.439  1.00  0.00     0.083 N 
HETATM   28  H19 UNL     1      28.759   1.014  52.415  1.00  0.00     0.313 HD
HETATM   29  H20 UNL     1      29.986   0.985  53.627  1.00  0.00     0.313 HD
ENDBRANCH  24  27
ENDBRANCH  20  21
ENDBRANCH   8  20
TORSDOF 7
ENDMDL
MODEL 4
REMARK VINA RESULT:      -7.1      3.295      6.434
REMARK  7 active torsions:
REMARK  status: ('A' for Active; 'I' for Inactive)
REMARK    1  A    between atoms: C2_2  and  N1_9 
REMARK    2  A    between atoms: C3_3  and  C4_4 
REMARK    3  A    between atoms: C5_6  and  C6_7 
REMARK    4  A    between atoms: N1_9  and  C7_10 
REMARK    5  A    between atoms: C11_17  and  C12_18 
REMARK    6  A    between atoms: C12_18  and  N5_19 
REMARK    7  A    between atoms: C15_22  and  N6_23 
ROOT
HETATM    1  C7  UNL     1      22.290   1.239  51.917  1.00  0.00     0.159 A 
HETATM    2  N2  UNL     1      21.190   1.887  51.445  1.00  0.00    -0.220 NA
HETATM    3  C8  UNL     1      20.038   1.693  52.147  1.00  0.00     0.258 A 
HETATM    4  N3  UNL     1      20.013   0.906  53.235  1.00  0.00    -0.161 NA
HETATM    5  N4  UNL     1      21.094   0.286  53.675  1.00  0.00    -0.240 N 
HETATM    6  C9  UNL     1      21.390  -0.528  54.714  1.00  0.00     0.119 A 
HETATM    7  C10 UNL     1      22.745  -0.867  54.680  1.00  0.00     0.030 A 
HETATM    8  C11 UNL     1      23.320  -0.249  53.584  1.00  0.00    -0.007 A 
HETATM    9  C18 UNL     1      22.263   0.428  53.034  1.00  0.00     0.112 A 
ENDROOT
BRANCH   1  10
HETATM   10  N1  UNL     1      23.426   1.592  51.096  1.00  0.00    -0.343 N 
HETATM   11  H8  UNL     1      24.084   1.194  50.393  1.00  0.00     0.167 HD
BRANCH  10  12
HETATM   12  C2  UNL     1      23.725   2.987  51.358  1.00  0.00     0.008 C 
HETATM   13  C1  UNL     1      23.859   3.622  52.712  1.00  0.00     0.068 C 
HETATM   14  C3  UNL     1      23.893   3.800  50.314  1.00  0.00     0.048 C 
BRANCH  14  15
HETATM   15  C4  UNL     1      24.184   5.206  50.330  1.00  0.00     0.033 C 
HETATM   16 CL1  UNL     1      23.043   6.489  50.761  1.00  0.00    -0.085 Cl
HETATM   17  C5  UNL     1      25.399   5.680  50.005  1.00  0.00     0.012 C 
BRANCH  17  18
HETATM   18  C6  UNL     1      25.784   7.110  49.996  1.00  0.00     0.143 C 
HETATM   19 CL2  UNL     1      25.408   7.909  48.458  1.00  0.00    -0.126 Cl
ENDBRANCH  17  18
ENDBRANCH  14  15
ENDBRANCH  10  12
ENDBRANCH   1  10
BRANCH   8  20
HETATM   20  C12 UNL     1      24.706  -0.468  53.185  1.00  0.00     0.158 C 
BRANCH  20  21
HETATM   21  N5  UNL     1      25.690   0.373  53.733  1.00  0.00    -0.408 N 
HETATM   22  C13 UNL     1      26.497   1.201  52.958  1.00  0.00     0.119 C 
HETATM   23  C14 UNL     1      27.818   0.569  52.541  1.00  0.00     0.055 C 
HETATM   24  C15 UNL     1      28.483  -0.120  53.716  1.00  0.00     0.221 C 
HETATM   25  C16 UNL     1      27.774   0.224  55.016  1.00  0.00     0.055 C 
HETATM   26  C17 UNL     1      26.313  -0.131  54.938  1.00  0.00     0.119 C 
BRANCH  24  27
HETATM   27  N6  UNL     1      28.508  -1.556  53.576  1.00  0.00     0.083 N 
HETATM   28  H19 UNL     1      27.976  -1.886  52.740  1.00  0.00     0.313 HD
HETATM   29  H20 UNL     1      28.155  -1.982  54.453  1.00  0.00     0.313 HD
ENDBRANCH  24  27
ENDBRANCH  20  21
ENDBRANCH   8  20
TORSDOF 7
ENDMDL
MODEL 5
REMARK VINA RESULT:      -7.1      1.591      2.398
REMARK  7 active torsions:
REMARK  status: ('A' for Active; 'I' for Inactive)
REMARK    1  A    between atoms: C2_2  and  N1_9 
REMARK    2  A    between atoms: C3_3  and  C4_4 
REMARK    3  A    between atoms: C5_6  and  C6_7 
REMARK    4  A    between atoms: N1_9  and  C7_10 
REMARK    5  A    between atoms: C11_17  and  C12_18 
REMARK    6  A    between atoms: C12_18  and  N5_19 
REMARK    7  A    between atoms: C15_22  and  N6_23 
ROOT
HETATM    1  C7  UNL     1      23.345   2.695  50.772  1.00  0.00     0.159 A 
HETATM    2  N2  UNL     1      23.055   1.365  50.746  1.00  0.00    -0.220 NA
HETATM    3  C8  UNL     1      21.742   1.040  50.914  1.00  0.00     0.258 A 
HETATM    4  N3  UNL     1      20.809   1.988  51.092  1.00  0.00    -0.161 NA
HETATM    5  N4  UNL     1      21.114   3.273  51.115  1.00  0.00    -0.240 N 
HETATM    6  C9  UNL     1      20.427   4.431  51.248  1.00  0.00     0.119 A 
HETATM    7  C10 UNL     1      21.305   5.516  51.173  1.00  0.00     0.030 A 
HETATM    8  C11 UNL     1      22.585   5.025  50.986  1.00  0.00    -0.007 A 
HETATM    9  C18 UNL     1      22.385   3.669  50.959  1.00  0.00     0.112 A 
ENDROOT
BRANCH   1  10
HETATM   10  N1  UNL     1      24.759   2.867  50.529  1.00  0.00    -0.343 N 
HETATM   11  H8  UNL     1      25.434   3.161  49.791  1.00  0.00     0.167 HD
BRANCH  10  12
HETATM   12  C2  UNL     1      25.450   2.505  51.753  1.00  0.00     0.008 C 
HETATM   13  C1  UNL     1      24.939   2.711  53.149  1.00  0.00     0.068 C 
HETATM   14  C3  UNL     1      26.656   1.944  51.650  1.00  0.00     0.048 C 
BRANCH  14  15
HETATM   15  C4  UNL     1      27.521   1.515  52.712  1.00  0.00     0.033 C 
HETATM   16 CL1  UNL     1      28.562   2.569  53.681  1.00  0.00    -0.085 Cl
HETATM   17  C5  UNL     1      27.614   0.224  53.071  1.00  0.00     0.012 C 
BRANCH  17  18
HETATM   18  C6  UNL     1      28.478  -0.304  54.151  1.00  0.00     0.143 C 
HETATM   19 CL2  UNL     1      30.025  -0.926  53.547  1.00  0.00    -0.126 Cl
ENDBRANCH  17  18
ENDBRANCH  14  15
ENDBRANCH  10  12
ENDBRANCH   1  10
BRANCH   8  20
HETATM   20  C12 UNL     1      23.767   5.880  50.965  1.00  0.00     0.158 C 
BRANCH  20  21
HETATM   21  N5  UNL     1      24.032   6.610  49.793  1.00  0.00    -0.408 N 
HETATM   22  C13 UNL     1      24.888   6.156  48.795  1.00  0.00     0.119 C 
HETATM   23  C14 UNL     1      26.329   6.623  48.950  1.00  0.00     0.055 C 
HETATM   24  C15 UNL     1      26.386   8.103  49.272  1.00  0.00     0.221 C 
HETATM   25  C16 UNL     1      25.018   8.746  49.104  1.00  0.00     0.055 C 
HETATM   26  C17 UNL     1      23.992   8.048  49.955  1.00  0.00     0.119 C 
BRANCH  24  27
HETATM   27  N6  UNL     1      26.850   8.363  50.613  1.00  0.00     0.083 N 
HETATM   28  H19 UNL     1      27.057   7.486  51.142  1.00  0.00     0.313 HD
HETATM   29  H20 UNL     1      26.150   8.952  51.100  1.00  0.00     0.313 HD
ENDBRANCH  24  27
ENDBRANCH  20  21
ENDBRANCH   8  20
TORSDOF 7
ENDMDL
MODEL 6
REMARK VINA RESULT:      -7.1      3.059      6.458
REMARK  7 active torsions:
REMARK  status: ('A' for Active; 'I' for Inactive)
REMARK    1  A    between atoms: C2_2  and  N1_9 
REMARK    2  A    between atoms: C3_3  and  C4_4 
REMARK    3  A    between atoms: C5_6  and  C6_7 
REMARK    4  A    between atoms: N1_9  and  C7_10 
REMARK    5  A    between atoms: C11_17  and  C12_18 
REMARK    6  A    between atoms: C12_18  and  N5_19 
REMARK    7  A    between atoms: C15_22  and  N6_23 
ROOT
HETATM    1  C7  UNL     1      23.353   3.628  51.330  1.00  0.00     0.159 A 
HETATM    2  N2  UNL     1      22.471   4.090  50.403  1.00  0.00    -0.220 NA
HETATM    3  C8  UNL     1      21.454   3.243  50.076  1.00  0.00     0.258 A 
HETATM    4  N3  UNL     1      21.349   2.032  50.646  1.00  0.00    -0.161 NA
HETATM    5  N4  UNL     1      22.218   1.604  51.544  1.00  0.00    -0.240 N 
HETATM    6  C9  UNL     1      22.370   0.487  52.291  1.00  0.00     0.119 A 
HETATM    7  C10 UNL     1      23.500   0.610  53.105  1.00  0.00     0.030 A 
HETATM    8  C11 UNL     1      24.077   1.843  52.862  1.00  0.00    -0.007 A 
HETATM    9  C18 UNL     1      23.246   2.381  51.914  1.00  0.00     0.112 A 
ENDROOT
BRANCH   1  10
HETATM   10  N1  UNL     1      24.329   4.660  51.599  1.00  0.00    -0.343 N 
HETATM   11  H8  UNL     1      24.638   5.322  52.343  1.00  0.00     0.167 HD
BRANCH  10  12
HETATM   12  C2  UNL     1      25.148   4.793  50.409  1.00  0.00     0.008 C 
HETATM   13  C1  UNL     1      25.639   3.669  49.545  1.00  0.00     0.068 C 
HETATM   14  C3  UNL     1      25.516   6.020  50.035  1.00  0.00     0.048 C 
BRANCH  14  15
HETATM   15  C4  UNL     1      26.325   6.392  48.909  1.00  0.00     0.033 C 
HETATM   16 CL1  UNL     1      27.837   5.610  48.425  1.00  0.00    -0.085 Cl
HETATM   17  C5  UNL     1      25.984   7.407  48.097  1.00  0.00     0.012 C 
BRANCH  17  18
HETATM   18  C6  UNL     1      26.757   7.855  46.918  1.00  0.00     0.143 C 
HETATM   19 CL2  UNL     1      27.040   9.606  46.910  1.00  0.00    -0.126 Cl
ENDBRANCH  17  18
ENDBRANCH  14  15
ENDBRANCH  10  12
ENDBRANCH   1  10
BRANCH   8  20
HETATM   20  C12 UNL     1      25.337   2.264  53.468  1.00  0.00     0.158 C 
BRANCH  20  21
HETATM   21  N5  UNL     1      26.530   1.935  52.801  1.00  0.00    -0.408 N 
HETATM   22  C13 UNL     1      26.638   0.861  51.924  1.00  0.00     0.119 C 
HETATM   23  C14 UNL     1      27.100  -0.434  52.579  1.00  0.00     0.055 C 
HETATM   24  C15 UNL     1      28.281  -0.185  53.495  1.00  0.00     0.221 C 
HETATM   25  C16 UNL     1      28.820   1.225  53.310  1.00  0.00     0.055 C 
HETATM   26  C17 UNL     1      27.737   2.245  53.537  1.00  0.00     0.119 C 
BRANCH  24  27
HETATM   27  N6  UNL     1      27.953  -0.369  54.887  1.00  0.00     0.083 N 
HETATM   28  H19 UNL     1      28.160   0.477  55.463  1.00  0.00     0.313 HD
HETATM   29  H20 UNL     1      28.452  -1.208  55.240  1.00  0.00     0.313 HD
ENDBRANCH  24  27
ENDBRANCH  20  21
ENDBRANCH   8  20
TORSDOF 7
ENDMDL
MODEL 7
REMARK VINA RESULT:      -6.9      3.268      6.827
REMARK  7 active torsions:
REMARK  status: ('A' for Active; 'I' for Inactive)
REMARK    1  A    between atoms: C2_2  and  N1_9 
REMARK    2  A    between atoms: C3_3  and  C4_4 
REMARK    3  A    between atoms: C5_6  and  C6_7 
REMARK    4  A    between atoms: N1_9  and  C7_10 
REMARK    5  A    between atoms: C11_17  and  C12_18 
REMARK    6  A    between atoms: C12_18  and  N5_19 
REMARK    7  A    between atoms: C15_22  and  N6_23 
ROOT
HETATM    1  C7  UNL     1      23.338   2.135  50.546  1.00  0.00     0.159 A 
HETATM    2  N2  UNL     1      22.548   2.138  49.438  1.00  0.00    -0.220 NA
HETATM    3  C8  UNL     1      21.515   1.249  49.443  1.00  0.00     0.258 A 
HETATM    4  N3  UNL     1      21.309   0.429  50.486  1.00  0.00    -0.161 NA
HETATM    5  N4  UNL     1      22.090   0.443  51.551  1.00  0.00    -0.240 N 
HETATM    6  C9  UNL     1      22.133  -0.217  52.731  1.00  0.00     0.119 A 
HETATM    7  C10 UNL     1      23.208   0.246  53.495  1.00  0.00     0.030 A 
HETATM    8  C11 UNL     1      23.863   1.228  52.772  1.00  0.00    -0.007 A 
HETATM    9  C18 UNL     1      23.128   1.290  51.617  1.00  0.00     0.112 A 
ENDROOT
BRANCH   1  10
HETATM   10  N1  UNL     1      24.344   3.163  50.403  1.00  0.00    -0.343 N 
HETATM   11  H8  UNL     1      25.348   3.299  50.159  1.00  0.00     0.167 HD
BRANCH  10  12
HETATM   12  C2  UNL     1      23.704   4.430  50.703  1.00  0.00     0.008 C 
HETATM   13  C1  UNL     1      22.924   4.753  51.944  1.00  0.00     0.068 C 
HETATM   14  C3  UNL     1      23.798   5.410  49.803  1.00  0.00     0.048 C 
BRANCH  14  15
HETATM   15  C4  UNL     1      23.244   6.732  49.877  1.00  0.00     0.033 C 
HETATM   16 CL1  UNL     1      23.900   8.070  50.833  1.00  0.00    -0.085 Cl
HETATM   17  C5  UNL     1      22.136   7.075  49.199  1.00  0.00     0.012 C 
BRANCH  17  18
HETATM   18  C6  UNL     1      21.500   8.411  49.219  1.00  0.00     0.143 C 
HETATM   19 CL2  UNL     1      19.826   8.363  49.800  1.00  0.00    -0.126 Cl
ENDBRANCH  17  18
ENDBRANCH  14  15
ENDBRANCH  10  12
ENDBRANCH   1  10
BRANCH   8  20
HETATM   20  C12 UNL     1      25.097   1.860  53.228  1.00  0.00     0.158 C 
BRANCH  20  21
HETATM   21  N5  UNL     1      26.300   1.478  52.609  1.00  0.00    -0.408 N 
HETATM   22  C13 UNL     1      26.468   0.256  51.967  1.00  0.00     0.119 C 
HETATM   23  C14 UNL     1      27.027  -0.845  52.859  1.00  0.00     0.055 C 
HETATM   24  C15 UNL     1      28.202  -0.337  53.671  1.00  0.00     0.221 C 
HETATM   25  C16 UNL     1      28.641   1.036  53.187  1.00  0.00     0.055 C 
HETATM   26  C17 UNL     1      27.494   2.010  53.232  1.00  0.00     0.119 C 
BRANCH  24  27
HETATM   27  N6  UNL     1      27.908  -0.251  55.080  1.00  0.00     0.083 N 
HETATM   28  H19 UNL     1      27.295   0.561  55.313  1.00  0.00     0.313 HD
HETATM   29  H20 UNL     1      28.802  -0.224  55.606  1.00  0.00     0.313 HD
ENDBRANCH  24  27
ENDBRANCH  20  21
ENDBRANCH   8  20
TORSDOF 7
ENDMDL
MODEL 8
REMARK VINA RESULT:      -6.9      3.344      6.352
REMARK  7 active torsions:
REMARK  status: ('A' for Active; 'I' for Inactive)
REMARK    1  A    between atoms: C2_2  and  N1_9 
REMARK    2  A    between atoms: C3_3  and  C4_4 
REMARK    3  A    between atoms: C5_6  and  C6_7 
REMARK    4  A    between atoms: N1_9  and  C7_10 
REMARK    5  A    between atoms: C11_17  and  C12_18 
REMARK    6  A    between atoms: C12_18  and  N5_19 
REMARK    7  A    between atoms: C15_22  and  N6_23 
ROOT
HETATM    1  C7  UNL     1      24.855   0.264  53.050  1.00  0.00     0.159 A 
HETATM    2  N2  UNL     1      26.141   0.507  53.423  1.00  0.00    -0.220 NA
HETATM    3  C8  UNL     1      26.504   0.032  54.649  1.00  0.00     0.258 A 
HETATM    4  N3  UNL     1      25.629  -0.631  55.423  1.00  0.00    -0.161 NA
HETATM    5  N4  UNL     1      24.385  -0.854  55.039  1.00  0.00    -0.240 N 
HETATM    6  C9  UNL     1      23.308  -1.485  55.560  1.00  0.00     0.119 A 
HETATM    7  C10 UNL     1      22.237  -1.413  54.666  1.00  0.00     0.030 A 
HETATM    8  C11 UNL     1      22.652  -0.714  53.547  1.00  0.00    -0.007 A 
HETATM    9  C18 UNL     1      23.956  -0.415  53.848  1.00  0.00     0.112 A 
ENDROOT
BRANCH   1  10
HETATM   10  N1  UNL     1      24.653   0.782  51.716  1.00  0.00    -0.343 N 
HETATM   11  H8  UNL     1      24.692   0.501  50.713  1.00  0.00     0.167 HD
BRANCH  10  12
HETATM   12  C2  UNL     1      24.252   2.170  51.853  1.00  0.00     0.008 C 
HETATM   13  C1  UNL     1      24.268   2.972  53.122  1.00  0.00     0.068 C 
HETATM   14  C3  UNL     1      23.819   2.809  50.765  1.00  0.00     0.048 C 
BRANCH  14  15
HETATM   15  C4  UNL     1      23.367   4.167  50.663  1.00  0.00     0.033 C 
HETATM   16 CL1  UNL     1      21.935   4.838  51.458  1.00  0.00    -0.085 Cl
HETATM   17  C5  UNL     1      24.023   5.078  49.923  1.00  0.00     0.012 C 
BRANCH  17  18
HETATM   18  C6  UNL     1      23.627   6.495  49.763  1.00  0.00     0.143 C 
HETATM   19 CL2  UNL     1      24.189   7.516  51.100  1.00  0.00    -0.126 Cl
ENDBRANCH  17  18
ENDBRANCH  14  15
ENDBRANCH  10  12
ENDBRANCH   1  10
BRANCH   8  20
HETATM   20  C12 UNL     1      21.755  -0.362  52.451  1.00  0.00     0.158 C 
BRANCH  20  21
HETATM   21  N5  UNL     1      20.582   0.348  52.762  1.00  0.00    -0.408 N 
HETATM   22  C13 UNL     1      19.333  -0.258  52.861  1.00  0.00     0.119 C 
HETATM   23  C14 UNL     1      18.533  -0.250  51.565  1.00  0.00     0.055 C 
HETATM   24  C15 UNL     1      18.576   1.118  50.912  1.00  0.00     0.221 C 
HETATM   25  C16 UNL     1      19.188   2.146  51.850  1.00  0.00     0.055 C 
HETATM   26  C17 UNL     1      20.562   1.716  52.291  1.00  0.00     0.119 C 
BRANCH  24  27
HETATM   27  N6  UNL     1      19.325   1.122  49.679  1.00  0.00     0.083 N 
HETATM   28  H19 UNL     1      20.311   1.439  49.811  1.00  0.00     0.313 HD
HETATM   29  H20 UNL     1      18.820   1.705  48.985  1.00  0.00     0.313 HD
ENDBRANCH  24  27
ENDBRANCH  20  21
ENDBRANCH   8  20
TORSDOF 7
ENDMDL
MODEL 9
REMARK VINA RESULT:      -6.8      1.756      4.838
REMARK  7 active torsions:
REMARK  status: ('A' for Active; 'I' for Inactive)
REMARK    1  A    between atoms: C2_2  and  N1_9 
REMARK    2  A    between atoms: C3_3  and  C4_4 
REMARK    3  A    between atoms: C5_6  and  C6_7 
REMARK    4  A    between atoms: N1_9  and  C7_10 
REMARK    5  A    between atoms: C11_17  and  C12_18 
REMARK    6  A    between atoms: C12_18  and  N5_19 
REMARK    7  A    between atoms: C15_22  and  N6_23 
ROOT
HETATM    1  C7  UNL     1      24.158   4.085  51.151  1.00  0.00     0.159 A 
HETATM    2  N2  UNL     1      25.250   4.770  50.715  1.00  0.00    -0.220 NA
HETATM    3  C8  UNL     1      25.209   5.190  49.419  1.00  0.00     0.258 A 
HETATM    4  N3  UNL     1      24.147   4.933  48.639  1.00  0.00    -0.161 NA
HETATM    5  N4  UNL     1      23.098   4.266  49.084  1.00  0.00    -0.240 N 
HETATM    6  C9  UNL     1      21.907   3.878  48.573  1.00  0.00     0.119 A 
HETATM    7  C10 UNL     1      21.172   3.195  49.546  1.00  0.00     0.030 A 
HETATM    8  C11 UNL     1      21.925   3.151  50.706  1.00  0.00    -0.007 A 
HETATM    9  C18 UNL     1      23.067   3.819  50.347  1.00  0.00     0.112 A 
ENDROOT
BRANCH   1  10
HETATM   10  N1  UNL     1      24.339   3.762  52.548  1.00  0.00    -0.343 N 
HETATM   11  H8  UNL     1      24.081   4.086  53.504  1.00  0.00     0.167 HD
BRANCH  10  12
HETATM   12  C2  UNL     1      25.161   2.568  52.606  1.00  0.00     0.008 C 
HETATM   13  C1  UNL     1      25.605   1.743  51.434  1.00  0.00     0.068 C 
HETATM   14  C3  UNL     1      25.565   2.142  53.804  1.00  0.00     0.048 C 
BRANCH  14  15
HETATM   15  C4  UNL     1      26.370   0.993  54.105  1.00  0.00     0.033 C 
HETATM   16 CL1  UNL     1      25.774  -0.666  54.272  1.00  0.00    -0.085 Cl
HETATM   17  C5  UNL     1      27.698   1.087  54.293  1.00  0.00     0.012 C 
BRANCH  17  18
HETATM   18  C6  UNL     1      28.600  -0.044  54.605  1.00  0.00     0.143 C 
HETATM   19 CL2  UNL     1      29.123  -0.922  53.156  1.00  0.00    -0.126 Cl
ENDBRANCH  17  18
ENDBRANCH  14  15
ENDBRANCH  10  12
ENDBRANCH   1  10
BRANCH   8  20
HETATM   20  C12 UNL     1      21.505   2.422  51.898  1.00  0.00     0.158 C 
BRANCH  20  21
HETATM   21  N5  UNL     1      21.507   1.017  51.847  1.00  0.00    -0.408 N 
HETATM   22  C13 UNL     1      20.366   0.266  51.582  1.00  0.00     0.119 C 
HETATM   23  C14 UNL     1      19.602  -0.165  52.827  1.00  0.00     0.055 C 
HETATM   24  C15 UNL     1      20.547  -0.713  53.878  1.00  0.00     0.221 C 
HETATM   25  C16 UNL     1      21.942  -0.906  53.304  1.00  0.00     0.055 C 
HETATM   26  C17 UNL     1      22.465   0.383  52.727  1.00  0.00     0.119 C 
BRANCH  24  27
HETATM   27  N6  UNL     1      20.645   0.141  55.037  1.00  0.00     0.083 N 
HETATM   28  H19 UNL     1      20.453   1.143  54.813  1.00  0.00     0.313 HD
HETATM   29  H20 UNL     1      21.581   0.014  55.467  1.00  0.00     0.313 HD
ENDBRANCH  24  27
ENDBRANCH  20  21
ENDBRANCH   8  20
TORSDOF 7
ENDMDL
