MODEL 1
REMARK VINA RESULT:      -8.1      0.000      0.000
REMARK  4 active torsions:
REMARK  status: ('A' for Active; 'I' for Inactive)
REMARK    1  A    between atoms: N1_5  and  C5_6 
REMARK    2  A    between atoms: C10_12  and  C11_13 
REMARK    3  A    between atoms: C12_14  and  C13_15 
REMARK    4  A    between atoms: C13_15  and  N3_16 
ROOT
HETATM    1  C5  UNL     1      26.007   1.470  52.549  1.00  0.00     0.178 C 
HETATM    2  C6  UNL     1      26.404   2.085  51.304  1.00  0.00     0.101 C 
HETATM    3  N2  UNL     1      26.734   2.579  50.302  1.00  0.00    -0.194 NA
HETATM    4  C7  UNL     1      25.338   2.483  53.455  1.00  0.00     0.022 C 
HETATM    5  C8  UNL     1      24.259   3.085  52.945  1.00  0.00    -0.024 C 
HETATM    6  C9  UNL     1      23.561   2.975  51.656  1.00  0.00     0.058 C 
HETATM    7  C10 UNL     1      22.110   2.510  51.845  1.00  0.00     0.135 C 
HETATM    8  N4  UNL     1      22.175   1.180  52.456  1.00  0.00    -0.274 NA
HETATM    9  C16 UNL     1      21.892   0.945  53.676  1.00  0.00     0.228 C 
HETATM   10  N5  UNL     1      22.147  -0.460  53.630  1.00  0.00    -0.236 NA
HETATM   11  C17 UNL     1      23.366  -0.927  53.542  1.00  0.00     0.233 C 
HETATM   12  N6  UNL     1      24.403   0.032  53.497  1.00  0.00    -0.254 NA
HETATM   13  C18 UNL     1      24.910   0.445  52.381  1.00  0.00     0.142 C 
ENDROOT
BRANCH   1  14
HETATM   14  N1  UNL     1      27.190   0.917  53.151  1.00  0.00    -0.331 N 
HETATM   15  C3  UNL     1      27.519  -0.429  52.826  1.00  0.00     0.012 A 
HETATM   16  C2  UNL     1      28.601  -0.988  53.370  1.00  0.00    -0.058 A 
HETATM   17  C4  UNL     1      26.787  -1.315  51.918  1.00  0.00     0.068 C 
HETATM   18  C1  UNL     1      29.024  -2.389  53.083  1.00  0.00     0.046 C 
HETATM   19  C21 UNL     1      29.527  -0.335  54.312  1.00  0.00     0.064 A 
HETATM   20  C20 UNL     1      29.130   1.039  54.599  1.00  0.00    -0.005 A 
HETATM   21  C19 UNL     1      28.058   1.563  54.045  1.00  0.00     0.090 A 
ENDBRANCH   1  14
BRANCH   7  22
HETATM   22  C11 UNL     1      21.413   2.411  50.557  1.00  0.00    -0.002 C 
HETATM   23  C12 UNL     1      21.924   1.816  49.516  1.00  0.00     0.001 C 
BRANCH  23  24
HETATM   24  C13 UNL     1      21.180   1.732  48.207  1.00  0.00     0.298 C 
BRANCH  24  25
HETATM   25  N3  UNL     1      20.914   3.035  47.675  1.00  0.00     0.083 N 
HETATM   26  C14 UNL     1      19.587   3.232  47.177  1.00  0.00     0.309 C 
HETATM   27  C15 UNL     1      21.917   3.531  46.766  1.00  0.00     0.309 C 
ENDBRANCH  24  25
ENDBRANCH  23  24
ENDBRANCH   7  22
TORSDOF 4
ENDMDL
MODEL 2
REMARK VINA RESULT:      -7.8      1.331      2.049
REMARK  4 active torsions:
REMARK  status: ('A' for Active; 'I' for Inactive)
REMARK    1  A    between atoms: N1_5  and  C5_6 
REMARK    2  A    between atoms: C10_12  and  C11_13 
REMARK    3  A    between atoms: C12_14  and  C13_15 
REMARK    4  A    between atoms: C13_15  and  N3_16 
ROOT
HETATM    1  C5  UNL     1      25.501   1.632  52.137  1.00  0.00     0.178 C 
HETATM    2  C6  UNL     1      26.176   2.468  51.172  1.00  0.00     0.101 C 
HETATM    3  N2  UNL     1      26.729   3.136  50.395  1.00  0.00    -0.194 NA
HETATM    4  C7  UNL     1      25.088   2.443  53.348  1.00  0.00     0.022 C 
HETATM    5  C8  UNL     1      24.290   3.485  53.096  1.00  0.00    -0.024 C 
HETATM    6  C9  UNL     1      23.711   4.033  51.860  1.00  0.00     0.058 C 
HETATM    7  C10 UNL     1      22.177   4.011  51.904  1.00  0.00     0.135 C 
HETATM    8  N4  UNL     1      21.784   2.605  52.021  1.00  0.00    -0.274 NA
HETATM    9  C16 UNL     1      21.333   2.080  53.092  1.00  0.00     0.228 C 
HETATM   10  N5  UNL     1      21.158   0.765  52.562  1.00  0.00    -0.236 NA
HETATM   11  C17 UNL     1      22.184  -0.004  52.297  1.00  0.00     0.233 C 
HETATM   12  N6  UNL     1      23.460   0.540  52.564  1.00  0.00    -0.254 NA
HETATM   13  C18 UNL     1      24.167   1.118  51.648  1.00  0.00     0.142 C 
ENDROOT
BRANCH   1  14
HETATM   14  N1  UNL     1      26.403   0.570  52.492  1.00  0.00    -0.331 N 
HETATM   15  C3  UNL     1      27.631   0.938  53.111  1.00  0.00     0.012 A 
HETATM   16  C2  UNL     1      28.505  -0.013  53.446  1.00  0.00    -0.058 A 
HETATM   17  C4  UNL     1      28.071   2.293  53.448  1.00  0.00     0.068 C 
HETATM   18  C1  UNL     1      29.812   0.280  54.103  1.00  0.00     0.046 C 
HETATM   19  C21 UNL     1      28.329  -1.460  53.234  1.00  0.00     0.064 A 
HETATM   20  C20 UNL     1      27.052  -1.763  52.598  1.00  0.00    -0.005 A 
HETATM   21  C19 UNL     1      26.210  -0.803  52.280  1.00  0.00     0.090 A 
ENDBRANCH   1  14
BRANCH   7  22
HETATM   22  C11 UNL     1      21.603   4.568  50.674  1.00  0.00    -0.002 C 
HETATM   23  C12 UNL     1      22.111   4.354  49.493  1.00  0.00     0.001 C 
BRANCH  23  24
HETATM   24  C13 UNL     1      21.495   4.942  48.248  1.00  0.00     0.298 C 
BRANCH  24  25
HETATM   25  N3  UNL     1      21.486   3.994  47.174  1.00  0.00     0.083 N 
HETATM   26  C14 UNL     1      22.072   2.725  47.474  1.00  0.00     0.309 C 
HETATM   27  C15 UNL     1      21.933   4.516  45.906  1.00  0.00     0.309 C 
ENDBRANCH  24  25
ENDBRANCH  23  24
ENDBRANCH   7  22
TORSDOF 4
ENDMDL
MODEL 3
REMARK VINA RESULT:      -7.7      3.408      6.709
REMARK  4 active torsions:
REMARK  status: ('A' for Active; 'I' for Inactive)
REMARK    1  A    between atoms: N1_5  and  C5_6 
REMARK    2  A    between atoms: C10_12  and  C11_13 
REMARK    3  A    between atoms: C12_14  and  C13_15 
REMARK    4  A    between atoms: C13_15  and  N3_16 
ROOT
HETATM    1  C5  UNL     1      22.476   2.553  51.464  1.00  0.00     0.178 C 
HETATM    2  C6  UNL     1      21.618   3.713  51.436  1.00  0.00     0.101 C 
HETATM    3  N2  UNL     1      20.918   4.644  51.419  1.00  0.00    -0.194 NA
HETATM    4  C7  UNL     1      22.798   2.093  50.057  1.00  0.00     0.022 C 
HETATM    5  C8  UNL     1      23.384   3.005  49.275  1.00  0.00    -0.024 C 
HETATM    6  C9  UNL     1      23.796   4.400  49.491  1.00  0.00     0.058 C 
HETATM    7  C10 UNL     1      25.310   4.571  49.305  1.00  0.00     0.135 C 
HETATM    8  N4  UNL     1      25.951   3.732  50.320  1.00  0.00    -0.274 NA
HETATM    9  C16 UNL     1      26.540   2.631  50.063  1.00  0.00     0.228 C 
HETATM   10  N5  UNL     1      26.920   2.337  51.408  1.00  0.00    -0.236 NA
HETATM   11  C17 UNL     1      26.035   1.967  52.299  1.00  0.00     0.233 C 
HETATM   12  N6  UNL     1      24.697   1.877  51.854  1.00  0.00    -0.254 NA
HETATM   13  C18 UNL     1      23.855   2.847  52.008  1.00  0.00     0.142 C 
ENDROOT
BRANCH   1  14
HETATM   14  N1  UNL     1      21.795   1.533  52.214  1.00  0.00    -0.331 N 
HETATM   15  C3  UNL     1      20.559   1.056  51.693  1.00  0.00     0.012 A 
HETATM   16  C2  UNL     1      19.885   0.119  52.361  1.00  0.00    -0.058 A 
HETATM   17  C4  UNL     1      19.908   1.484  50.453  1.00  0.00     0.068 C 
HETATM   18  C1  UNL     1      18.586  -0.441  51.888  1.00  0.00     0.046 C 
HETATM   19  C21 UNL     1      20.299  -0.501  53.632  1.00  0.00     0.064 A 
HETATM   20  C20 UNL     1      21.572   0.032  54.105  1.00  0.00    -0.005 A 
HETATM   21  C19 UNL     1      22.214   0.956  53.423  1.00  0.00     0.090 A 
ENDBRANCH   1  14
BRANCH   7  22
HETATM   22  C11 UNL     1      25.715   5.966  49.511  1.00  0.00    -0.002 C 
HETATM   23  C12 UNL     1      26.729   6.509  48.896  1.00  0.00     0.001 C 
BRANCH  23  24
HETATM   24  C13 UNL     1      27.118   7.947  49.130  1.00  0.00     0.298 C 
BRANCH  24  25
HETATM   25  N3  UNL     1      28.397   8.241  48.555  1.00  0.00     0.083 N 
HETATM   26  C14 UNL     1      29.186   7.100  48.205  1.00  0.00     0.309 C 
HETATM   27  C15 UNL     1      29.162   9.237  49.264  1.00  0.00     0.309 C 
ENDBRANCH  24  25
ENDBRANCH  23  24
ENDBRANCH   7  22
TORSDOF 4
ENDMDL
MODEL 4
REMARK VINA RESULT:      -7.6      3.160      6.109
REMARK  4 active torsions:
REMARK  status: ('A' for Active; 'I' for Inactive)
REMARK    1  A    between atoms: N1_5  and  C5_6 
REMARK    2  A    between atoms: C10_12  and  C11_13 
REMARK    3  A    between atoms: C12_14  and  C13_15 
REMARK    4  A    between atoms: C13_15  and  N3_16 
ROOT
HETATM    1  C5  UNL     1      22.190   3.327  51.514  1.00  0.00     0.178 C 
HETATM    2  C6  UNL     1      23.044   4.159  52.328  1.00  0.00     0.101 C 
HETATM    3  N2  UNL     1      23.732   4.825  52.992  1.00  0.00    -0.194 NA
HETATM    4  C7  UNL     1      20.983   4.107  51.037  1.00  0.00     0.022 C 
HETATM    5  C8  UNL     1      21.254   5.210  50.333  1.00  0.00    -0.024 C 
HETATM    6  C9  UNL     1      22.508   5.850  49.909  1.00  0.00     0.058 C 
HETATM    7  C10 UNL     1      22.607   5.927  48.379  1.00  0.00     0.135 C 
HETATM    8  N4  UNL     1      22.600   4.547  47.892  1.00  0.00    -0.274 NA
HETATM    9  C16 UNL     1      21.604   4.004  47.309  1.00  0.00     0.228 C 
HETATM   10  N5  UNL     1      22.215   2.729  47.105  1.00  0.00    -0.236 NA
HETATM   11  C17 UNL     1      22.423   1.907  48.103  1.00  0.00     0.233 C 
HETATM   12  N6  UNL     1      22.011   2.353  49.379  1.00  0.00    -0.254 NA
HETATM   13  C18 UNL     1      22.827   2.925  50.204  1.00  0.00     0.142 C 
ENDROOT
BRANCH   1  14
HETATM   14  N1  UNL     1      21.809   2.193  52.312  1.00  0.00    -0.331 N 
HETATM   15  C3  UNL     1      22.842   1.297  52.708  1.00  0.00     0.012 A 
HETATM   16  C2  UNL     1      22.534   0.225  53.438  1.00  0.00    -0.058 A 
HETATM   17  C4  UNL     1      24.269   1.417  52.403  1.00  0.00     0.068 C 
HETATM   18  C1  UNL     1      23.551  -0.763  53.901  1.00  0.00     0.046 C 
HETATM   19  C21 UNL     1      21.184  -0.148  53.896  1.00  0.00     0.064 A 
HETATM   20  C20 UNL     1      20.178   0.813  53.456  1.00  0.00    -0.005 A 
HETATM   21  C19 UNL     1      20.513   1.862  52.738  1.00  0.00     0.090 A 
ENDBRANCH   1  14
BRANCH   7  22
HETATM   22  C11 UNL     1      23.855   6.576  47.961  1.00  0.00    -0.002 C 
HETATM   23  C12 UNL     1      24.984   6.421  48.593  1.00  0.00     0.001 C 
BRANCH  23  24
HETATM   24  C13 UNL     1      26.249   7.102  48.136  1.00  0.00     0.298 C 
BRANCH  24  25
HETATM   25  N3  UNL     1      27.412   6.380  48.557  1.00  0.00     0.083 N 
HETATM   26  C14 UNL     1      28.604   6.655  47.815  1.00  0.00     0.309 C 
HETATM   27  C15 UNL     1      27.205   4.967  48.754  1.00  0.00     0.309 C 
ENDBRANCH  24  25
ENDBRANCH  23  24
ENDBRANCH   7  22
TORSDOF 4
ENDMDL
MODEL 5
REMARK VINA RESULT:      -7.5      2.923      4.851
REMARK  4 active torsions:
REMARK  status: ('A' for Active; 'I' for Inactive)
REMARK    1  A    between atoms: N1_5  and  C5_6 
REMARK    2  A    between atoms: C10_12  and  C11_13 
REMARK    3  A    between atoms: C12_14  and  C13_15 
REMARK    4  A    between atoms: C13_15  and  N3_16 
ROOT
HETATM    1  C5  UNL     1      22.748   2.676  51.970  1.00  0.00     0.178 C 
HETATM    2  C6  UNL     1      23.301   3.851  52.600  1.00  0.00     0.101 C 
HETATM    3  N2  UNL     1      23.754   4.793  53.114  1.00  0.00    -0.194 NA
HETATM    4  C7  UNL     1      21.265   2.566  52.255  1.00  0.00     0.022 C 
HETATM    5  C8  UNL     1      20.527   3.611  51.868  1.00  0.00    -0.024 C 
HETATM    6  C9  UNL     1      20.854   4.883  51.207  1.00  0.00     0.058 C 
HETATM    7  C10 UNL     1      20.133   5.013  49.858  1.00  0.00     0.135 C 
HETATM    8  N4  UNL     1      20.617   3.914  49.020  1.00  0.00    -0.274 NA
HETATM    9  C16 UNL     1      19.925   2.881  48.733  1.00  0.00     0.228 C 
HETATM   10  N5  UNL     1      20.922   2.240  47.935  1.00  0.00    -0.236 NA
HETATM   11  C17 UNL     1      21.988   1.708  48.478  1.00  0.00     0.233 C 
HETATM   12  N6  UNL     1      22.091   1.805  49.884  1.00  0.00    -0.254 NA
HETATM   13  C18 UNL     1      22.761   2.750  50.461  1.00  0.00     0.142 C 
ENDROOT
BRANCH   1  14
HETATM   14  N1  UNL     1      23.471   1.539  52.471  1.00  0.00    -0.331 N 
HETATM   15  C3  UNL     1      24.842   1.424  52.104  1.00  0.00     0.012 A 
HETATM   16  C2  UNL     1      25.549   0.379  52.535  1.00  0.00    -0.058 A 
HETATM   17  C4  UNL     1      25.608   2.358  51.277  1.00  0.00     0.068 C 
HETATM   18  C1  UNL     1      26.990   0.180  52.204  1.00  0.00     0.046 C 
HETATM   19  C21 UNL     1      25.043  -0.714  53.385  1.00  0.00     0.064 A 
HETATM   20  C20 UNL     1      23.636  -0.530  53.723  1.00  0.00    -0.005 A 
HETATM   21  C19 UNL     1      22.965   0.512  53.282  1.00  0.00     0.090 A 
ENDBRANCH   1  14
BRANCH   7  22
HETATM   22  C11 UNL     1      20.453   6.289  49.206  1.00  0.00    -0.002 C 
HETATM   23  C12 UNL     1      21.170   7.217  49.775  1.00  0.00     0.001 C 
BRANCH  23  24
HETATM   24  C13 UNL     1      21.480   8.516  49.076  1.00  0.00     0.298 C 
BRANCH  24  25
HETATM   25  N3  UNL     1      22.879   8.821  49.140  1.00  0.00     0.083 N 
HETATM   26  C14 UNL     1      23.586   8.705  47.902  1.00  0.00     0.309 C 
HETATM   27  C15 UNL     1      23.582   8.196  50.232  1.00  0.00     0.309 C 
ENDBRANCH  24  25
ENDBRANCH  23  24
ENDBRANCH   7  22
TORSDOF 4
ENDMDL
MODEL 6
REMARK VINA RESULT:      -7.4      2.788      8.098
REMARK  4 active torsions:
REMARK  status: ('A' for Active; 'I' for Inactive)
REMARK    1  A    between atoms: N1_5  and  C5_6 
REMARK    2  A    between atoms: C10_12  and  C11_13 
REMARK    3  A    between atoms: C12_14  and  C13_15 
REMARK    4  A    between atoms: C13_15  and  N3_16 
ROOT
HETATM    1  C5  UNL     1      20.315   2.320  51.891  1.00  0.00     0.178 C 
HETATM    2  C6  UNL     1      20.498   1.520  53.079  1.00  0.00     0.101 C 
HETATM    3  N2  UNL     1      20.634   0.875  54.039  1.00  0.00    -0.194 NA
HETATM    4  C7  UNL     1      20.976   3.673  52.052  1.00  0.00     0.022 C 
HETATM    5  C8  UNL     1      22.285   3.645  52.318  1.00  0.00    -0.024 C 
HETATM    6  C9  UNL     1      23.253   2.552  52.494  1.00  0.00     0.058 C 
HETATM    7  C10 UNL     1      24.374   2.625  51.449  1.00  0.00     0.135 C 
HETATM    8  N4  UNL     1      23.735   2.476  50.140  1.00  0.00    -0.274 NA
HETATM    9  C16 UNL     1      23.572   3.434  49.315  1.00  0.00     0.228 C 
HETATM   10  N5  UNL     1      22.924   2.663  48.302  1.00  0.00    -0.236 NA
HETATM   11  C17 UNL     1      21.698   2.232  48.457  1.00  0.00     0.233 C 
HETATM   12  N6  UNL     1      21.062   2.572  49.672  1.00  0.00    -0.254 NA
HETATM   13  C18 UNL     1      21.045   1.769  50.688  1.00  0.00     0.142 C 
ENDROOT
BRANCH   1  14
HETATM   14  N1  UNL     1      18.901   2.442  51.668  1.00  0.00    -0.331 N 
HETATM   15  C3  UNL     1      18.176   1.245  51.405  1.00  0.00     0.012 A 
HETATM   16  C2  UNL     1      16.863   1.311  51.180  1.00  0.00    -0.058 A 
HETATM   17  C4  UNL     1      18.719  -0.114  51.356  1.00  0.00     0.068 C 
HETATM   18  C1  UNL     1      16.025   0.109  50.902  1.00  0.00     0.046 C 
HETATM   19  C21 UNL     1      16.050   2.539  51.172  1.00  0.00     0.064 A 
HETATM   20  C20 UNL     1      16.855   3.724  51.449  1.00  0.00    -0.005 A 
HETATM   21  C19 UNL     1      18.148   3.626  51.668  1.00  0.00     0.090 A 
ENDBRANCH   1  14
BRANCH   7  22
HETATM   22  C11 UNL     1      25.344   1.539  51.634  1.00  0.00    -0.002 C 
HETATM   23  C12 UNL     1      25.186   0.588  52.511  1.00  0.00     0.001 C 
BRANCH  23  24
HETATM   24  C13 UNL     1      26.201  -0.514  52.676  1.00  0.00     0.298 C 
BRANCH  24  25
HETATM   25  N3  UNL     1      27.320  -0.080  53.458  1.00  0.00     0.083 N 
HETATM   26  C14 UNL     1      28.492  -0.894  53.353  1.00  0.00     0.309 C 
HETATM   27  C15 UNL     1      27.007   0.253  54.825  1.00  0.00     0.309 C 
ENDBRANCH  24  25
ENDBRANCH  23  24
ENDBRANCH   7  22
TORSDOF 4
ENDMDL
MODEL 7
REMARK VINA RESULT:      -7.3      3.442      5.990
REMARK  4 active torsions:
REMARK  status: ('A' for Active; 'I' for Inactive)
REMARK    1  A    between atoms: N1_5  and  C5_6 
REMARK    2  A    between atoms: C10_12  and  C11_13 
REMARK    3  A    between atoms: C12_14  and  C13_15 
REMARK    4  A    between atoms: C13_15  and  N3_16 
ROOT
HETATM    1  C5  UNL     1      24.157   4.366  50.324  1.00  0.00     0.178 C 
HETATM    2  C6  UNL     1      23.010   4.626  49.487  1.00  0.00     0.101 C 
HETATM    3  N2  UNL     1      22.090   4.843  48.806  1.00  0.00    -0.194 NA
HETATM    4  C7  UNL     1      23.853   4.712  51.767  1.00  0.00     0.022 C 
HETATM    5  C8  UNL     1      22.812   4.069  52.305  1.00  0.00    -0.024 C 
HETATM    6  C9  UNL     1      21.869   3.069  51.783  1.00  0.00     0.058 C 
HETATM    7  C10 UNL     1      21.947   1.759  52.578  1.00  0.00     0.135 C 
HETATM    8  N4  UNL     1      23.309   1.249  52.408  1.00  0.00    -0.274 NA
HETATM    9  C16 UNL     1      24.200   1.283  53.320  1.00  0.00     0.228 C 
HETATM   10  N5  UNL     1      25.237   0.669  52.552  1.00  0.00    -0.236 NA
HETATM   11  C17 UNL     1      25.828   1.308  51.575  1.00  0.00     0.233 C 
HETATM   12  N6  UNL     1      25.385   2.627  51.329  1.00  0.00    -0.254 NA
HETATM   13  C18 UNL     1      24.494   2.897  50.430  1.00  0.00     0.142 C 
ENDROOT
BRANCH   1  14
HETATM   14  N1  UNL     1      25.250   5.146  49.810  1.00  0.00    -0.331 N 
HETATM   15  C3  UNL     1      25.220   6.549  50.048  1.00  0.00     0.012 A 
HETATM   16  C2  UNL     1      26.206   7.314  49.579  1.00  0.00    -0.058 A 
HETATM   17  C4  UNL     1      24.194   7.290  50.786  1.00  0.00     0.068 C 
HETATM   18  C1  UNL     1      26.258   8.790  49.786  1.00  0.00     0.046 C 
HETATM   19  C21 UNL     1      27.370   6.844  48.807  1.00  0.00     0.064 A 
HETATM   20  C20 UNL     1      27.337   5.400  48.602  1.00  0.00    -0.005 A 
HETATM   21  C19 UNL     1      26.350   4.672  49.079  1.00  0.00     0.090 A 
ENDBRANCH   1  14
BRANCH   7  22
HETATM   22  C11 UNL     1      20.997   0.767  52.061  1.00  0.00    -0.002 C 
HETATM   23  C12 UNL     1      19.740   0.740  52.406  1.00  0.00     0.001 C 
BRANCH  23  24
HETATM   24  C13 UNL     1      18.790  -0.293  51.856  1.00  0.00     0.298 C 
BRANCH  24  25
HETATM   25  N3  UNL     1      17.780  -0.635  52.813  1.00  0.00     0.083 N 
HETATM   26  C14 UNL     1      17.905  -1.937  53.393  1.00  0.00     0.309 C 
HETATM   27  C15 UNL     1      16.431  -0.352  52.392  1.00  0.00     0.309 C 
ENDBRANCH  24  25
ENDBRANCH  23  24
ENDBRANCH   7  22
TORSDOF 4
ENDMDL
MODEL 8
REMARK VINA RESULT:      -7.0      3.324      6.587
REMARK  4 active torsions:
REMARK  status: ('A' for Active; 'I' for Inactive)
REMARK    1  A    between atoms: N1_5  and  C5_6 
REMARK    2  A    between atoms: C10_12  and  C11_13 
REMARK    3  A    between atoms: C12_14  and  C13_15 
REMARK    4  A    between atoms: C13_15  and  N3_16 
ROOT
HETATM    1  C5  UNL     1      23.795   4.600  50.206  1.00  0.00     0.178 C 
HETATM    2  C6  UNL     1      24.669   3.781  51.011  1.00  0.00     0.101 C 
HETATM    3  N2  UNL     1      25.381   3.128  51.662  1.00  0.00    -0.194 NA
HETATM    4  C7  UNL     1      23.609   3.990  48.831  1.00  0.00     0.022 C 
HETATM    5  C8  UNL     1      23.118   2.746  48.817  1.00  0.00    -0.024 C 
HETATM    6  C9  UNL     1      22.708   1.815  49.878  1.00  0.00     0.058 C 
HETATM    7  C10 UNL     1      21.223   1.446  49.754  1.00  0.00     0.135 C 
HETATM    8  N4  UNL     1      20.470   2.692  49.911  1.00  0.00    -0.274 NA
HETATM    9  C16 UNL     1      19.894   3.300  48.950  1.00  0.00     0.228 C 
HETATM   10  N5  UNL     1      19.376   4.378  49.731  1.00  0.00    -0.236 NA
HETATM   11  C17 UNL     1      20.161   5.311  50.207  1.00  0.00     0.233 C 
HETATM   12  N6  UNL     1      21.536   5.189  49.903  1.00  0.00    -0.254 NA
HETATM   13  C18 UNL     1      22.373   4.631  50.716  1.00  0.00     0.142 C 
ENDROOT
BRANCH   1  14
HETATM   14  N1  UNL     1      24.382   5.910  50.130  1.00  0.00    -0.331 N 
HETATM   15  C3  UNL     1      25.655   6.019  49.504  1.00  0.00     0.012 A 
HETATM   16  C2  UNL     1      26.244   7.213  49.422  1.00  0.00    -0.058 A 
HETATM   17  C4  UNL     1      26.432   4.932  48.904  1.00  0.00     0.068 C 
HETATM   18  C1  UNL     1      27.574   7.420  48.779  1.00  0.00     0.046 C 
HETATM   19  C21 UNL     1      25.697   8.481  49.933  1.00  0.00     0.064 A 
HETATM   20  C20 UNL     1      24.392   8.296  50.559  1.00  0.00    -0.005 A 
HETATM   21  C19 UNL     1      23.836   7.105  50.623  1.00  0.00     0.090 A 
ENDBRANCH   1  14
BRANCH   7  22
HETATM   22  C11 UNL     1      20.820   0.507  50.808  1.00  0.00    -0.002 C 
HETATM   23  C12 UNL     1      21.254   0.587  52.035  1.00  0.00     0.001 C 
BRANCH  23  24
HETATM   24  C13 UNL     1      20.819  -0.394  53.094  1.00  0.00     0.298 C 
BRANCH  24  25
HETATM   25  N3  UNL     1      21.918  -1.192  53.548  1.00  0.00     0.083 N 
HETATM   26  C14 UNL     1      21.754  -1.776  54.844  1.00  0.00     0.309 C 
HETATM   27  C15 UNL     1      23.214  -0.581  53.385  1.00  0.00     0.309 C 
ENDBRANCH  24  25
ENDBRANCH  23  24
ENDBRANCH   7  22
TORSDOF 4
ENDMDL
MODEL 9
REMARK VINA RESULT:      -7.0      4.018      7.227
REMARK  4 active torsions:
REMARK  status: ('A' for Active; 'I' for Inactive)
REMARK    1  A    between atoms: N1_5  and  C5_6 
REMARK    2  A    between atoms: C10_12  and  C11_13 
REMARK    3  A    between atoms: C12_14  and  C13_15 
REMARK    4  A    between atoms: C13_15  and  N3_16 
ROOT
HETATM    1  C5  UNL     1      23.996   3.893  50.101  1.00  0.00     0.178 C 
HETATM    2  C6  UNL     1      25.360   3.470  50.314  1.00  0.00     0.101 C 
HETATM    3  N2  UNL     1      26.457   3.120  50.489  1.00  0.00    -0.194 NA
HETATM    4  C7  UNL     1      23.650   5.055  51.008  1.00  0.00     0.022 C 
HETATM    5  C8  UNL     1      24.427   6.135  50.879  1.00  0.00    -0.024 C 
HETATM    6  C9  UNL     1      25.581   6.447  50.023  1.00  0.00     0.058 C 
HETATM    7  C10 UNL     1      25.292   7.648  49.112  1.00  0.00     0.135 C 
HETATM    8  N4  UNL     1      24.168   7.262  48.257  1.00  0.00    -0.274 NA
HETATM    9  C16 UNL     1      22.982   7.708  48.397  1.00  0.00     0.228 C 
HETATM   10  N5  UNL     1      22.408   6.976  47.313  1.00  0.00    -0.236 NA
HETATM   11  C17 UNL     1      22.219   5.683  47.390  1.00  0.00     0.233 C 
HETATM   12  N6  UNL     1      22.613   5.063  48.597  1.00  0.00    -0.254 NA
HETATM   13  C18 UNL     1      23.769   4.497  48.735  1.00  0.00     0.142 C 
ENDROOT
BRANCH   1  14
HETATM   14  N1  UNL     1      23.150   2.757  50.347  1.00  0.00    -0.331 N 
HETATM   15  C3  UNL     1      23.091   2.265  51.682  1.00  0.00     0.012 A 
HETATM   16  C2  UNL     1      22.330   1.205  51.956  1.00  0.00    -0.058 A 
HETATM   17  C4  UNL     1      23.792   2.809  52.847  1.00  0.00     0.068 C 
HETATM   18  C1  UNL     1      22.205   0.626  53.324  1.00  0.00     0.046 C 
HETATM   19  C21 UNL     1      21.511   0.457  50.985  1.00  0.00     0.064 A 
HETATM   20  C20 UNL     1      21.618   1.015  49.642  1.00  0.00    -0.005 A 
HETATM   21  C19 UNL     1      22.377   2.063  49.403  1.00  0.00     0.090 A 
ENDBRANCH   1  14
BRANCH   7  22
HETATM   22  C11 UNL     1      26.450   7.964  48.267  1.00  0.00    -0.002 C 
HETATM   23  C12 UNL     1      27.366   7.088  47.960  1.00  0.00     0.001 C 
BRANCH  23  24
HETATM   24  C13 UNL     1      28.543   7.445  47.089  1.00  0.00     0.298 C 
BRANCH  24  25
HETATM   25  N3  UNL     1      29.775   6.998  47.667  1.00  0.00     0.083 N 
HETATM   26  C14 UNL     1      29.799   5.624  48.067  1.00  0.00     0.309 C 
HETATM   27  C15 UNL     1      30.318   7.870  48.678  1.00  0.00     0.309 C 
ENDBRANCH  24  25
ENDBRANCH  23  24
ENDBRANCH   7  22
TORSDOF 4
ENDMDL
