MODEL 1
REMARK VINA RESULT:      -8.7      0.000      0.000
REMARK  2 active torsions:
REMARK  status: ('A' for Active; 'I' for Inactive)
REMARK    1  A    between atoms: C4_5  and  N2_6 
REMARK    2  A    between atoms: N2_6  and  C5_7 
ROOT
HETATM    1  C1  UNL     1      25.064   5.004  49.082  1.00  0.00     0.062 C 
HETATM    2  C2  UNL     1      26.318   4.247  49.337  1.00  0.00     0.033 C 
HETATM    3  C3  UNL     1      27.607   4.699  48.833  1.00  0.00     0.096 C 
HETATM    4  N1  UNL     1      28.642   5.067  48.448  1.00  0.00    -0.192 NA
HETATM    5  C4  UNL     1      26.250   3.110  50.056  1.00  0.00     0.101 C 
ENDROOT
BRANCH   5   6
HETATM    6  N2  UNL     1      24.919   2.821  50.466  1.00  0.00    -0.387 N 
HETATM    7  H5  UNL     1      24.063   3.103  49.938  1.00  0.00     0.159 HD
BRANCH   6   8
HETATM    8  C5  UNL     1      24.878   2.079  51.716  1.00  0.00     0.144 C 
HETATM    9  C6  UNL     1      26.170   1.603  52.150  1.00  0.00     0.023 C 
HETATM   10  C7  UNL     1      27.017   0.679  52.536  1.00  0.00     0.034 C 
HETATM   11 CL1  UNL     1      28.695   0.559  53.021  1.00  0.00    -0.087 Cl
HETATM   12  C8  UNL     1      26.454  -0.719  52.520  1.00  0.00     0.219 C 
HETATM   13  O1  UNL     1      26.494  -1.157  53.878  1.00  0.00    -0.381 OA
HETATM   14  C9  UNL     1      25.684  -0.177  54.561  1.00  0.00     0.207 C 
HETATM   15  C10 UNL     1      24.319  -0.239  54.019  1.00  0.00    -0.025 A 
HETATM   16  C11 UNL     1      23.616  -1.085  54.896  1.00  0.00     0.010 A 
HETATM   17  C15 UNL     1      23.584   0.265  52.940  1.00  0.00    -0.014 A 
HETATM   18  C12 UNL     1      22.296  -1.469  54.813  1.00  0.00     0.001 A 
HETATM   19  C13 UNL     1      21.526  -1.007  53.775  1.00  0.00     0.001 A 
HETATM   20  C14 UNL     1      22.239  -0.165  52.909  1.00  0.00     0.011 A 
HETATM   21  C16 UNL     1      23.774   1.105  51.759  1.00  0.00     0.230 C 
HETATM   22  F1  UNL     1      22.569   1.769  51.458  1.00  0.00    -0.242 F 
ENDBRANCH   6   8
ENDBRANCH   5   6
TORSDOF 2
ENDMDL
MODEL 2
REMARK VINA RESULT:      -8.3      3.357      4.679
REMARK  2 active torsions:
REMARK  status: ('A' for Active; 'I' for Inactive)
REMARK    1  A    between atoms: C4_5  and  N2_6 
REMARK    2  A    between atoms: N2_6  and  C5_7 
ROOT
HETATM    1  C1  UNL     1      28.180  -0.953  53.367  1.00  0.00     0.062 C 
HETATM    2  C2  UNL     1      27.768   0.250  54.138  1.00  0.00     0.033 C 
HETATM    3  C3  UNL     1      28.696   1.335  54.426  1.00  0.00     0.096 C 
HETATM    4  N1  UNL     1      29.429   2.212  54.641  1.00  0.00    -0.192 NA
HETATM    5  C4  UNL     1      26.498   0.330  54.578  1.00  0.00     0.101 C 
ENDROOT
BRANCH   5   6
HETATM    6  N2  UNL     1      25.735  -0.811  54.208  1.00  0.00    -0.387 N 
HETATM    7  H5  UNL     1      25.903  -1.777  54.568  1.00  0.00     0.159 HD
BRANCH   6   8
HETATM    8  C5  UNL     1      24.681  -0.484  53.261  1.00  0.00     0.144 C 
HETATM    9  C6  UNL     1      25.010   0.615  52.385  1.00  0.00     0.023 C 
HETATM   10  C7  UNL     1      24.798   1.783  51.827  1.00  0.00     0.034 C 
HETATM   11 CL1  UNL     1      25.572   2.843  50.669  1.00  0.00    -0.087 Cl
HETATM   12  C8  UNL     1      23.574   2.497  52.340  1.00  0.00     0.219 C 
HETATM   13  O1  UNL     1      22.711   2.626  51.210  1.00  0.00    -0.381 OA
HETATM   14  C9  UNL     1      22.499   1.258  50.803  1.00  0.00     0.207 C 
HETATM   15  C10 UNL     1      21.836   0.542  51.902  1.00  0.00    -0.025 A 
HETATM   16  C11 UNL     1      20.464   0.596  51.599  1.00  0.00     0.010 A 
HETATM   17  C15 UNL     1      22.170  -0.120  53.090  1.00  0.00    -0.014 A 
HETATM   18  C12 UNL     1      19.420   0.076  52.332  1.00  0.00     0.001 A 
HETATM   19  C13 UNL     1      19.688  -0.582  53.507  1.00  0.00     0.001 A 
HETATM   20  C14 UNL     1      21.059  -0.629  53.797  1.00  0.00     0.011 A 
HETATM   21  C16 UNL     1      23.350  -0.440  53.891  1.00  0.00     0.230 C 
HETATM   22  F1  UNL     1      23.133  -1.650  54.580  1.00  0.00    -0.242 F 
ENDBRANCH   6   8
ENDBRANCH   5   6
TORSDOF 2
ENDMDL
MODEL 3
REMARK VINA RESULT:      -7.9      2.644      4.378
REMARK  2 active torsions:
REMARK  status: ('A' for Active; 'I' for Inactive)
REMARK    1  A    between atoms: C4_5  and  N2_6 
REMARK    2  A    between atoms: N2_6  and  C5_7 
ROOT
HETATM    1  C1  UNL     1      23.228   4.977  51.679  1.00  0.00     0.062 C 
HETATM    2  C2  UNL     1      24.058   4.653  50.489  1.00  0.00     0.033 C 
HETATM    3  C3  UNL     1      23.769   5.208  49.174  1.00  0.00     0.096 C 
HETATM    4  N1  UNL     1      23.552   5.664  48.126  1.00  0.00    -0.192 NA
HETATM    5  C4  UNL     1      25.106   3.821  50.641  1.00  0.00     0.101 C 
ENDROOT
BRANCH   5   6
HETATM    6  N2  UNL     1      25.239   3.377  51.986  1.00  0.00    -0.387 N 
HETATM    7  H5  UNL     1      24.985   3.945  52.824  1.00  0.00     0.159 HD
BRANCH   6   8
HETATM    8  C5  UNL     1      25.774   2.027  52.067  1.00  0.00     0.144 C 
HETATM    9  C6  UNL     1      24.784   1.030  52.400  1.00  0.00     0.023 C 
HETATM   10  C7  UNL     1      24.300   0.041  53.112  1.00  0.00     0.034 C 
HETATM   11 CL1  UNL     1      22.881  -0.984  53.138  1.00  0.00    -0.087 Cl
HETATM   12  C8  UNL     1      25.139  -0.324  54.310  1.00  0.00     0.219 C 
HETATM   13  O1  UNL     1      25.558  -1.669  54.081  1.00  0.00    -0.381 OA
HETATM   14  C9  UNL     1      26.276  -1.578  52.833  1.00  0.00     0.207 C 
HETATM   15  C10 UNL     1      27.428  -0.684  53.020  1.00  0.00    -0.025 A 
HETATM   16  C11 UNL     1      28.509  -1.536  53.309  1.00  0.00     0.010 A 
HETATM   17  C15 UNL     1      27.719   0.685  53.005  1.00  0.00    -0.014 A 
HETATM   18  C12 UNL     1      29.812  -1.177  53.576  1.00  0.00     0.001 A 
HETATM   19  C13 UNL     1      30.156   0.152  53.576  1.00  0.00     0.001 A 
HETATM   20  C14 UNL     1      29.069   0.989  53.287  1.00  0.00     0.011 A 
HETATM   21  C16 UNL     1      27.040   1.966  52.818  1.00  0.00     0.230 C 
HETATM   22  F1  UNL     1      27.942   2.897  52.266  1.00  0.00    -0.242 F 
ENDBRANCH   6   8
ENDBRANCH   5   6
TORSDOF 2
ENDMDL
MODEL 4
REMARK VINA RESULT:      -7.8      3.285      4.860
REMARK  2 active torsions:
REMARK  status: ('A' for Active; 'I' for Inactive)
REMARK    1  A    between atoms: C4_5  and  N2_6 
REMARK    2  A    between atoms: N2_6  and  C5_7 
ROOT
HETATM    1  C1  UNL     1      28.483   2.100  53.773  1.00  0.00     0.062 C 
HETATM    2  C2  UNL     1      28.199   0.642  53.695  1.00  0.00     0.033 C 
HETATM    3  C3  UNL     1      29.264  -0.351  53.700  1.00  0.00     0.096 C 
HETATM    4  N1  UNL     1      30.112  -1.148  53.723  1.00  0.00    -0.192 NA
HETATM    5  C4  UNL     1      26.917   0.238  53.617  1.00  0.00     0.101 C 
ENDROOT
BRANCH   5   6
HETATM    6  N2  UNL     1      26.013   1.336  53.625  1.00  0.00    -0.387 N 
HETATM    7  H5  UNL     1      26.058   2.134  54.297  1.00  0.00     0.159 HD
BRANCH   6   8
HETATM    8  C5  UNL     1      25.008   1.227  52.580  1.00  0.00     0.144 C 
HETATM    9  C6  UNL     1      25.169   2.190  51.517  1.00  0.00     0.023 C 
HETATM   10  C7  UNL     1      24.760   3.152  50.725  1.00  0.00     0.034 C 
HETATM   11 CL1  UNL     1      25.389   4.131  49.417  1.00  0.00    -0.087 Cl
HETATM   12  C8  UNL     1      23.365   3.642  51.021  1.00  0.00     0.219 C 
HETATM   13  O1  UNL     1      22.607   3.354  49.847  1.00  0.00    -0.381 OA
HETATM   14  C9  UNL     1      22.741   1.923  49.715  1.00  0.00     0.207 C 
HETATM   15  C10 UNL     1      22.150   1.287  50.901  1.00  0.00    -0.025 A 
HETATM   16  C11 UNL     1      20.834   0.962  50.524  1.00  0.00     0.010 A 
HETATM   17  C15 UNL     1      22.507   0.954  52.213  1.00  0.00    -0.014 A 
HETATM   18  C12 UNL     1      19.866   0.357  51.295  1.00  0.00     0.001 A 
HETATM   19  C13 UNL     1      20.159   0.008  52.589  1.00  0.00     0.001 A 
HETATM   20  C14 UNL     1      21.473   0.338  52.952  1.00  0.00     0.011 A 
HETATM   21  C16 UNL     1      23.646   1.073  53.121  1.00  0.00     0.230 C 
HETATM   22  F1  UNL     1      23.636  -0.005  54.028  1.00  0.00    -0.242 F 
ENDBRANCH   6   8
ENDBRANCH   5   6
TORSDOF 2
ENDMDL
MODEL 5
REMARK VINA RESULT:      -7.8      3.791      5.487
REMARK  2 active torsions:
REMARK  status: ('A' for Active; 'I' for Inactive)
REMARK    1  A    between atoms: C4_5  and  N2_6 
REMARK    2  A    between atoms: N2_6  and  C5_7 
ROOT
HETATM    1  C1  UNL     1      26.703   0.620  51.989  1.00  0.00     0.062 C 
HETATM    2  C2  UNL     1      26.299  -0.623  52.697  1.00  0.00     0.033 C 
HETATM    3  C3  UNL     1      27.150  -1.805  52.726  1.00  0.00     0.096 C 
HETATM    4  N1  UNL     1      27.836  -2.744  52.768  1.00  0.00    -0.192 NA
HETATM    5  C4  UNL     1      25.109  -0.648  53.327  1.00  0.00     0.101 C 
ENDROOT
BRANCH   5   6
HETATM    6  N2  UNL     1      24.413   0.585  53.196  1.00  0.00    -0.387 N 
HETATM    7  H5  UNL     1      24.702   1.478  53.654  1.00  0.00     0.159 HD
BRANCH   6   8
HETATM    8  C5  UNL     1      23.241   0.467  52.344  1.00  0.00     0.144 C 
HETATM    9  C6  UNL     1      23.191   1.448  51.286  1.00  0.00     0.023 C 
HETATM   10  C7  UNL     1      22.628   2.411  50.597  1.00  0.00     0.034 C 
HETATM   11 CL1  UNL     1      22.995   3.423  49.216  1.00  0.00    -0.087 Cl
HETATM   12  C8  UNL     1      21.298   2.864  51.144  1.00  0.00     0.219 C 
HETATM   13  O1  UNL     1      20.350   2.575  50.117  1.00  0.00    -0.381 OA
HETATM   14  C9  UNL     1      20.488   1.149  49.938  1.00  0.00     0.207 C 
HETATM   15  C10 UNL     1      20.130   0.483  51.198  1.00  0.00    -0.025 A 
HETATM   16  C11 UNL     1      18.775   0.132  51.054  1.00  0.00     0.010 A 
HETATM   17  C15 UNL     1      20.721   0.140  52.420  1.00  0.00    -0.014 A 
HETATM   18  C12 UNL     1      17.972  -0.506  51.973  1.00  0.00     0.001 A 
HETATM   19  C13 UNL     1      18.497  -0.866  53.189  1.00  0.00     0.001 A 
HETATM   20  C14 UNL     1      19.847  -0.510  53.319  1.00  0.00     0.011 A 
HETATM   21  C16 UNL     1      22.000   0.273  53.114  1.00  0.00     0.230 C 
HETATM   22  F1  UNL     1      22.173  -0.817  53.989  1.00  0.00    -0.242 F 
ENDBRANCH   6   8
ENDBRANCH   5   6
TORSDOF 2
ENDMDL
MODEL 6
REMARK VINA RESULT:      -7.6      1.910      2.115
REMARK  2 active torsions:
REMARK  status: ('A' for Active; 'I' for Inactive)
REMARK    1  A    between atoms: C4_5  and  N2_6 
REMARK    2  A    between atoms: N2_6  and  C5_7 
ROOT
HETATM    1  C1  UNL     1      23.143   5.658  51.019  1.00  0.00     0.062 C 
HETATM    2  C2  UNL     1      23.499   4.470  50.200  1.00  0.00     0.033 C 
HETATM    3  C3  UNL     1      23.027   4.308  48.831  1.00  0.00     0.096 C 
HETATM    4  N1  UNL     1      22.668   4.185  47.732  1.00  0.00    -0.192 NA
HETATM    5  C4  UNL     1      24.282   3.520  50.747  1.00  0.00     0.101 C 
ENDROOT
BRANCH   5   6
HETATM    6  N2  UNL     1      24.649   3.840  52.083  1.00  0.00    -0.387 N 
HETATM    7  H5  UNL     1      24.933   4.791  52.407  1.00  0.00     0.159 HD
BRANCH   6   8
HETATM    8  C5  UNL     1      24.584   2.683  52.962  1.00  0.00     0.144 C 
HETATM    9  C6  UNL     1      25.852   2.016  53.137  1.00  0.00     0.023 C 
HETATM   10  C7  UNL     1      26.649   0.975  53.116  1.00  0.00     0.034 C 
HETATM   11 CL1  UNL     1      28.324   0.599  53.459  1.00  0.00    -0.087 Cl
HETATM   12  C8  UNL     1      26.004  -0.284  52.594  1.00  0.00     0.219 C 
HETATM   13  O1  UNL     1      26.039  -1.205  53.684  1.00  0.00    -0.381 OA
HETATM   14  C9  UNL     1      25.299  -0.518  54.715  1.00  0.00     0.207 C 
HETATM   15  C10 UNL     1      23.925  -0.304  54.240  1.00  0.00    -0.025 A 
HETATM   16  C11 UNL     1      23.186  -1.383  54.759  1.00  0.00     0.010 A 
HETATM   17  C15 UNL     1      23.204   0.606  53.458  1.00  0.00    -0.014 A 
HETATM   18  C12 UNL     1      21.844  -1.642  54.585  1.00  0.00     0.001 A 
HETATM   19  C13 UNL     1      21.088  -0.785  53.826  1.00  0.00     0.001 A 
HETATM   20  C14 UNL     1      21.836   0.286  53.315  1.00  0.00     0.011 A 
HETATM   21  C16 UNL     1      23.425   1.820  52.674  1.00  0.00     0.230 C 
HETATM   22  F1  UNL     1      22.257   2.606  52.689  1.00  0.00    -0.242 F 
ENDBRANCH   6   8
ENDBRANCH   5   6
TORSDOF 2
ENDMDL
MODEL 7
REMARK VINA RESULT:      -7.6      3.098      4.163
REMARK  2 active torsions:
REMARK  status: ('A' for Active; 'I' for Inactive)
REMARK    1  A    between atoms: C4_5  and  N2_6 
REMARK    2  A    between atoms: N2_6  and  C5_7 
ROOT
HETATM    1  C1  UNL     1      28.574   5.249  48.302  1.00  0.00     0.062 C 
HETATM    2  C2  UNL     1      27.292   5.973  48.509  1.00  0.00     0.033 C 
HETATM    3  C3  UNL     1      27.059   7.301  47.958  1.00  0.00     0.096 C 
HETATM    4  N1  UNL     1      26.862   8.353  47.503  1.00  0.00    -0.192 NA
HETATM    5  C4  UNL     1      26.323   5.375  49.229  1.00  0.00     0.101 C 
ENDROOT
BRANCH   5   6
HETATM    6  N2  UNL     1      26.720   4.089  49.687  1.00  0.00    -0.387 N 
HETATM    7  H5  UNL     1      27.709   3.758  49.736  1.00  0.00     0.159 HD
BRANCH   6   8
HETATM    8  C5  UNL     1      25.584   3.273  50.087  1.00  0.00     0.144 C 
HETATM    9  C6  UNL     1      24.324   3.976  50.049  1.00  0.00     0.023 C 
HETATM   10  C7  UNL     1      23.198   4.407  50.565  1.00  0.00     0.034 C 
HETATM   11 CL1  UNL     1      21.802   5.341  50.072  1.00  0.00    -0.087 Cl
HETATM   12  C8  UNL     1      23.029   4.086  52.028  1.00  0.00     0.219 C 
HETATM   13  O1  UNL     1      21.881   3.240  52.098  1.00  0.00    -0.381 OA
HETATM   14  C9  UNL     1      22.248   2.123  51.262  1.00  0.00     0.207 C 
HETATM   15  C10 UNL     1      23.429   1.471  51.847  1.00  0.00    -0.025 A 
HETATM   16  C11 UNL     1      22.917   0.417  52.625  1.00  0.00     0.010 A 
HETATM   17  C15 UNL     1      24.822   1.610  51.852  1.00  0.00    -0.014 A 
HETATM   18  C12 UNL     1      23.626  -0.487  53.385  1.00  0.00     0.001 A 
HETATM   19  C13 UNL     1      24.995  -0.398  53.430  1.00  0.00     0.001 A 
HETATM   20  C14 UNL     1      25.492   0.656  52.650  1.00  0.00     0.011 A 
HETATM   21  C16 UNL     1      25.855   2.484  51.301  1.00  0.00     0.230 C 
HETATM   22  F1  UNL     1      27.039   1.746  51.109  1.00  0.00    -0.242 F 
ENDBRANCH   6   8
ENDBRANCH   5   6
TORSDOF 2
ENDMDL
MODEL 8
REMARK VINA RESULT:      -7.3      3.735      4.846
REMARK  2 active torsions:
REMARK  status: ('A' for Active; 'I' for Inactive)
REMARK    1  A    between atoms: C4_5  and  N2_6 
REMARK    2  A    between atoms: N2_6  and  C5_7 
ROOT
HETATM    1  C1  UNL     1      22.278   4.001  48.535  1.00  0.00     0.062 C 
HETATM    2  C2  UNL     1      21.582   4.307  49.813  1.00  0.00     0.033 C 
HETATM    3  C3  UNL     1      21.407   5.672  50.287  1.00  0.00     0.096 C 
HETATM    4  N1  UNL     1      21.249   6.763  50.660  1.00  0.00    -0.192 NA
HETATM    5  C4  UNL     1      21.102   3.284  50.546  1.00  0.00     0.101 C 
ENDROOT
BRANCH   5   6
HETATM    6  N2  UNL     1      21.360   2.026  49.935  1.00  0.00    -0.387 N 
HETATM    7  H5  UNL     1      21.227   1.824  48.919  1.00  0.00     0.159 HD
BRANCH   6   8
HETATM    8  C5  UNL     1      21.837   1.039  50.890  1.00  0.00     0.144 C 
HETATM    9  C6  UNL     1      20.782   0.405  51.645  1.00  0.00     0.023 C 
HETATM   10  C7  UNL     1      20.181   0.037  52.751  1.00  0.00     0.034 C 
HETATM   11 CL1  UNL     1      18.739  -0.830  53.233  1.00  0.00    -0.087 Cl
HETATM   12  C8  UNL     1      20.852   0.526  54.009  1.00  0.00     0.219 C 
HETATM   13  O1  UNL     1      21.254  -0.654  54.705  1.00  0.00    -0.381 OA
HETATM   14  C9  UNL     1      22.125  -1.310  53.759  1.00  0.00     0.207 C 
HETATM   15  C10 UNL     1      23.272  -0.431  53.493  1.00  0.00    -0.025 A 
HETATM   16  C11 UNL     1      24.281  -0.870  54.369  1.00  0.00     0.010 A 
HETATM   17  C15 UNL     1      23.607   0.656  52.675  1.00  0.00    -0.014 A 
HETATM   18  C12 UNL     1      25.551  -0.356  54.511  1.00  0.00     0.001 A 
HETATM   19  C13 UNL     1      25.935   0.710  53.736  1.00  0.00     0.001 A 
HETATM   20  C14 UNL     1      24.920   1.138  52.868  1.00  0.00     0.011 A 
HETATM   21  C16 UNL     1      22.997   1.516  51.663  1.00  0.00     0.230 C 
HETATM   22  F1  UNL     1      23.990   1.959  50.767  1.00  0.00    -0.242 F 
ENDBRANCH   6   8
ENDBRANCH   5   6
TORSDOF 2
ENDMDL
MODEL 9
REMARK VINA RESULT:      -7.3      3.453      5.595
REMARK  2 active torsions:
REMARK  status: ('A' for Active; 'I' for Inactive)
REMARK    1  A    between atoms: C4_5  and  N2_6 
REMARK    2  A    between atoms: N2_6  and  C5_7 
ROOT
HETATM    1  C1  UNL     1      26.909   0.232  54.614  1.00  0.00     0.062 C 
HETATM    2  C2  UNL     1      26.750  -0.364  53.261  1.00  0.00     0.033 C 
HETATM    3  C3  UNL     1      27.290  -1.675  52.928  1.00  0.00     0.096 C 
HETATM    4  N1  UNL     1      27.703  -2.730  52.664  1.00  0.00    -0.192 NA
HETATM    5  C4  UNL     1      26.085   0.336  52.322  1.00  0.00     0.101 C 
ENDROOT
BRANCH   5   6
HETATM    6  N2  UNL     1      25.629   1.588  52.819  1.00  0.00    -0.387 N 
HETATM    7  H5  UNL     1      26.213   2.254  53.372  1.00  0.00     0.159 HD
BRANCH   6   8
HETATM    8  C5  UNL     1      24.241   1.846  52.467  1.00  0.00     0.144 C 
HETATM    9  C6  UNL     1      23.292   1.141  53.296  1.00  0.00     0.023 C 
HETATM   10  C7  UNL     1      22.274   0.342  53.504  1.00  0.00     0.034 C 
HETATM   11 CL1  UNL     1      21.361  -0.295  54.856  1.00  0.00    -0.087 Cl
HETATM   12  C8  UNL     1      21.724  -0.293  52.253  1.00  0.00     0.219 C 
HETATM   13  O1  UNL     1      20.383   0.183  52.146  1.00  0.00    -0.381 OA
HETATM   14  C9  UNL     1      20.549   1.615  52.087  1.00  0.00     0.207 C 
HETATM   15  C10 UNL     1      21.329   1.945  50.886  1.00  0.00    -0.025 A 
HETATM   16  C11 UNL     1      20.373   2.252  49.901  1.00  0.00     0.010 A 
HETATM   17  C15 UNL     1      22.667   2.018  50.479  1.00  0.00    -0.014 A 
HETATM   18  C12 UNL     1      20.603   2.614  48.591  1.00  0.00     0.001 A 
HETATM   19  C13 UNL     1      21.895   2.701  48.136  1.00  0.00     0.001 A 
HETATM   20  C14 UNL     1      22.837   2.393  49.128  1.00  0.00     0.011 A 
HETATM   21  C16 UNL     1      24.007   1.789  51.014  1.00  0.00     0.230 C 
HETATM   22  F1  UNL     1      24.921   2.649  50.372  1.00  0.00    -0.242 F 
ENDBRANCH   6   8
ENDBRANCH   5   6
TORSDOF 2
ENDMDL
