MODEL 1
REMARK VINA RESULT:      -8.2      0.000      0.000
REMARK  9 active torsions:
REMARK  status: ('A' for Active; 'I' for Inactive)
REMARK    1  A    between atoms: C2_2  and  C3_3 
REMARK    2  A    between atoms: C3_3  and  O1_21 
REMARK    3  A    between atoms: C4_4  and  C5_5 
REMARK    4  A    between atoms: C8_10  and  N3_11 
REMARK    5  A    between atoms: N3_11  and  C9_12 
REMARK    6  A    between atoms: C11_14  and  C12_15 
REMARK    7  A    between atoms: O1_21  and  C18_22 
REMARK    8  A    between atoms: C18_22  and  C19_23 
REMARK    9  A    between atoms: C19_23  and  N4_24 
ROOT
HETATM    1  C5  UNL     1      23.536   5.090  50.600  1.00  0.00     0.030 A 
HETATM    2  C6  UNL     1      23.752   6.399  50.965  1.00  0.00     0.133 A 
HETATM    3  N1  UNL     1      22.778   7.321  50.960  1.00  0.00    -0.253 NA
HETATM    4  C7  UNL     1      21.518   6.995  50.590  1.00  0.00     0.234 A 
HETATM    5  N2  UNL     1      21.304   5.722  50.235  1.00  0.00    -0.224 NA
HETATM    6  C8  UNL     1      22.243   4.761  50.222  1.00  0.00     0.137 A 
ENDROOT
BRANCH   1   7
HETATM    7  C4  UNL     1      24.653   4.180  50.615  1.00  0.00     0.056 C 
HETATM    8  C3  UNL     1      25.884   4.114  50.148  1.00  0.00     0.102 C 
BRANCH   8   9
HETATM    9  C2  UNL     1      26.632   5.054  49.352  1.00  0.00     0.100 A 
HETATM   10  C1  UNL     1      27.690   4.858  48.621  1.00  0.00     0.039 A 
HETATM   11  C24 UNL     1      27.740   6.255  48.222  1.00  0.00     0.206 A 
HETATM   12  O3  UNL     1      26.606   6.381  49.027  1.00  0.00    -0.345 OA
ENDBRANCH   8   9
BRANCH   8  13
HETATM   13  O1  UNL     1      26.571   2.960  50.473  1.00  0.00    -0.347 OA
BRANCH  13  14
HETATM   14  C18 UNL     1      26.201   1.974  51.377  1.00  0.00     0.206 C 
BRANCH  14  15
HETATM   15  C19 UNL     1      27.266   1.855  52.447  1.00  0.00     0.299 C 
BRANCH  15  16
HETATM   16  N4  UNL     1      27.684   0.525  52.720  1.00  0.00     0.094 N 
HETATM   17  C20 UNL     1      26.635  -0.434  52.845  1.00  0.00     0.298 C 
HETATM   18  C21 UNL     1      27.185  -1.824  52.808  1.00  0.00     0.198 C 
HETATM   19  O2  UNL     1      28.443  -2.025  53.239  1.00  0.00    -0.388 OA
HETATM   20  C22 UNL     1      29.230  -1.008  53.643  1.00  0.00     0.198 C 
HETATM   21  C23 UNL     1      28.588   0.338  53.804  1.00  0.00     0.298 C 
ENDBRANCH  15  16
ENDBRANCH  14  15
ENDBRANCH  13  14
ENDBRANCH   8  13
ENDBRANCH   1   7
BRANCH   6  22
HETATM   22  N3  UNL     1      21.967   3.424  49.826  1.00  0.00    -0.369 N 
HETATM   23  H5  UNL     1      22.196   3.170  48.816  1.00  0.00     0.161 HD
BRANCH  22  24
HETATM   24  C9  UNL     1      21.420   2.288  50.537  1.00  0.00     0.092 A 
HETATM   25  C10 UNL     1      21.335   0.966  49.776  1.00  0.00     0.037 A 
HETATM   26  C11 UNL     1      22.251   1.119  50.922  1.00  0.00     0.043 A 
BRANCH  26  27
HETATM   27  C12 UNL     1      21.980   0.375  52.188  1.00  0.00    -0.052 A 
HETATM   28  C13 UNL     1      20.657   0.096  52.521  1.00  0.00     0.007 A 
HETATM   29  C14 UNL     1      20.393  -0.581  53.671  1.00  0.00     0.001 A 
HETATM   30  C15 UNL     1      21.400  -1.009  54.534  1.00  0.00     0.000 A 
HETATM   31  C16 UNL     1      22.737  -0.738  54.218  1.00  0.00     0.001 A 
HETATM   32  C17 UNL     1      22.994  -0.045  53.039  1.00  0.00     0.007 A 
ENDBRANCH  26  27
ENDBRANCH  22  24
ENDBRANCH   6  22
TORSDOF 9
ENDMDL
MODEL 2
REMARK VINA RESULT:      -8.2      1.920      6.224
REMARK  9 active torsions:
REMARK  status: ('A' for Active; 'I' for Inactive)
REMARK    1  A    between atoms: C2_2  and  C3_3 
REMARK    2  A    between atoms: C3_3  and  O1_21 
REMARK    3  A    between atoms: C4_4  and  C5_5 
REMARK    4  A    between atoms: C8_10  and  N3_11 
REMARK    5  A    between atoms: N3_11  and  C9_12 
REMARK    6  A    between atoms: C11_14  and  C12_15 
REMARK    7  A    between atoms: O1_21  and  C18_22 
REMARK    8  A    between atoms: C18_22  and  C19_23 
REMARK    9  A    between atoms: C19_23  and  N4_24 
ROOT
HETATM    1  C5  UNL     1      26.156   1.430  53.659  1.00  0.00     0.030 A 
HETATM    2  C6  UNL     1      27.449   1.887  53.561  1.00  0.00     0.133 A 
HETATM    3  N1  UNL     1      28.497   1.206  54.052  1.00  0.00    -0.253 NA
HETATM    4  C7  UNL     1      28.319   0.019  54.676  1.00  0.00     0.234 A 
HETATM    5  N2  UNL     1      27.061  -0.429  54.773  1.00  0.00    -0.224 NA
HETATM    6  C8  UNL     1      25.979   0.212  54.299  1.00  0.00     0.137 A 
ENDROOT
BRANCH   1   7
HETATM    7  C4  UNL     1      25.097   2.246  53.121  1.00  0.00     0.056 C 
HETATM    8  C3  UNL     1      24.849   2.964  52.045  1.00  0.00     0.102 C 
BRANCH   8   9
HETATM    9  C2  UNL     1      25.664   3.217  50.883  1.00  0.00     0.100 A 
HETATM   10  C1  UNL     1      25.313   3.308  49.634  1.00  0.00     0.039 A 
HETATM   11  C24 UNL     1      26.681   3.559  49.211  1.00  0.00     0.206 A 
HETATM   12  O3  UNL     1      26.974   3.446  50.572  1.00  0.00    -0.345 OA
ENDBRANCH   8   9
BRANCH   8  13
HETATM   13  O1  UNL     1      23.609   3.573  52.022  1.00  0.00    -0.347 OA
BRANCH  13  14
HETATM   14  C18 UNL     1      23.248   4.792  52.580  1.00  0.00     0.206 C 
BRANCH  14  15
HETATM   15  C19 UNL     1      22.660   5.678  51.502  1.00  0.00     0.299 C 
BRANCH  15  16
HETATM   16  N4  UNL     1      23.585   6.090  50.506  1.00  0.00     0.094 N 
HETATM   17  C20 UNL     1      24.628   6.952  50.958  1.00  0.00     0.298 C 
HETATM   18  C21 UNL     1      25.706   7.060  49.926  1.00  0.00     0.198 C 
HETATM   19  O2  UNL     1      25.371   6.896  48.633  1.00  0.00    -0.388 OA
HETATM   20  C22 UNL     1      24.116   6.583  48.255  1.00  0.00     0.198 C 
HETATM   21  C23 UNL     1      23.047   6.635  49.306  1.00  0.00     0.298 C 
ENDBRANCH  15  16
ENDBRANCH  14  15
ENDBRANCH  13  14
ENDBRANCH   8  13
ENDBRANCH   1   7
BRANCH   6  22
HETATM   22  N3  UNL     1      24.661  -0.301  54.438  1.00  0.00    -0.369 N 
HETATM   23  H5  UNL     1      24.337  -0.519  55.430  1.00  0.00     0.161 HD
BRANCH  22  24
HETATM   24  C9  UNL     1      23.623  -0.600  53.474  1.00  0.00     0.092 A 
HETATM   25  C10 UNL     1      22.397  -1.354  53.984  1.00  0.00     0.037 A 
HETATM   26  C11 UNL     1      22.285   0.044  53.526  1.00  0.00     0.043 A 
BRANCH  26  27
HETATM   27  C12 UNL     1      21.539   0.351  52.270  1.00  0.00    -0.052 A 
HETATM   28  C13 UNL     1      20.151   0.232  52.278  1.00  0.00     0.007 A 
HETATM   29  C14 UNL     1      19.457   0.508  51.142  1.00  0.00     0.001 A 
HETATM   30  C15 UNL     1      20.081   0.907  49.962  1.00  0.00     0.000 A 
HETATM   31  C16 UNL     1      21.476   1.032  49.932  1.00  0.00     0.001 A 
HETATM   32  C17 UNL     1      22.175   0.747  51.100  1.00  0.00     0.007 A 
ENDBRANCH  26  27
ENDBRANCH  22  24
ENDBRANCH   6  22
TORSDOF 9
ENDMDL
MODEL 3
REMARK VINA RESULT:      -8.2      2.319      6.728
REMARK  9 active torsions:
REMARK  status: ('A' for Active; 'I' for Inactive)
REMARK    1  A    between atoms: C2_2  and  C3_3 
REMARK    2  A    between atoms: C3_3  and  O1_21 
REMARK    3  A    between atoms: C4_4  and  C5_5 
REMARK    4  A    between atoms: C8_10  and  N3_11 
REMARK    5  A    between atoms: N3_11  and  C9_12 
REMARK    6  A    between atoms: C11_14  and  C12_15 
REMARK    7  A    between atoms: O1_21  and  C18_22 
REMARK    8  A    between atoms: C18_22  and  C19_23 
REMARK    9  A    between atoms: C19_23  and  N4_24 
ROOT
HETATM    1  C5  UNL     1      23.039   1.769  51.049  1.00  0.00     0.030 A 
HETATM    2  C6  UNL     1      21.992   1.061  50.506  1.00  0.00     0.133 A 
HETATM    3  N1  UNL     1      21.176   1.577  49.574  1.00  0.00    -0.253 NA
HETATM    4  C7  UNL     1      21.353   2.839  49.120  1.00  0.00     0.234 A 
HETATM    5  N2  UNL     1      22.373   3.531  49.646  1.00  0.00    -0.224 NA
HETATM    6  C8  UNL     1      23.217   3.062  50.580  1.00  0.00     0.137 A 
ENDROOT
BRANCH   1   7
HETATM    7  C4  UNL     1      23.844   1.136  52.062  1.00  0.00     0.056 C 
HETATM    8  C3  UNL     1      23.694   0.293  53.063  1.00  0.00     0.102 C 
BRANCH   8   9
HETATM    9  C2  UNL     1      22.512  -0.370  53.557  1.00  0.00     0.100 A 
HETATM   10  C1  UNL     1      21.488   0.130  54.184  1.00  0.00     0.039 A 
HETATM   11  C24 UNL     1      20.842  -1.168  54.278  1.00  0.00     0.206 A 
HETATM   12  O3  UNL     1      21.976  -1.625  53.602  1.00  0.00    -0.345 OA
ENDBRANCH   8   9
BRANCH   8  13
HETATM   13  O1  UNL     1      24.852  -0.009  53.753  1.00  0.00    -0.347 OA
BRANCH  13  14
HETATM   14  C18 UNL     1      25.625  -1.159  53.660  1.00  0.00     0.206 C 
BRANCH  14  15
HETATM   15  C19 UNL     1      26.900  -0.842  52.908  1.00  0.00     0.299 C 
BRANCH  15  16
HETATM   16  N4  UNL     1      27.628   0.266  53.418  1.00  0.00     0.094 N 
HETATM   17  C20 UNL     1      27.565   1.455  52.632  1.00  0.00     0.298 C 
HETATM   18  C21 UNL     1      28.083   2.626  53.406  1.00  0.00     0.198 C 
HETATM   19  O2  UNL     1      29.002   2.403  54.363  1.00  0.00    -0.388 OA
HETATM   20  C22 UNL     1      29.418   1.161  54.677  1.00  0.00     0.198 C 
HETATM   21  C23 UNL     1      28.987   0.041  53.776  1.00  0.00     0.298 C 
ENDBRANCH  15  16
ENDBRANCH  14  15
ENDBRANCH  13  14
ENDBRANCH   8  13
ENDBRANCH   1   7
BRANCH   6  22
HETATM   22  N3  UNL     1      24.279   3.842  51.115  1.00  0.00    -0.369 N 
HETATM   23  H5  UNL     1      24.134   4.235  52.095  1.00  0.00     0.161 HD
BRANCH  22  24
HETATM   24  C9  UNL     1      25.570   4.227  50.585  1.00  0.00     0.092 A 
HETATM   25  C10 UNL     1      26.335   3.174  49.785  1.00  0.00     0.037 A 
HETATM   26  C11 UNL     1      25.813   4.387  49.129  1.00  0.00     0.043 A 
BRANCH  26  27
HETATM   27  C12 UNL     1      26.764   5.421  48.624  1.00  0.00    -0.052 A 
HETATM   28  C13 UNL     1      26.260   6.673  48.280  1.00  0.00     0.007 A 
HETATM   29  C14 UNL     1      27.113   7.626  47.818  1.00  0.00     0.001 A 
HETATM   30  C15 UNL     1      28.481   7.399  47.675  1.00  0.00     0.000 A 
HETATM   31  C16 UNL     1      29.008   6.147  48.015  1.00  0.00     0.001 A 
HETATM   32  C17 UNL     1      28.125   5.180  48.486  1.00  0.00     0.007 A 
ENDBRANCH  26  27
ENDBRANCH  22  24
ENDBRANCH   6  22
TORSDOF 9
ENDMDL
MODEL 4
REMARK VINA RESULT:      -8.1      2.374      5.971
REMARK  9 active torsions:
REMARK  status: ('A' for Active; 'I' for Inactive)
REMARK    1  A    between atoms: C2_2  and  C3_3 
REMARK    2  A    between atoms: C3_3  and  O1_21 
REMARK    3  A    between atoms: C4_4  and  C5_5 
REMARK    4  A    between atoms: C8_10  and  N3_11 
REMARK    5  A    between atoms: N3_11  and  C9_12 
REMARK    6  A    between atoms: C11_14  and  C12_15 
REMARK    7  A    between atoms: O1_21  and  C18_22 
REMARK    8  A    between atoms: C18_22  and  C19_23 
REMARK    9  A    between atoms: C19_23  and  N4_24 
ROOT
HETATM    1  C5  UNL     1      21.405   2.432  51.708  1.00  0.00     0.030 A 
HETATM    2  C6  UNL     1      20.449   2.813  52.621  1.00  0.00     0.133 A 
HETATM    3  N1  UNL     1      19.271   3.344  52.257  1.00  0.00    -0.253 NA
HETATM    4  C7  UNL     1      18.969   3.528  50.951  1.00  0.00     0.234 A 
HETATM    5  N2  UNL     1      19.897   3.157  50.060  1.00  0.00    -0.224 NA
HETATM    6  C8  UNL     1      21.090   2.623  50.371  1.00  0.00     0.137 A 
ENDROOT
BRANCH   1   7
HETATM    7  C4  UNL     1      22.648   1.895  52.200  1.00  0.00     0.056 C 
HETATM    8  C3  UNL     1      23.072   0.869  52.909  1.00  0.00     0.102 C 
BRANCH   8   9
HETATM    9  C2  UNL     1      22.338  -0.211  53.521  1.00  0.00     0.100 A 
HETATM   10  C1  UNL     1      21.520  -0.182  54.532  1.00  0.00     0.039 A 
HETATM   11  C24 UNL     1      21.277  -1.612  54.447  1.00  0.00     0.206 A 
HETATM   12  O3  UNL     1      22.166  -1.558  53.371  1.00  0.00    -0.345 OA
ENDBRANCH   8   9
BRANCH   8  13
HETATM   13  O1  UNL     1      24.439   0.813  53.097  1.00  0.00    -0.347 OA
BRANCH  13  14
HETATM   14  C18 UNL     1      25.147  -0.002  53.970  1.00  0.00     0.206 C 
BRANCH  14  15
HETATM   15  C19 UNL     1      26.429   0.696  54.374  1.00  0.00     0.299 C 
BRANCH  15  16
HETATM   16  N4  UNL     1      27.617   0.005  54.016  1.00  0.00     0.094 N 
HETATM   17  C20 UNL     1      28.724   0.833  53.663  1.00  0.00     0.298 C 
HETATM   18  C21 UNL     1      29.988   0.033  53.620  1.00  0.00     0.198 C 
HETATM   19  O2  UNL     1      29.904  -1.278  53.329  1.00  0.00    -0.388 OA
HETATM   20  C22 UNL     1      28.720  -1.891  53.135  1.00  0.00     0.198 C 
HETATM   21  C23 UNL     1      27.501  -1.023  53.038  1.00  0.00     0.298 C 
ENDBRANCH  15  16
ENDBRANCH  14  15
ENDBRANCH  13  14
ENDBRANCH   8  13
ENDBRANCH   1   7
BRANCH   6  22
HETATM   22  N3  UNL     1      22.047   2.256  49.386  1.00  0.00    -0.369 N 
HETATM   23  H5  UNL     1      22.041   1.237  49.072  1.00  0.00     0.161 HD
BRANCH  22  24
HETATM   24  C9  UNL     1      23.067   3.009  48.688  1.00  0.00     0.092 A 
HETATM   25  C10 UNL     1      22.610   4.237  47.903  1.00  0.00     0.037 A 
HETATM   26  C11 UNL     1      23.459   4.382  49.100  1.00  0.00     0.043 A 
BRANCH  26  27
HETATM   27  C12 UNL     1      24.870   4.848  48.952  1.00  0.00    -0.052 A 
HETATM   28  C13 UNL     1      25.094   6.169  48.572  1.00  0.00     0.007 A 
HETATM   29  C14 UNL     1      26.374   6.609  48.433  1.00  0.00     0.001 A 
HETATM   30  C15 UNL     1      27.476   5.786  48.656  1.00  0.00     0.000 A 
HETATM   31  C16 UNL     1      27.272   4.454  49.038  1.00  0.00     0.001 A 
HETATM   32  C17 UNL     1      25.959   4.015  49.178  1.00  0.00     0.007 A 
ENDBRANCH  26  27
ENDBRANCH  22  24
ENDBRANCH   6  22
TORSDOF 9
ENDMDL
MODEL 5
REMARK VINA RESULT:      -8.1      2.389      6.097
REMARK  9 active torsions:
REMARK  status: ('A' for Active; 'I' for Inactive)
REMARK    1  A    between atoms: C2_2  and  C3_3 
REMARK    2  A    between atoms: C3_3  and  O1_21 
REMARK    3  A    between atoms: C4_4  and  C5_5 
REMARK    4  A    between atoms: C8_10  and  N3_11 
REMARK    5  A    between atoms: N3_11  and  C9_12 
REMARK    6  A    between atoms: C11_14  and  C12_15 
REMARK    7  A    between atoms: O1_21  and  C18_22 
REMARK    8  A    between atoms: C18_22  and  C19_23 
REMARK    9  A    between atoms: C19_23  and  N4_24 
ROOT
HETATM    1  C5  UNL     1      24.946   1.155  52.331  1.00  0.00     0.030 A 
HETATM    2  C6  UNL     1      26.253   1.027  51.923  1.00  0.00     0.133 A 
HETATM    3  N1  UNL     1      26.995  -0.057  52.201  1.00  0.00    -0.253 NA
HETATM    4  C7  UNL     1      26.476  -1.088  52.907  1.00  0.00     0.234 A 
HETATM    5  N2  UNL     1      25.202  -0.966  53.305  1.00  0.00    -0.224 NA
HETATM    6  C8  UNL     1      24.419   0.096  53.053  1.00  0.00     0.137 A 
ENDROOT
BRANCH   1   7
HETATM    7  C4  UNL     1      24.241   2.369  52.003  1.00  0.00     0.056 C 
HETATM    8  C3  UNL     1      23.315   2.780  51.161  1.00  0.00     0.102 C 
BRANCH   8   9
HETATM    9  C2  UNL     1      22.597   2.061  50.138  1.00  0.00     0.100 A 
HETATM   10  C1  UNL     1      22.505   2.310  48.865  1.00  0.00     0.039 A 
HETATM   11  C24 UNL     1      21.651   1.155  48.644  1.00  0.00     0.206 A 
HETATM   12  O3  UNL     1      21.801   0.957  50.019  1.00  0.00    -0.345 OA
ENDBRANCH   8   9
BRANCH   8  13
HETATM   13  O1  UNL     1      22.973   4.114  51.273  1.00  0.00    -0.347 OA
BRANCH  13  14
HETATM   14  C18 UNL     1      23.809   5.219  51.177  1.00  0.00     0.206 C 
BRANCH  14  15
HETATM   15  C19 UNL     1      23.965   5.599  49.720  1.00  0.00     0.299 C 
BRANCH  15  16
HETATM   16  N4  UNL     1      25.310   5.676  49.269  1.00  0.00     0.094 N 
HETATM   17  C20 UNL     1      26.131   4.556  49.599  1.00  0.00     0.298 C 
HETATM   18  C21 UNL     1      27.406   4.590  48.817  1.00  0.00     0.198 C 
HETATM   19  O2  UNL     1      27.884   5.785  48.424  1.00  0.00    -0.388 OA
HETATM   20  C22 UNL     1      27.220   6.933  48.666  1.00  0.00     0.198 C 
HETATM   21  C23 UNL     1      26.032   6.863  49.579  1.00  0.00     0.298 C 
ENDBRANCH  15  16
ENDBRANCH  14  15
ENDBRANCH  13  14
ENDBRANCH   8  13
ENDBRANCH   1   7
BRANCH   6  22
HETATM   22  N3  UNL     1      23.075   0.182  53.508  1.00  0.00    -0.369 N 
HETATM   23  H5  UNL     1      22.860   0.946  54.220  1.00  0.00     0.161 HD
BRANCH  22  24
HETATM   24  C9  UNL     1      21.886  -0.582  53.191  1.00  0.00     0.092 A 
HETATM   25  C10 UNL     1      21.310  -1.463  54.299  1.00  0.00     0.037 A 
HETATM   26  C11 UNL     1      20.567  -0.287  53.808  1.00  0.00     0.043 A 
BRANCH  26  27
HETATM   27  C12 UNL     1      19.304  -0.481  53.035  1.00  0.00    -0.052 A 
HETATM   28  C13 UNL     1      18.342  -1.348  53.546  1.00  0.00     0.007 A 
HETATM   29  C14 UNL     1      17.187  -1.537  52.854  1.00  0.00     0.001 A 
HETATM   30  C15 UNL     1      16.925  -0.892  51.647  1.00  0.00     0.000 A 
HETATM   31  C16 UNL     1      17.880  -0.016  51.115  1.00  0.00     0.001 A 
HETATM   32  C17 UNL     1      19.057   0.168  51.832  1.00  0.00     0.007 A 
ENDBRANCH  26  27
ENDBRANCH  22  24
ENDBRANCH   6  22
TORSDOF 9
ENDMDL
MODEL 6
REMARK VINA RESULT:      -8.1      2.964      7.364
REMARK  9 active torsions:
REMARK  status: ('A' for Active; 'I' for Inactive)
REMARK    1  A    between atoms: C2_2  and  C3_3 
REMARK    2  A    between atoms: C3_3  and  O1_21 
REMARK    3  A    between atoms: C4_4  and  C5_5 
REMARK    4  A    between atoms: C8_10  and  N3_11 
REMARK    5  A    between atoms: N3_11  and  C9_12 
REMARK    6  A    between atoms: C11_14  and  C12_15 
REMARK    7  A    between atoms: O1_21  and  C18_22 
REMARK    8  A    between atoms: C18_22  and  C19_23 
REMARK    9  A    between atoms: C19_23  and  N4_24 
ROOT
HETATM    1  C5  UNL     1      26.308   1.050  53.197  1.00  0.00     0.030 A 
HETATM    2  C6  UNL     1      26.790   0.669  54.428  1.00  0.00     0.133 A 
HETATM    3  N1  UNL     1      28.036   0.952  54.838  1.00  0.00    -0.253 NA
HETATM    4  C7  UNL     1      28.887   1.638  54.040  1.00  0.00     0.234 A 
HETATM    5  N2  UNL     1      28.421   2.011  52.841  1.00  0.00    -0.224 NA
HETATM    6  C8  UNL     1      27.184   1.753  52.384  1.00  0.00     0.137 A 
ENDROOT
BRANCH   1   7
HETATM    7  C4  UNL     1      24.963   0.676  52.841  1.00  0.00     0.056 C 
HETATM    8  C3  UNL     1      23.807   1.257  52.589  1.00  0.00     0.102 C 
BRANCH   8   9
HETATM    9  C2  UNL     1      23.444   2.652  52.590  1.00  0.00     0.100 A 
HETATM   10  C1  UNL     1      22.392   3.230  52.088  1.00  0.00     0.039 A 
HETATM   11  C24 UNL     1      22.837   4.543  52.526  1.00  0.00     0.206 A 
HETATM   12  O3  UNL     1      23.935   3.846  53.037  1.00  0.00    -0.345 OA
ENDBRANCH   8   9
BRANCH   8  13
HETATM   13  O1  UNL     1      22.776   0.394  52.273  1.00  0.00    -0.347 OA
BRANCH  13  14
HETATM   14  C18 UNL     1      22.154  -0.530  53.101  1.00  0.00     0.206 C 
BRANCH  14  15
HETATM   15  C19 UNL     1      21.013   0.146  53.833  1.00  0.00     0.299 C 
BRANCH  15  16
HETATM   16  N4  UNL     1      19.727  -0.113  53.289  1.00  0.00     0.094 N 
HETATM   17  C20 UNL     1      19.170  -1.387  53.612  1.00  0.00     0.298 C 
HETATM   18  C21 UNL     1      17.714  -1.428  53.270  1.00  0.00     0.198 C 
HETATM   19  O2  UNL     1      17.270  -0.643  52.272  1.00  0.00    -0.388 OA
HETATM   20  C22 UNL     1      18.084   0.211  51.620  1.00  0.00     0.198 C 
HETATM   21  C23 UNL     1      19.555   0.106  51.893  1.00  0.00     0.298 C 
ENDBRANCH  15  16
ENDBRANCH  14  15
ENDBRANCH  13  14
ENDBRANCH   8  13
ENDBRANCH   1   7
BRANCH   6  22
HETATM   22  N3  UNL     1      26.742   2.161  51.097  1.00  0.00    -0.369 N 
HETATM   23  H5  UNL     1      26.744   1.417  50.334  1.00  0.00     0.161 HD
BRANCH  22  24
HETATM   24  C9  UNL     1      26.265   3.429  50.585  1.00  0.00     0.092 A 
HETATM   25  C10 UNL     1      26.904   3.942  49.296  1.00  0.00     0.037 A 
HETATM   26  C11 UNL     1      25.488   3.532  49.324  1.00  0.00     0.043 A 
BRANCH  26  27
HETATM   27  C12 UNL     1      24.418   4.563  49.170  1.00  0.00    -0.052 A 
HETATM   28  C13 UNL     1      24.709   5.877  49.527  1.00  0.00     0.007 A 
HETATM   29  C14 UNL     1      23.746   6.828  49.393  1.00  0.00     0.001 A 
HETATM   30  C15 UNL     1      22.471   6.537  48.911  1.00  0.00     0.000 A 
HETATM   31  C16 UNL     1      22.157   5.222  48.548  1.00  0.00     0.001 A 
HETATM   32  C17 UNL     1      23.151   4.258  48.689  1.00  0.00     0.007 A 
ENDBRANCH  26  27
ENDBRANCH  22  24
ENDBRANCH   6  22
TORSDOF 9
ENDMDL
MODEL 7
REMARK VINA RESULT:      -8.0      3.011      7.864
REMARK  9 active torsions:
REMARK  status: ('A' for Active; 'I' for Inactive)
REMARK    1  A    between atoms: C2_2  and  C3_3 
REMARK    2  A    between atoms: C3_3  and  O1_21 
REMARK    3  A    between atoms: C4_4  and  C5_5 
REMARK    4  A    between atoms: C8_10  and  N3_11 
REMARK    5  A    between atoms: N3_11  and  C9_12 
REMARK    6  A    between atoms: C11_14  and  C12_15 
REMARK    7  A    between atoms: O1_21  and  C18_22 
REMARK    8  A    between atoms: C18_22  and  C19_23 
REMARK    9  A    between atoms: C19_23  and  N4_24 
ROOT
HETATM    1  C5  UNL     1      25.939   1.429  52.881  1.00  0.00     0.030 A 
HETATM    2  C6  UNL     1      26.437   1.442  54.164  1.00  0.00     0.133 A 
HETATM    3  N1  UNL     1      27.660   1.908  54.461  1.00  0.00    -0.253 NA
HETATM    4  C7  UNL     1      28.469   2.395  53.492  1.00  0.00     0.234 A 
HETATM    5  N2  UNL     1      27.987   2.385  52.242  1.00  0.00    -0.224 NA
HETATM    6  C8  UNL     1      26.772   1.930  51.892  1.00  0.00     0.137 A 
ENDROOT
BRANCH   1   7
HETATM    7  C4  UNL     1      24.623   0.886  52.661  1.00  0.00     0.056 C 
HETATM    8  C3  UNL     1      23.402   1.315  52.412  1.00  0.00     0.102 C 
BRANCH   8   9
HETATM    9  C2  UNL     1      22.898   2.657  52.259  1.00  0.00     0.100 A 
HETATM   10  C1  UNL     1      21.824   3.070  51.652  1.00  0.00     0.039 A 
HETATM   11  C24 UNL     1      22.105   4.457  51.982  1.00  0.00     0.206 A 
HETATM   12  O3  UNL     1      23.236   3.933  52.611  1.00  0.00    -0.345 OA
ENDBRANCH   8   9
BRANCH   8  13
HETATM   13  O1  UNL     1      22.451   0.324  52.274  1.00  0.00    -0.347 OA
BRANCH  13  14
HETATM   14  C18 UNL     1      21.901  -0.475  53.268  1.00  0.00     0.206 C 
BRANCH  14  15
HETATM   15  C19 UNL     1      20.674   0.208  53.833  1.00  0.00     0.299 C 
BRANCH  15  16
HETATM   16  N4  UNL     1      19.439  -0.364  53.427  1.00  0.00     0.094 N 
HETATM   17  C20 UNL     1      19.285  -1.754  53.711  1.00  0.00     0.298 C 
HETATM   18  C21 UNL     1      17.858  -2.171  53.542  1.00  0.00     0.198 C 
HETATM   19  O2  UNL     1      17.093  -1.491  52.668  1.00  0.00    -0.388 OA
HETATM   20  C22 UNL     1      17.559  -0.421  51.994  1.00  0.00     0.198 C 
HETATM   21  C23 UNL     1      19.029  -0.137  52.082  1.00  0.00     0.298 C 
ENDBRANCH  15  16
ENDBRANCH  14  15
ENDBRANCH  13  14
ENDBRANCH   8  13
ENDBRANCH   1   7
BRANCH   6  22
HETATM   22  N3  UNL     1      26.311   1.931  50.548  1.00  0.00    -0.369 N 
HETATM   23  H5  UNL     1      25.887   1.021  50.189  1.00  0.00     0.161 HD
BRANCH  22  24
HETATM   24  C9  UNL     1      26.294   2.953  49.522  1.00  0.00     0.092 A 
HETATM   25  C10 UNL     1      24.979   3.701  49.310  1.00  0.00     0.037 A 
HETATM   26  C11 UNL     1      26.164   4.397  49.846  1.00  0.00     0.043 A 
BRANCH  26  27
HETATM   27  C12 UNL     1      26.853   5.428  49.015  1.00  0.00    -0.052 A 
HETATM   28  C13 UNL     1      26.145   6.573  48.659  1.00  0.00     0.007 A 
HETATM   29  C14 UNL     1      26.758   7.522  47.902  1.00  0.00     0.001 A 
HETATM   30  C15 UNL     1      28.075   7.394  47.465  1.00  0.00     0.000 A 
HETATM   31  C16 UNL     1      28.805   6.250  47.811  1.00  0.00     0.001 A 
HETATM   32  C17 UNL     1      28.167   5.287  48.586  1.00  0.00     0.007 A 
ENDBRANCH  26  27
ENDBRANCH  22  24
ENDBRANCH   6  22
TORSDOF 9
ENDMDL
MODEL 8
REMARK VINA RESULT:      -7.9      2.070      8.324
REMARK  9 active torsions:
REMARK  status: ('A' for Active; 'I' for Inactive)
REMARK    1  A    between atoms: C2_2  and  C3_3 
REMARK    2  A    between atoms: C3_3  and  O1_21 
REMARK    3  A    between atoms: C4_4  and  C5_5 
REMARK    4  A    between atoms: C8_10  and  N3_11 
REMARK    5  A    between atoms: N3_11  and  C9_12 
REMARK    6  A    between atoms: C11_14  and  C12_15 
REMARK    7  A    between atoms: O1_21  and  C18_22 
REMARK    8  A    between atoms: C18_22  and  C19_23 
REMARK    9  A    between atoms: C19_23  and  N4_24 
ROOT
HETATM    1  C5  UNL     1      25.332   0.793  52.660  1.00  0.00     0.030 A 
HETATM    2  C6  UNL     1      25.579  -0.378  53.339  1.00  0.00     0.133 A 
HETATM    3  N1  UNL     1      26.786  -0.684  53.839  1.00  0.00    -0.253 NA
HETATM    4  C7  UNL     1      27.831   0.163  53.693  1.00  0.00     0.234 A 
HETATM    5  N2  UNL     1      27.594   1.304  53.032  1.00  0.00    -0.224 NA
HETATM    6  C8  UNL     1      26.406   1.658  52.513  1.00  0.00     0.137 A 
ENDROOT
BRANCH   1   7
HETATM    7  C4  UNL     1      24.008   1.019  52.140  1.00  0.00     0.056 C 
HETATM    8  C3  UNL     1      22.773   0.615  52.363  1.00  0.00     0.102 C 
BRANCH   8   9
HETATM    9  C2  UNL     1      22.258  -0.320  53.332  1.00  0.00     0.100 A 
HETATM   10  C1  UNL     1      21.621  -0.090  54.442  1.00  0.00     0.039 A 
HETATM   11  C24 UNL     1      21.506  -1.509  54.735  1.00  0.00     0.206 A 
HETATM   12  O3  UNL     1      22.193  -1.670  53.530  1.00  0.00    -0.345 OA
ENDBRANCH   8   9
BRANCH   8  13
HETATM   13  O1  UNL     1      21.817   1.177  51.541  1.00  0.00    -0.347 OA
BRANCH  13  14
HETATM   14  C18 UNL     1      21.989   1.699  50.266  1.00  0.00     0.206 C 
BRANCH  14  15
HETATM   15  C19 UNL     1      21.028   2.851  50.066  1.00  0.00     0.299 C 
BRANCH  15  16
HETATM   16  N4  UNL     1      21.643   4.130  49.996  1.00  0.00     0.094 N 
HETATM   17  C20 UNL     1      22.262   4.444  48.749  1.00  0.00     0.298 C 
HETATM   18  C21 UNL     1      22.587   5.902  48.675  1.00  0.00     0.198 C 
HETATM   19  O2  UNL     1      22.828   6.562  49.823  1.00  0.00    -0.388 OA
HETATM   20  C22 UNL     1      22.727   5.962  51.025  1.00  0.00     0.198 C 
HETATM   21  C23 UNL     1      22.549   4.472  51.040  1.00  0.00     0.298 C 
ENDBRANCH  15  16
ENDBRANCH  14  15
ENDBRANCH  13  14
ENDBRANCH   8  13
ENDBRANCH   1   7
BRANCH   6  22
HETATM   22  N3  UNL     1      26.209   2.877  51.809  1.00  0.00    -0.369 N 
HETATM   23  H5  UNL     1      25.610   3.614  52.292  1.00  0.00     0.161 HD
BRANCH  22  24
HETATM   24  C9  UNL     1      26.675   3.347  50.522  1.00  0.00     0.092 A 
HETATM   25  C10 UNL     1      25.756   3.115  49.323  1.00  0.00     0.037 A 
HETATM   26  C11 UNL     1      26.029   4.480  49.811  1.00  0.00     0.043 A 
BRANCH  26  27
HETATM   27  C12 UNL     1      26.838   5.415  48.974  1.00  0.00    -0.052 A 
HETATM   28  C13 UNL     1      26.245   6.599  48.542  1.00  0.00     0.007 A 
HETATM   29  C14 UNL     1      26.968   7.461  47.779  1.00  0.00     0.001 A 
HETATM   30  C15 UNL     1      28.287   7.206  47.409  1.00  0.00     0.000 A 
HETATM   31  C16 UNL     1      28.903   6.022  47.832  1.00  0.00     0.001 A 
HETATM   32  C17 UNL     1      28.153   5.148  48.613  1.00  0.00     0.007 A 
ENDBRANCH  26  27
ENDBRANCH  22  24
ENDBRANCH   6  22
TORSDOF 9
ENDMDL
MODEL 9
REMARK VINA RESULT:      -7.9      2.464      6.480
REMARK  9 active torsions:
REMARK  status: ('A' for Active; 'I' for Inactive)
REMARK    1  A    between atoms: C2_2  and  C3_3 
REMARK    2  A    between atoms: C3_3  and  O1_21 
REMARK    3  A    between atoms: C4_4  and  C5_5 
REMARK    4  A    between atoms: C8_10  and  N3_11 
REMARK    5  A    between atoms: N3_11  and  C9_12 
REMARK    6  A    between atoms: C11_14  and  C12_15 
REMARK    7  A    between atoms: O1_21  and  C18_22 
REMARK    8  A    between atoms: C18_22  and  C19_23 
REMARK    9  A    between atoms: C19_23  and  N4_24 
ROOT
HETATM    1  C5  UNL     1      24.725   1.145  52.436  1.00  0.00     0.030 A 
HETATM    2  C6  UNL     1      25.952   1.272  51.828  1.00  0.00     0.133 A 
HETATM    3  N1  UNL     1      26.888   0.312  51.880  1.00  0.00    -0.253 NA
HETATM    4  C7  UNL     1      26.658  -0.843  52.545  1.00  0.00     0.234 A 
HETATM    5  N2  UNL     1      25.464  -0.970  53.139  1.00  0.00    -0.224 NA
HETATM    6  C8  UNL     1      24.495  -0.040  53.117  1.00  0.00     0.137 A 
ENDROOT
BRANCH   1   7
HETATM    7  C4  UNL     1      23.796   2.243  52.344  1.00  0.00     0.056 C 
HETATM    8  C3  UNL     1      22.925   2.734  51.485  1.00  0.00     0.102 C 
BRANCH   8   9
HETATM    9  C2  UNL     1      22.558   2.283  50.166  1.00  0.00     0.100 A 
HETATM   10  C1  UNL     1      21.838   1.258  49.817  1.00  0.00     0.039 A 
HETATM   11  C24 UNL     1      21.988   1.564  48.404  1.00  0.00     0.206 A 
HETATM   12  O3  UNL     1      22.749   2.642  48.862  1.00  0.00    -0.345 OA
ENDBRANCH   8   9
BRANCH   8  13
HETATM   13  O1  UNL     1      22.253   3.862  51.915  1.00  0.00    -0.347 OA
BRANCH  13  14
HETATM   14  C18 UNL     1      21.267   4.573  51.244  1.00  0.00     0.206 C 
BRANCH  14  15
HETATM   15  C19 UNL     1      21.704   6.017  51.105  1.00  0.00     0.299 C 
BRANCH  15  16
HETATM   16  N4  UNL     1      22.966   6.195  50.477  1.00  0.00     0.094 N 
HETATM   17  C20 UNL     1      23.709   7.334  50.908  1.00  0.00     0.298 C 
HETATM   18  C21 UNL     1      25.126   7.248  50.434  1.00  0.00     0.198 C 
HETATM   19  O2  UNL     1      25.381   6.566  49.303  1.00  0.00    -0.388 OA
HETATM   20  C22 UNL     1      24.412   5.918  48.627  1.00  0.00     0.198 C 
HETATM   21  C23 UNL     1      22.994   6.158  49.054  1.00  0.00     0.298 C 
ENDBRANCH  15  16
ENDBRANCH  14  15
ENDBRANCH  13  14
ENDBRANCH   8  13
ENDBRANCH   1   7
BRANCH   6  22
HETATM   22  N3  UNL     1      23.247  -0.219  53.774  1.00  0.00    -0.369 N 
HETATM   23  H5  UNL     1      23.158   0.198  54.751  1.00  0.00     0.161 HD
BRANCH  22  24
HETATM   24  C9  UNL     1      22.018  -0.874  53.375  1.00  0.00     0.092 A 
HETATM   25  C10 UNL     1      21.398  -1.854  54.369  1.00  0.00     0.037 A 
HETATM   26  C11 UNL     1      20.718  -0.588  54.035  1.00  0.00     0.043 A 
BRANCH  26  27
HETATM   27  C12 UNL     1      19.445  -0.618  53.255  1.00  0.00    -0.052 A 
HETATM   28  C13 UNL     1      19.311   0.249  52.173  1.00  0.00     0.007 A 
HETATM   29  C14 UNL     1      18.158   0.235  51.453  1.00  0.00     0.001 A 
HETATM   30  C15 UNL     1      17.099  -0.619  51.755  1.00  0.00     0.000 A 
HETATM   31  C16 UNL     1      17.213  -1.499  52.838  1.00  0.00     0.001 A 
HETATM   32  C17 UNL     1      18.397  -1.475  53.568  1.00  0.00     0.007 A 
ENDBRANCH  26  27
ENDBRANCH  22  24
ENDBRANCH   6  22
TORSDOF 9
ENDMDL
