MODEL 1
REMARK VINA RESULT:      -7.6      0.000      0.000
REMARK  8 active torsions:
REMARK  status: ('A' for Active; 'I' for Inactive)
REMARK    1  A    between atoms: O1_2  and  C2_3 
REMARK    2  A    between atoms: C6_9  and  N3_10 
REMARK    3  A    between atoms: N3_10  and  C7_11 
REMARK    4  A    between atoms: C7_11  and  C8_12 
REMARK    5  A    between atoms: C12_17  and  N4_18 
REMARK       I    between atoms: N4_18  and  C13_19 
REMARK    6  A    between atoms: C13_19  and  C14_21 
REMARK    7  A    between atoms: C15_22  and  C16_23 
REMARK    8  A    between atoms: C16_23  and  N5_24 
ROOT
HETATM    1  C2  UNL     1      24.022   2.520  51.275  1.00  0.00     0.097 A 
HETATM    2  C3  UNL     1      23.586   1.409  51.963  1.00  0.00     0.071 A 
HETATM    3  C4  UNL     1      24.387   0.809  52.913  1.00  0.00     0.075 A 
HETATM    4  N1  UNL     1      23.938  -0.291  53.584  1.00  0.00    -0.241 NA
HETATM    5  C5  UNL     1      24.753  -0.858  54.515  1.00  0.00     0.235 A 
HETATM    6  N2  UNL     1      25.971  -0.355  54.776  1.00  0.00    -0.224 NA
HETATM    7  C6  UNL     1      26.492   0.722  54.165  1.00  0.00     0.137 A 
HETATM    8  C10 UNL     1      25.646   1.271  53.231  1.00  0.00     0.041 A 
HETATM    9  C11 UNL     1      26.046   2.384  52.523  1.00  0.00     0.050 A 
HETATM   10  C12 UNL     1      25.275   3.010  51.567  1.00  0.00     0.069 A 
ENDROOT
BRANCH  10  11
HETATM   11  N4  UNL     1      25.738   4.171  50.854  1.00  0.00    -0.321 N 
HETATM   12  C13 UNL     1      26.585   3.839  49.760  1.00  0.00     0.245 C 
HETATM   13  O2  UNL     1      26.870   2.644  49.487  1.00  0.00    -0.268 OA
HETATM   14  H12 UNL     1      25.475   5.141  51.117  1.00  0.00     0.169 HD
BRANCH  12  15
HETATM   15  C14 UNL     1      27.140   4.892  48.933  1.00  0.00     0.072 C 
HETATM   16  C15 UNL     1      26.568   6.075  48.805  1.00  0.00     0.008 C 
BRANCH  16  17
HETATM   17  C16 UNL     1      27.125   7.183  47.954  1.00  0.00     0.299 C 
BRANCH  17  18
HETATM   18  N5  UNL     1      28.538   7.374  48.143  1.00  0.00     0.083 N 
HETATM   19  C17 UNL     1      28.747   8.627  48.839  1.00  0.00     0.309 C 
HETATM   20  C18 UNL     1      29.312   7.414  46.940  1.00  0.00     0.309 C 
ENDBRANCH  17  18
ENDBRANCH  16  17
ENDBRANCH  12  15
ENDBRANCH  10  11
BRANCH   1  21
HETATM   21  O1  UNL     1      23.252   3.156  50.311  1.00  0.00    -0.354 OA
HETATM   22  C1  UNL     1      22.966   2.433  49.127  1.00  0.00     0.210 C 
ENDBRANCH   1  21
BRANCH   7  23
HETATM   23  N3  UNL     1      27.787   1.222  54.471  1.00  0.00    -0.370 N 
HETATM   24  H6  UNL     1      28.022   1.752  55.333  1.00  0.00     0.161 HD
BRANCH  23  25
HETATM   25  C7  UNL     1      28.819   0.955  53.494  1.00  0.00     0.150 C 
BRANCH  25  26
HETATM   26  C8  UNL     1      29.270  -0.449  53.678  1.00  0.00     0.022 C 
HETATM   27  C9  UNL     1      29.121  -1.730  53.352  1.00  0.00     0.186 C 
HETATM   28  F1  UNL     1      29.692  -2.907  53.676  1.00  0.00    -0.220 F 
ENDBRANCH  25  26
ENDBRANCH  23  25
ENDBRANCH   7  23
TORSDOF 8
ENDMDL
MODEL 2
REMARK VINA RESULT:      -7.4      2.769      4.749
REMARK  8 active torsions:
REMARK  status: ('A' for Active; 'I' for Inactive)
REMARK    1  A    between atoms: O1_2  and  C2_3 
REMARK    2  A    between atoms: C6_9  and  N3_10 
REMARK    3  A    between atoms: N3_10  and  C7_11 
REMARK    4  A    between atoms: C7_11  and  C8_12 
REMARK    5  A    between atoms: C12_17  and  N4_18 
REMARK       I    between atoms: N4_18  and  C13_19 
REMARK    6  A    between atoms: C13_19  and  C14_21 
REMARK    7  A    between atoms: C15_22  and  C16_23 
REMARK    8  A    between atoms: C16_23  and  N5_24 
ROOT
HETATM    1  C2  UNL     1      26.472   2.143  52.229  1.00  0.00     0.097 A 
HETATM    2  C3  UNL     1      26.062   0.969  52.822  1.00  0.00     0.071 A 
HETATM    3  C4  UNL     1      24.740   0.577  52.768  1.00  0.00     0.075 A 
HETATM    4  N1  UNL     1      24.353  -0.590  53.362  1.00  0.00    -0.241 NA
HETATM    5  C5  UNL     1      23.041  -0.947  53.290  1.00  0.00     0.235 A 
HETATM    6  N2  UNL     1      22.142  -0.178  52.652  1.00  0.00    -0.224 NA
HETATM    7  C6  UNL     1      22.435   0.981  52.043  1.00  0.00     0.137 A 
HETATM    8  C10 UNL     1      23.765   1.315  52.133  1.00  0.00     0.041 A 
HETATM    9  C11 UNL     1      24.214   2.481  51.552  1.00  0.00     0.050 A 
HETATM   10  C12 UNL     1      25.525   2.906  51.585  1.00  0.00     0.069 A 
ENDROOT
BRANCH  10  11
HETATM   11  N4  UNL     1      25.945   4.134  50.962  1.00  0.00    -0.321 N 
HETATM   12  C13 UNL     1      26.489   3.931  49.664  1.00  0.00     0.245 C 
HETATM   13  O2  UNL     1      26.573   2.782  49.158  1.00  0.00    -0.268 OA
HETATM   14  H12 UNL     1      25.855   5.062  51.421  1.00  0.00     0.169 HD
BRANCH  12  15
HETATM   15  C14 UNL     1      26.962   5.065  48.895  1.00  0.00     0.072 C 
HETATM   16  C15 UNL     1      28.229   5.220  48.558  1.00  0.00     0.008 C 
BRANCH  16  17
HETATM   17  C16 UNL     1      28.744   6.387  47.761  1.00  0.00     0.299 C 
BRANCH  17  18
HETATM   18  N5  UNL     1      30.181   6.439  47.716  1.00  0.00     0.083 N 
HETATM   19  C17 UNL     1      30.693   5.084  47.727  1.00  0.00     0.309 C 
HETATM   20  C18 UNL     1      30.798   7.142  48.799  1.00  0.00     0.309 C 
ENDBRANCH  17  18
ENDBRANCH  16  17
ENDBRANCH  12  15
ENDBRANCH  10  11
BRANCH   1  21
HETATM   21  O1  UNL     1      27.790   2.578  52.258  1.00  0.00    -0.354 OA
HETATM   22  C1  UNL     1      28.518   2.368  53.455  1.00  0.00     0.210 C 
ENDBRANCH   1  21
BRANCH   7  23
HETATM   23  N3  UNL     1      21.451   1.765  51.379  1.00  0.00    -0.370 N 
HETATM   24  H6  UNL     1      21.217   2.746  51.627  1.00  0.00     0.161 HD
BRANCH  23  25
HETATM   25  C7  UNL     1      20.752   1.119  50.290  1.00  0.00     0.150 C 
BRANCH  25  26
HETATM   26  C8  UNL     1      21.627   1.172  49.090  1.00  0.00     0.022 C 
HETATM   27  C9  UNL     1      22.072   1.877  48.053  1.00  0.00     0.186 C 
HETATM   28  F1  UNL     1      22.927   1.696  47.027  1.00  0.00    -0.220 F 
ENDBRANCH  25  26
ENDBRANCH  23  25
ENDBRANCH   7  23
TORSDOF 8
ENDMDL
MODEL 3
REMARK VINA RESULT:      -7.3      1.496      1.817
REMARK  8 active torsions:
REMARK  status: ('A' for Active; 'I' for Inactive)
REMARK    1  A    between atoms: O1_2  and  C2_3 
REMARK    2  A    between atoms: C6_9  and  N3_10 
REMARK    3  A    between atoms: N3_10  and  C7_11 
REMARK    4  A    between atoms: C7_11  and  C8_12 
REMARK    5  A    between atoms: C12_17  and  N4_18 
REMARK       I    between atoms: N4_18  and  C13_19 
REMARK    6  A    between atoms: C13_19  and  C14_21 
REMARK    7  A    between atoms: C15_22  and  C16_23 
REMARK    8  A    between atoms: C16_23  and  N5_24 
ROOT
HETATM    1  C2  UNL     1      22.891   3.622  51.768  1.00  0.00     0.097 A 
HETATM    2  C3  UNL     1      22.187   2.568  52.308  1.00  0.00     0.071 A 
HETATM    3  C4  UNL     1      22.846   1.476  52.833  1.00  0.00     0.075 A 
HETATM    4  N1  UNL     1      22.132   0.441  53.364  1.00  0.00    -0.241 NA
HETATM    5  C5  UNL     1      22.814  -0.621  53.873  1.00  0.00     0.235 A 
HETATM    6  N2  UNL     1      24.157  -0.661  53.860  1.00  0.00    -0.224 NA
HETATM    7  C6  UNL     1      24.937   0.310  53.359  1.00  0.00     0.137 A 
HETATM    8  C10 UNL     1      24.220   1.368  52.852  1.00  0.00     0.041 A 
HETATM    9  C11 UNL     1      24.888   2.441  52.304  1.00  0.00     0.050 A 
HETATM   10  C12 UNL     1      24.265   3.549  51.770  1.00  0.00     0.069 A 
ENDROOT
BRANCH  10  11
HETATM   11  N4  UNL     1      25.009   4.646  51.208  1.00  0.00    -0.321 N 
HETATM   12  C13 UNL     1      25.471   4.375  49.891  1.00  0.00     0.245 C 
HETATM   13  O2  UNL     1      25.231   3.280  49.320  1.00  0.00    -0.268 OA
HETATM   14  H12 UNL     1      25.182   5.535  51.718  1.00  0.00     0.169 HD
BRANCH  12  15
HETATM   15  C14 UNL     1      26.238   5.376  49.176  1.00  0.00     0.072 C 
HETATM   16  C15 UNL     1      27.477   5.168  48.767  1.00  0.00     0.008 C 
BRANCH  16  17
HETATM   17  C16 UNL     1      28.293   6.189  48.025  1.00  0.00     0.299 C 
BRANCH  17  18
HETATM   18  N5  UNL     1      27.823   7.533  48.229  1.00  0.00     0.083 N 
HETATM   19  C17 UNL     1      27.452   8.093  46.945  1.00  0.00     0.309 C 
HETATM   20  C18 UNL     1      28.767   8.423  48.832  1.00  0.00     0.309 C 
ENDBRANCH  17  18
ENDBRANCH  16  17
ENDBRANCH  12  15
ENDBRANCH  10  11
BRANCH   1  21
HETATM   21  O1  UNL     1      22.271   4.741  51.228  1.00  0.00    -0.354 OA
HETATM   22  C1  UNL     1      20.856   4.737  51.172  1.00  0.00     0.210 C 
ENDBRANCH   1  21
BRANCH   7  23
HETATM   23  N3  UNL     1      26.357   0.229  53.364  1.00  0.00    -0.370 N 
HETATM   24  H6  UNL     1      26.941   0.108  52.514  1.00  0.00     0.161 HD
BRANCH  23  25
HETATM   25  C7  UNL     1      26.994   0.324  54.659  1.00  0.00     0.150 C 
BRANCH  25  26
HETATM   26  C8  UNL     1      28.414  -0.086  54.501  1.00  0.00     0.022 C 
HETATM   27  C9  UNL     1      29.309  -0.798  53.824  1.00  0.00     0.186 C 
HETATM   28  F1  UNL     1      30.637  -1.025  53.875  1.00  0.00    -0.220 F 
ENDBRANCH  25  26
ENDBRANCH  23  25
ENDBRANCH   7  23
TORSDOF 8
ENDMDL
MODEL 4
REMARK VINA RESULT:      -7.1      2.214      2.852
REMARK  8 active torsions:
REMARK  status: ('A' for Active; 'I' for Inactive)
REMARK    1  A    between atoms: O1_2  and  C2_3 
REMARK    2  A    between atoms: C6_9  and  N3_10 
REMARK    3  A    between atoms: N3_10  and  C7_11 
REMARK    4  A    between atoms: C7_11  and  C8_12 
REMARK    5  A    between atoms: C12_17  and  N4_18 
REMARK       I    between atoms: N4_18  and  C13_19 
REMARK    6  A    between atoms: C13_19  and  C14_21 
REMARK    7  A    between atoms: C15_22  and  C16_23 
REMARK    8  A    between atoms: C16_23  and  N5_24 
ROOT
HETATM    1  C2  UNL     1      21.804   1.132  52.087  1.00  0.00     0.097 A 
HETATM    2  C3  UNL     1      21.583   0.352  53.201  1.00  0.00     0.071 A 
HETATM    3  C4  UNL     1      22.640  -0.205  53.892  1.00  0.00     0.075 A 
HETATM    4  N1  UNL     1      22.402  -0.974  54.993  1.00  0.00    -0.241 NA
HETATM    5  C5  UNL     1      23.467  -1.508  55.651  1.00  0.00     0.235 A 
HETATM    6  N2  UNL     1      24.726  -1.289  55.236  1.00  0.00    -0.224 NA
HETATM    7  C6  UNL     1      25.051  -0.547  54.165  1.00  0.00     0.137 A 
HETATM    8  C10 UNL     1      23.955  -0.022  53.522  1.00  0.00     0.041 A 
HETATM    9  C11 UNL     1      24.135   0.763  52.404  1.00  0.00     0.050 A 
HETATM   10  C12 UNL     1      23.105   1.336  51.689  1.00  0.00     0.069 A 
ENDROOT
BRANCH  10  11
HETATM   11  N4  UNL     1      23.345   2.150  50.525  1.00  0.00    -0.321 N 
HETATM   12  C13 UNL     1      23.699   3.486  50.857  1.00  0.00     0.245 C 
HETATM   13  O2  UNL     1      23.781   3.869  52.053  1.00  0.00    -0.268 OA
HETATM   14  H12 UNL     1      23.266   1.788  49.555  1.00  0.00     0.169 HD
BRANCH  12  15
HETATM   15  C14 UNL     1      23.975   4.441  49.802  1.00  0.00     0.072 C 
HETATM   16  C15 UNL     1      24.825   5.441  49.949  1.00  0.00     0.008 C 
BRANCH  16  17
HETATM   17  C16 UNL     1      25.128   6.445  48.871  1.00  0.00     0.299 C 
BRANCH  17  18
HETATM   18  N5  UNL     1      25.132   7.799  49.356  1.00  0.00     0.083 N 
HETATM   19  C17 UNL     1      26.442   8.091  49.902  1.00  0.00     0.309 C 
HETATM   20  C18 UNL     1      24.167   8.083  50.374  1.00  0.00     0.309 C 
ENDBRANCH  17  18
ENDBRANCH  16  17
ENDBRANCH  12  15
ENDBRANCH  10  11
BRANCH   1  21
HETATM   21  O1  UNL     1      20.773   1.712  51.360  1.00  0.00    -0.354 OA
HETATM   22  C1  UNL     1      20.036   2.745  51.989  1.00  0.00     0.210 C 
ENDBRANCH   1  21
BRANCH   7  23
HETATM   23  N3  UNL     1      26.398  -0.341  53.759  1.00  0.00    -0.370 N 
HETATM   24  H6  UNL     1      26.801  -0.685  52.866  1.00  0.00     0.161 HD
BRANCH  23  25
HETATM   25  C7  UNL     1      27.232   0.403  54.678  1.00  0.00     0.150 C 
BRANCH  25  26
HETATM   26  C8  UNL     1      28.617  -0.124  54.566  1.00  0.00     0.022 C 
HETATM   27  C9  UNL     1      29.521  -0.763  53.829  1.00  0.00     0.186 C 
HETATM   28  F1  UNL     1      30.806  -1.150  53.954  1.00  0.00    -0.220 F 
ENDBRANCH  25  26
ENDBRANCH  23  25
ENDBRANCH   7  23
TORSDOF 8
ENDMDL
MODEL 5
REMARK VINA RESULT:      -6.9      3.166      6.811
REMARK  8 active torsions:
REMARK  status: ('A' for Active; 'I' for Inactive)
REMARK    1  A    between atoms: O1_2  and  C2_3 
REMARK    2  A    between atoms: C6_9  and  N3_10 
REMARK    3  A    between atoms: N3_10  and  C7_11 
REMARK    4  A    between atoms: C7_11  and  C8_12 
REMARK    5  A    between atoms: C12_17  and  N4_18 
REMARK       I    between atoms: N4_18  and  C13_19 
REMARK    6  A    between atoms: C13_19  and  C14_21 
REMARK    7  A    between atoms: C15_22  and  C16_23 
REMARK    8  A    between atoms: C16_23  and  N5_24 
ROOT
HETATM    1  C2  UNL     1      21.920   2.563  52.257  1.00  0.00     0.097 A 
HETATM    2  C3  UNL     1      21.084   3.419  51.573  1.00  0.00     0.071 A 
HETATM    3  C4  UNL     1      21.502   4.689  51.232  1.00  0.00     0.075 A 
HETATM    4  N1  UNL     1      20.660   5.522  50.555  1.00  0.00    -0.241 NA
HETATM    5  C5  UNL     1      21.104   6.768  50.234  1.00  0.00     0.235 A 
HETATM    6  N2  UNL     1      22.339   7.178  50.570  1.00  0.00    -0.224 NA
HETATM    7  C6  UNL     1      23.231   6.426  51.234  1.00  0.00     0.137 A 
HETATM    8  C10 UNL     1      22.754   5.174  51.544  1.00  0.00     0.041 A 
HETATM    9  C11 UNL     1      23.560   4.290  52.227  1.00  0.00     0.050 A 
HETATM   10  C12 UNL     1      23.178   3.014  52.585  1.00  0.00     0.069 A 
ENDROOT
BRANCH  10  11
HETATM   11  N4  UNL     1      24.058   2.126  53.299  1.00  0.00    -0.321 N 
HETATM   12  C13 UNL     1      24.999   1.487  52.446  1.00  0.00     0.245 C 
HETATM   13  O2  UNL     1      25.020   1.705  51.207  1.00  0.00    -0.268 OA
HETATM   14  H12 UNL     1      24.003   1.978  54.326  1.00  0.00     0.169 HD
BRANCH  12  15
HETATM   15  C14 UNL     1      25.962   0.558  53.004  1.00  0.00     0.072 C 
HETATM   16  C15 UNL     1      26.717   0.853  54.047  1.00  0.00     0.008 C 
BRANCH  16  17
HETATM   17  C16 UNL     1      27.722  -0.093  54.643  1.00  0.00     0.299 C 
BRANCH  17  18
HETATM   18  N5  UNL     1      29.075   0.377  54.509  1.00  0.00     0.083 N 
HETATM   19  C17 UNL     1      29.045   1.764  54.094  1.00  0.00     0.309 C 
HETATM   20  C18 UNL     1      29.876  -0.339  53.563  1.00  0.00     0.309 C 
ENDBRANCH  17  18
ENDBRANCH  16  17
ENDBRANCH  12  15
ENDBRANCH  10  11
BRANCH   1  21
HETATM   21  O1  UNL     1      21.543   1.277  52.621  1.00  0.00    -0.354 OA
HETATM   22  C1  UNL     1      21.413   0.320  51.586  1.00  0.00     0.210 C 
ENDBRANCH   1  21
BRANCH   7  23
HETATM   23  N3  UNL     1      24.530   6.898  51.571  1.00  0.00    -0.370 N 
HETATM   24  H6  UNL     1      24.873   7.026  52.542  1.00  0.00     0.161 HD
BRANCH  23  25
HETATM   25  C7  UNL     1      25.400   7.211  50.459  1.00  0.00     0.150 C 
BRANCH  25  26
HETATM   26  C8  UNL     1      25.689   5.945  49.735  1.00  0.00     0.022 C 
HETATM   27  C9  UNL     1      26.287   4.758  49.743  1.00  0.00     0.186 C 
HETATM   28  F1  UNL     1      26.414   3.708  48.907  1.00  0.00    -0.220 F 
ENDBRANCH  25  26
ENDBRANCH  23  25
ENDBRANCH   7  23
TORSDOF 8
ENDMDL
MODEL 6
REMARK VINA RESULT:      -6.9      1.840      2.440
REMARK  8 active torsions:
REMARK  status: ('A' for Active; 'I' for Inactive)
REMARK    1  A    between atoms: O1_2  and  C2_3 
REMARK    2  A    between atoms: C6_9  and  N3_10 
REMARK    3  A    between atoms: N3_10  and  C7_11 
REMARK    4  A    between atoms: C7_11  and  C8_12 
REMARK    5  A    between atoms: C12_17  and  N4_18 
REMARK       I    between atoms: N4_18  and  C13_19 
REMARK    6  A    between atoms: C13_19  and  C14_21 
REMARK    7  A    between atoms: C15_22  and  C16_23 
REMARK    8  A    between atoms: C16_23  and  N5_24 
ROOT
HETATM    1  C2  UNL     1      21.667   1.886  51.475  1.00  0.00     0.097 A 
HETATM    2  C3  UNL     1      21.183   1.206  52.571  1.00  0.00     0.071 A 
HETATM    3  C4  UNL     1      22.018   0.421  53.338  1.00  0.00     0.075 A 
HETATM    4  N1  UNL     1      21.521  -0.246  54.420  1.00  0.00    -0.241 NA
HETATM    5  C5  UNL     1      22.373  -1.011  55.155  1.00  0.00     0.235 A 
HETATM    6  N2  UNL     1      23.673  -1.116  54.833  1.00  0.00    -0.224 NA
HETATM    7  C6  UNL     1      24.246  -0.497  53.789  1.00  0.00     0.137 A 
HETATM    8  C10 UNL     1      23.361   0.268  53.066  1.00  0.00     0.041 A 
HETATM    9  C11 UNL     1      23.807   0.964  51.964  1.00  0.00     0.050 A 
HETATM   10  C12 UNL     1      23.003   1.757  51.173  1.00  0.00     0.069 A 
ENDROOT
BRANCH  10  11
HETATM   11  N4  UNL     1      23.517   2.465  50.029  1.00  0.00    -0.321 N 
HETATM   12  C13 UNL     1      24.187   3.667  50.387  1.00  0.00     0.245 C 
HETATM   13  O2  UNL     1      24.292   4.032  51.586  1.00  0.00    -0.268 OA
HETATM   14  H12 UNL     1      23.406   2.124  49.055  1.00  0.00     0.169 HD
BRANCH  12  15
HETATM   15  C14 UNL     1      24.766   4.503  49.354  1.00  0.00     0.072 C 
HETATM   16  C15 UNL     1      25.520   5.553  49.625  1.00  0.00     0.008 C 
BRANCH  16  17
HETATM   17  C16 UNL     1      26.132   6.435  48.572  1.00  0.00     0.299 C 
BRANCH  17  18
HETATM   18  N5  UNL     1      27.559   6.556  48.708  1.00  0.00     0.083 N 
HETATM   19  C17 UNL     1      28.013   7.645  47.868  1.00  0.00     0.309 C 
HETATM   20  C18 UNL     1      28.305   5.390  48.343  1.00  0.00     0.309 C 
ENDBRANCH  17  18
ENDBRANCH  16  17
ENDBRANCH  12  15
ENDBRANCH  10  11
BRANCH   1  21
HETATM   21  O1  UNL     1      20.864   2.687  50.673  1.00  0.00    -0.354 OA
HETATM   22  C1  UNL     1      20.408   3.909  51.225  1.00  0.00     0.210 C 
ENDBRANCH   1  21
BRANCH   7  23
HETATM   23  N3  UNL     1      25.628  -0.634  53.483  1.00  0.00    -0.370 N 
HETATM   24  H6  UNL     1      25.998  -1.155  52.664  1.00  0.00     0.161 HD
BRANCH  23  25
HETATM   25  C7  UNL     1      26.548   0.008  54.395  1.00  0.00     0.150 C 
BRANCH  25  26
HETATM   26  C8  UNL     1      27.925  -0.193  53.873  1.00  0.00     0.022 C 
HETATM   27  C9  UNL     1      28.845  -1.044  53.430  1.00  0.00     0.186 C 
HETATM   28  F1  UNL     1      30.115  -0.983  52.981  1.00  0.00    -0.220 F 
ENDBRANCH  25  26
ENDBRANCH  23  25
ENDBRANCH   7  23
TORSDOF 8
ENDMDL
MODEL 7
REMARK VINA RESULT:      -6.8      3.363      4.006
REMARK  8 active torsions:
REMARK  status: ('A' for Active; 'I' for Inactive)
REMARK    1  A    between atoms: O1_2  and  C2_3 
REMARK    2  A    between atoms: C6_9  and  N3_10 
REMARK    3  A    between atoms: N3_10  and  C7_11 
REMARK    4  A    between atoms: C7_11  and  C8_12 
REMARK    5  A    between atoms: C12_17  and  N4_18 
REMARK       I    between atoms: N4_18  and  C13_19 
REMARK    6  A    between atoms: C13_19  and  C14_21 
REMARK    7  A    between atoms: C15_22  and  C16_23 
REMARK    8  A    between atoms: C16_23  and  N5_24 
ROOT
HETATM    1  C2  UNL     1      21.582   0.838  52.273  1.00  0.00     0.097 A 
HETATM    2  C3  UNL     1      21.490   0.050  53.399  1.00  0.00     0.071 A 
HETATM    3  C4  UNL     1      22.626  -0.391  54.046  1.00  0.00     0.075 A 
HETATM    4  N1  UNL     1      22.514  -1.171  55.160  1.00  0.00    -0.241 NA
HETATM    5  C5  UNL     1      23.655  -1.589  55.773  1.00  0.00     0.235 A 
HETATM    6  N2  UNL     1      24.867  -1.247  55.303  1.00  0.00    -0.224 NA
HETATM    7  C6  UNL     1      25.068  -0.485  54.217  1.00  0.00     0.137 A 
HETATM    8  C10 UNL     1      23.899  -0.079  53.619  1.00  0.00     0.041 A 
HETATM    9  C11 UNL     1      23.950   0.710  52.491  1.00  0.00     0.050 A 
HETATM   10  C12 UNL     1      22.838   1.170  51.818  1.00  0.00     0.069 A 
ENDROOT
BRANCH  10  11
HETATM   11  N4  UNL     1      22.944   1.994  50.642  1.00  0.00    -0.321 N 
HETATM   12  C13 UNL     1      23.184   3.360  50.952  1.00  0.00     0.245 C 
HETATM   13  O2  UNL     1      23.285   3.758  52.142  1.00  0.00    -0.268 OA
HETATM   14  H12 UNL     1      22.854   1.619  49.678  1.00  0.00     0.169 HD
BRANCH  12  15
HETATM   15  C14 UNL     1      23.318   4.329  49.882  1.00  0.00     0.072 C 
HETATM   16  C15 UNL     1      22.645   4.239  48.750  1.00  0.00     0.008 C 
BRANCH  16  17
HETATM   17  C16 UNL     1      22.766   5.230  47.626  1.00  0.00     0.299 C 
BRANCH  17  18
HETATM   18  N5  UNL     1      22.141   4.774  46.413  1.00  0.00     0.083 N 
HETATM   19  C17 UNL     1      21.301   5.836  45.898  1.00  0.00     0.309 C 
HETATM   20  C18 UNL     1      21.325   3.606  46.550  1.00  0.00     0.309 C 
ENDBRANCH  17  18
ENDBRANCH  16  17
ENDBRANCH  12  15
ENDBRANCH  10  11
BRANCH   1  21
HETATM   21  O1  UNL     1      20.467   1.305  51.589  1.00  0.00    -0.354 OA
HETATM   22  C1  UNL     1      19.750   2.378  52.171  1.00  0.00     0.210 C 
ENDBRANCH   1  21
BRANCH   7  23
HETATM   23  N3  UNL     1      26.369  -0.146  53.752  1.00  0.00    -0.370 N 
HETATM   24  H6  UNL     1      26.899   0.695  54.053  1.00  0.00     0.161 HD
BRANCH  23  25
HETATM   25  C7  UNL     1      26.961  -1.059  52.798  1.00  0.00     0.150 C 
BRANCH  25  26
HETATM   26  C8  UNL     1      28.384  -1.257  53.178  1.00  0.00     0.022 C 
HETATM   27  C9  UNL     1      29.471  -0.760  53.761  1.00  0.00     0.186 C 
HETATM   28  F1  UNL     1      30.737  -1.159  53.998  1.00  0.00    -0.220 F 
ENDBRANCH  25  26
ENDBRANCH  23  25
ENDBRANCH   7  23
TORSDOF 8
ENDMDL
MODEL 8
REMARK VINA RESULT:      -6.6      4.379      7.801
REMARK  8 active torsions:
REMARK  status: ('A' for Active; 'I' for Inactive)
REMARK    1  A    between atoms: O1_2  and  C2_3 
REMARK    2  A    between atoms: C6_9  and  N3_10 
REMARK    3  A    between atoms: N3_10  and  C7_11 
REMARK    4  A    between atoms: C7_11  and  C8_12 
REMARK    5  A    between atoms: C12_17  and  N4_18 
REMARK       I    between atoms: N4_18  and  C13_19 
REMARK    6  A    between atoms: C13_19  and  C14_21 
REMARK    7  A    between atoms: C15_22  and  C16_23 
REMARK    8  A    between atoms: C16_23  and  N5_24 
ROOT
HETATM    1  C2  UNL     1      22.871  -0.025  53.946  1.00  0.00     0.097 A 
HETATM    2  C3  UNL     1      24.161  -0.447  54.177  1.00  0.00     0.071 A 
HETATM    3  C4  UNL     1      25.228   0.181  53.567  1.00  0.00     0.075 A 
HETATM    4  N1  UNL     1      26.500  -0.251  53.808  1.00  0.00    -0.241 NA
HETATM    5  C5  UNL     1      27.528   0.391  53.190  1.00  0.00     0.235 A 
HETATM    6  N2  UNL     1      27.309   1.426  52.362  1.00  0.00    -0.224 NA
HETATM    7  C6  UNL     1      26.094   1.916  52.069  1.00  0.00     0.137 A 
HETATM    8  C10 UNL     1      25.076   1.247  52.707  1.00  0.00     0.041 A 
HETATM    9  C11 UNL     1      23.772   1.640  52.502  1.00  0.00     0.050 A 
HETATM   10  C12 UNL     1      22.681   1.038  53.093  1.00  0.00     0.069 A 
ENDROOT
BRANCH  10  11
HETATM   11  N4  UNL     1      21.335   1.485  52.846  1.00  0.00    -0.321 N 
HETATM   12  C13 UNL     1      20.758   0.875  51.699  1.00  0.00     0.245 C 
HETATM   13  O2  UNL     1      21.396   0.041  51.005  1.00  0.00    -0.268 OA
HETATM   14  H12 UNL     1      20.849   2.178  53.448  1.00  0.00     0.169 HD
BRANCH  12  15
HETATM   15  C14 UNL     1      19.405   1.214  51.306  1.00  0.00     0.072 C 
HETATM   16  C15 UNL     1      18.462   0.305  51.138  1.00  0.00     0.008 C 
BRANCH  16  17
HETATM   17  C16 UNL     1      17.051   0.631  50.732  1.00  0.00     0.299 C 
BRANCH  17  18
HETATM   18  N5  UNL     1      16.308   1.283  51.777  1.00  0.00     0.083 N 
HETATM   19  C17 UNL     1      15.361   0.337  52.330  1.00  0.00     0.309 C 
HETATM   20  C18 UNL     1      15.572   2.441  51.369  1.00  0.00     0.309 C 
ENDBRANCH  17  18
ENDBRANCH  16  17
ENDBRANCH  12  15
ENDBRANCH  10  11
BRANCH   1  21
HETATM   21  O1  UNL     1      21.767  -0.626  54.537  1.00  0.00    -0.354 OA
HETATM   22  C1  UNL     1      21.491  -1.969  54.182  1.00  0.00     0.210 C 
ENDBRANCH   1  21
BRANCH   7  23
HETATM   23  N3  UNL     1      25.906   3.015  51.185  1.00  0.00    -0.370 N 
HETATM   24  H6  UNL     1      25.400   3.887  51.434  1.00  0.00     0.161 HD
BRANCH  23  25
HETATM   25  C7  UNL     1      26.470   2.870  49.862  1.00  0.00     0.150 C 
BRANCH  25  26
HETATM   26  C8  UNL     1      26.728   4.231  49.324  1.00  0.00     0.022 C 
HETATM   27  C9  UNL     1      27.520   5.027  48.611  1.00  0.00     0.186 C 
HETATM   28  F1  UNL     1      27.544   6.322  48.236  1.00  0.00    -0.220 F 
ENDBRANCH  25  26
ENDBRANCH  23  25
ENDBRANCH   7  23
TORSDOF 8
ENDMDL
MODEL 9
REMARK VINA RESULT:      -6.5      3.326      5.138
REMARK  8 active torsions:
REMARK  status: ('A' for Active; 'I' for Inactive)
REMARK    1  A    between atoms: O1_2  and  C2_3 
REMARK    2  A    between atoms: C6_9  and  N3_10 
REMARK    3  A    between atoms: N3_10  and  C7_11 
REMARK    4  A    between atoms: C7_11  and  C8_12 
REMARK    5  A    between atoms: C12_17  and  N4_18 
REMARK       I    between atoms: N4_18  and  C13_19 
REMARK    6  A    between atoms: C13_19  and  C14_21 
REMARK    7  A    between atoms: C15_22  and  C16_23 
REMARK    8  A    between atoms: C16_23  and  N5_24 
ROOT
HETATM    1  C2  UNL     1      25.767   1.779  52.382  1.00  0.00     0.097 A 
HETATM    2  C3  UNL     1      25.360   0.577  52.918  1.00  0.00     0.071 A 
HETATM    3  C4  UNL     1      24.023   0.324  53.147  1.00  0.00     0.075 A 
HETATM    4  N1  UNL     1      23.639  -0.873  53.679  1.00  0.00    -0.241 NA
HETATM    5  C5  UNL     1      22.312  -1.089  53.892  1.00  0.00     0.235 A 
HETATM    6  N2  UNL     1      21.394  -0.155  53.589  1.00  0.00    -0.224 NA
HETATM    7  C6  UNL     1      21.683   1.046  53.064  1.00  0.00     0.137 A 
HETATM    8  C10 UNL     1      23.029   1.235  52.861  1.00  0.00     0.041 A 
HETATM    9  C11 UNL     1      23.475   2.424  52.326  1.00  0.00     0.050 A 
HETATM   10  C12 UNL     1      24.801   2.713  52.083  1.00  0.00     0.069 A 
ENDROOT
BRANCH  10  11
HETATM   11  N4  UNL     1      25.218   3.972  51.522  1.00  0.00    -0.321 N 
HETATM   12  C13 UNL     1      25.051   4.023  50.111  1.00  0.00     0.245 C 
HETATM   13  O2  UNL     1      24.586   3.047  49.466  1.00  0.00    -0.268 OA
HETATM   14  H12 UNL     1      25.596   4.750  52.096  1.00  0.00     0.169 HD
BRANCH  12  15
HETATM   15  C14 UNL     1      25.422   5.221  49.385  1.00  0.00     0.072 C 
HETATM   16  C15 UNL     1      26.649   5.439  48.947  1.00  0.00     0.008 C 
BRANCH  16  17
HETATM   17  C16 UNL     1      27.059   6.673  48.192  1.00  0.00     0.299 C 
BRANCH  17  18
HETATM   18  N5  UNL     1      28.398   7.097  48.504  1.00  0.00     0.083 N 
HETATM   19  C17 UNL     1      28.487   8.530  48.307  1.00  0.00     0.309 C 
HETATM   20  C18 UNL     1      29.428   6.488  47.719  1.00  0.00     0.309 C 
ENDBRANCH  17  18
ENDBRANCH  16  17
ENDBRANCH  12  15
ENDBRANCH  10  11
BRANCH   1  21
HETATM   21  O1  UNL     1      27.100   2.078  52.135  1.00  0.00    -0.354 OA
HETATM   22  C1  UNL     1      27.957   2.198  53.255  1.00  0.00     0.210 C 
ENDBRANCH   1  21
BRANCH   7  23
HETATM   23  N3  UNL     1      20.679   2.007  52.758  1.00  0.00    -0.370 N 
HETATM   24  H6  UNL     1      20.327   2.720  53.426  1.00  0.00     0.161 HD
BRANCH  23  25
HETATM   25  C7  UNL     1      20.139   1.956  51.417  1.00  0.00     0.150 C 
BRANCH  25  26
HETATM   26  C8  UNL     1      18.944   1.073  51.440  1.00  0.00     0.022 C 
HETATM   27  C9  UNL     1      18.463  -0.166  51.470  1.00  0.00     0.186 C 
HETATM   28  F1  UNL     1      17.251  -0.758  51.485  1.00  0.00    -0.220 F 
ENDBRANCH  25  26
ENDBRANCH  23  25
ENDBRANCH   7  23
TORSDOF 8
ENDMDL
