MODEL 1
REMARK VINA RESULT:      -7.9      0.000      0.000
REMARK  5 active torsions:
REMARK  status: ('A' for Active; 'I' for Inactive)
REMARK    1  A    between atoms: N1_1  and  C1_2 
REMARK    2  A    between atoms: N2_5  and  C4_6 
REMARK    3  A    between atoms: C4_6  and  C5_7 
REMARK    4  A    between atoms: N5_13  and  C9_14 
REMARK    5  A    between atoms: C16_22  and  N6_23 
ROOT
HETATM    1  C5  UNL     1      24.224   1.739  51.584  1.00  0.00    -0.009 C 
HETATM    2  C6  UNL     1      22.946   2.203  51.474  1.00  0.00     0.063 C 
HETATM    3  C7  UNL     1      22.924   2.800  50.053  1.00  0.00     0.333 C 
HETATM    4  N3  UNL     1      23.807   3.856  50.686  1.00  0.00     0.112 N 
HETATM    5  C8  UNL     1      23.153   4.193  51.939  1.00  0.00     0.384 C 
HETATM    6  N4  UNL     1      21.762   3.764  52.133  1.00  0.00    -0.205 NA
HETATM    7  N5  UNL     1      21.841   2.338  52.353  1.00  0.00    -0.278 N 
HETATM    8  C15 UNL     1      24.939   2.891  50.881  1.00  0.00     0.312 C 
HETATM    9  H14 UNL     1      21.185   4.024  51.353  1.00  0.00     0.149 HD
ENDROOT
BRANCH   1  10
HETATM   10  C4  UNL     1      24.543   0.464  52.298  1.00  0.00     0.157 C 
BRANCH  10  11
HETATM   11  N2  UNL     1      25.893   0.610  52.772  1.00  0.00    -0.381 N 
HETATM   12  C3  UNL     1      26.848  -0.222  52.188  1.00  0.00     0.121 C 
HETATM   13  C2  UNL     1      27.923  -0.805  53.012  1.00  0.00     0.055 C 
HETATM   14  C1  UNL     1      28.134  -0.182  54.364  1.00  0.00     0.223 C 
HETATM   15  C17 UNL     1      26.841   0.265  55.000  1.00  0.00     0.092 C 
HETATM   16  C16 UNL     1      26.039   1.109  54.067  1.00  0.00     0.316 C 
BRANCH  14  17
HETATM   17  N1  UNL     1      29.131   0.867  54.314  1.00  0.00     0.083 N 
HETATM   18  H1  UNL     1      28.790   1.782  54.003  1.00  0.00     0.313 HD
HETATM   19  H2  UNL     1      29.568   0.999  55.254  1.00  0.00     0.313 HD
ENDBRANCH  14  17
BRANCH  16  20
HETATM   20  N6  UNL     1      26.503   2.497  54.000  1.00  0.00     0.101 N 
HETATM   21  H22 UNL     1      25.888   3.147  54.523  1.00  0.00     0.315 HD
HETATM   22  H23 UNL     1      27.496   2.615  54.232  1.00  0.00     0.315 HD
ENDBRANCH  16  20
ENDBRANCH  10  11
ENDBRANCH   1  10
BRANCH   7  23
HETATM   23  C9  UNL     1      21.421   1.151  52.989  1.00  0.00     0.054 A 
HETATM   24  C10 UNL     1      22.035   0.479  54.024  1.00  0.00     0.031 A 
HETATM   25  C11 UNL     1      21.381  -0.653  54.408  1.00  0.00     0.005 A 
HETATM   26  C12 UNL     1      20.224  -1.102  53.839  1.00  0.00     0.042 A 
HETATM   27  C13 UNL     1      19.619  -0.438  52.819  1.00  0.00     0.118 A 
HETATM   28  F1  UNL     1      18.482  -0.969  52.333  1.00  0.00    -0.206 F 
HETATM   29  C14 UNL     1      20.233   0.738  52.366  1.00  0.00     0.073 A 
ENDBRANCH   7  23
TORSDOF 5
ENDMDL
MODEL 2
REMARK VINA RESULT:      -7.9      1.788      4.878
REMARK  5 active torsions:
REMARK  status: ('A' for Active; 'I' for Inactive)
REMARK    1  A    between atoms: N1_1  and  C1_2 
REMARK    2  A    between atoms: N2_5  and  C4_6 
REMARK    3  A    between atoms: C4_6  and  C5_7 
REMARK    4  A    between atoms: N5_13  and  C9_14 
REMARK    5  A    between atoms: C16_22  and  N6_23 
ROOT
HETATM    1  C5  UNL     1      25.566   1.391  52.130  1.00  0.00    -0.009 C 
HETATM    2  C6  UNL     1      25.298   0.573  53.189  1.00  0.00     0.063 C 
HETATM    3  C7  UNL     1      26.350   1.010  54.228  1.00  0.00     0.333 C 
HETATM    4  N3  UNL     1      27.304   0.323  53.271  1.00  0.00     0.112 N 
HETATM    5  C8  UNL     1      26.665  -0.939  52.942  1.00  0.00     0.384 C 
HETATM    6  N4  UNL     1      25.548  -1.391  53.781  1.00  0.00    -0.205 NA
HETATM    7  N5  UNL     1      24.442  -0.535  53.419  1.00  0.00    -0.278 N 
HETATM    8  C15 UNL     1      27.091   1.360  52.208  1.00  0.00     0.312 C 
HETATM    9  H14 UNL     1      25.785  -1.360  54.756  1.00  0.00     0.149 HD
ENDROOT
BRANCH   1  10
HETATM   10  C4  UNL     1      24.479   1.962  51.277  1.00  0.00     0.157 C 
BRANCH  10  11
HETATM   11  N2  UNL     1      24.507   3.381  51.506  1.00  0.00    -0.381 N 
HETATM   12  C3  UNL     1      23.814   3.842  52.625  1.00  0.00     0.121 C 
HETATM   13  C2  UNL     1      23.057   5.106  52.556  1.00  0.00     0.055 C 
HETATM   14  C1  UNL     1      23.371   6.004  51.393  1.00  0.00     0.223 C 
HETATM   15  C17 UNL     1      23.681   5.230  50.135  1.00  0.00     0.092 C 
HETATM   16  C16 UNL     1      24.713   4.182  50.382  1.00  0.00     0.316 C 
BRANCH  14  17
HETATM   17  N1  UNL     1      24.399   6.968  51.730  1.00  0.00     0.083 N 
HETATM   18  H1  UNL     1      25.260   6.900  51.180  1.00  0.00     0.313 HD
HETATM   19  H2  UNL     1      24.033   7.941  51.620  1.00  0.00     0.313 HD
ENDBRANCH  14  17
BRANCH  16  20
HETATM   20  N6  UNL     1      26.080   4.711  50.410  1.00  0.00     0.101 N 
HETATM   21  H22 UNL     1      26.274   5.348  49.616  1.00  0.00     0.315 HD
HETATM   22  H23 UNL     1      26.352   5.108  51.317  1.00  0.00     0.315 HD
ENDBRANCH  16  20
ENDBRANCH  10  11
ENDBRANCH   1  10
BRANCH   7  23
HETATM   23  C9  UNL     1      23.073  -0.307  53.168  1.00  0.00     0.054 A 
HETATM   24  C10 UNL     1      22.403  -0.398  51.966  1.00  0.00     0.031 A 
HETATM   25  C11 UNL     1      21.076  -0.103  52.054  1.00  0.00     0.005 A 
HETATM   26  C12 UNL     1      20.443   0.254  53.210  1.00  0.00     0.042 A 
HETATM   27  C13 UNL     1      21.105   0.343  54.394  1.00  0.00     0.118 A 
HETATM   28  F1  UNL     1      20.383   0.702  55.473  1.00  0.00    -0.206 F 
HETATM   29  C14 UNL     1      22.476   0.053  54.386  1.00  0.00     0.073 A 
ENDBRANCH   7  23
TORSDOF 5
ENDMDL
MODEL 3
REMARK VINA RESULT:      -7.9      2.454      5.289
REMARK  5 active torsions:
REMARK  status: ('A' for Active; 'I' for Inactive)
REMARK    1  A    between atoms: N1_1  and  C1_2 
REMARK    2  A    between atoms: N2_5  and  C4_6 
REMARK    3  A    between atoms: C4_6  and  C5_7 
REMARK    4  A    between atoms: N5_13  and  C9_14 
REMARK    5  A    between atoms: C16_22  and  N6_23 
ROOT
HETATM    1  C5  UNL     1      23.200   2.750  50.809  1.00  0.00    -0.009 C 
HETATM    2  C6  UNL     1      24.277   3.393  51.344  1.00  0.00     0.063 C 
HETATM    3  C7  UNL     1      23.662   4.710  51.859  1.00  0.00     0.333 C 
HETATM    4  N3  UNL     1      23.556   5.019  50.379  1.00  0.00     0.112 N 
HETATM    5  C8  UNL     1      24.847   4.650  49.823  1.00  0.00     0.384 C 
HETATM    6  N4  UNL     1      25.963   4.429  50.750  1.00  0.00    -0.205 NA
HETATM    7  N5  UNL     1      25.676   3.162  51.383  1.00  0.00    -0.278 N 
HETATM    8  C15 UNL     1      22.522   3.955  50.161  1.00  0.00     0.312 C 
HETATM    9  H14 UNL     1      26.063   5.193  51.395  1.00  0.00     0.149 HD
ENDROOT
BRANCH   1  10
HETATM   10  C4  UNL     1      23.024   1.269  50.926  1.00  0.00     0.157 C 
BRANCH  10  11
HETATM   11  N2  UNL     1      22.344   1.054  52.175  1.00  0.00    -0.381 N 
HETATM   12  C3  UNL     1      23.008   0.266  53.114  1.00  0.00     0.121 C 
HETATM   13  C2  UNL     1      22.251  -0.689  53.944  1.00  0.00     0.055 C 
HETATM   14  C1  UNL     1      20.760  -0.501  53.979  1.00  0.00     0.223 C 
HETATM   15  C17 UNL     1      20.207  -0.033  52.655  1.00  0.00     0.092 C 
HETATM   16  C16 UNL     1      20.953   1.153  52.142  1.00  0.00     0.316 C 
BRANCH  14  17
HETATM   17  N1  UNL     1      20.359   0.342  55.087  1.00  0.00     0.083 N 
HETATM   18  H1  UNL     1      19.683  -0.075  55.733  1.00  0.00     0.313 HD
HETATM   19  H2  UNL     1      21.195   0.626  55.648  1.00  0.00     0.313 HD
ENDBRANCH  14  17
BRANCH  16  20
HETATM   20  N6  UNL     1      20.543   2.410  52.773  1.00  0.00     0.101 N 
HETATM   21  H22 UNL     1      21.331   3.075  52.882  1.00  0.00     0.315 HD
HETATM   22  H23 UNL     1      19.715   2.840  52.344  1.00  0.00     0.315 HD
ENDBRANCH  16  20
ENDBRANCH  10  11
ENDBRANCH   1  10
BRANCH   7  23
HETATM   23  C9  UNL     1      26.072   1.920  51.922  1.00  0.00     0.054 A 
HETATM   24  C10 UNL     1      26.423   0.773  51.242  1.00  0.00     0.031 A 
HETATM   25  C11 UNL     1      26.746  -0.270  52.057  1.00  0.00     0.005 A 
HETATM   26  C12 UNL     1      26.733  -0.212  53.421  1.00  0.00     0.042 A 
HETATM   27  C13 UNL     1      26.386   0.920  54.090  1.00  0.00     0.118 A 
HETATM   28  F1  UNL     1      26.409   0.866  55.435  1.00  0.00    -0.206 F 
HETATM   29  C14 UNL     1      26.040   2.038  53.320  1.00  0.00     0.073 A 
ENDBRANCH   7  23
TORSDOF 5
ENDMDL
MODEL 4
REMARK VINA RESULT:      -7.9      2.963      6.058
REMARK  5 active torsions:
REMARK  status: ('A' for Active; 'I' for Inactive)
REMARK    1  A    between atoms: N1_1  and  C1_2 
REMARK    2  A    between atoms: N2_5  and  C4_6 
REMARK    3  A    between atoms: C4_6  and  C5_7 
REMARK    4  A    between atoms: N5_13  and  C9_14 
REMARK    5  A    between atoms: C16_22  and  N6_23 
ROOT
HETATM    1  C5  UNL     1      23.593   1.623  52.584  1.00  0.00    -0.009 C 
HETATM    2  C6  UNL     1      24.680   2.447  52.554  1.00  0.00     0.063 C 
HETATM    3  C7  UNL     1      24.123   3.763  53.132  1.00  0.00     0.333 C 
HETATM    4  N3  UNL     1      23.394   3.818  51.805  1.00  0.00     0.112 N 
HETATM    5  C8  UNL     1      24.400   3.493  50.808  1.00  0.00     0.384 C 
HETATM    6  N4  UNL     1      25.812   3.534  51.208  1.00  0.00    -0.205 NA
HETATM    7  N5  UNL     1      25.998   2.364  52.035  1.00  0.00    -0.278 N 
HETATM    8  C15 UNL     1      22.536   2.637  52.150  1.00  0.00     0.312 C 
HETATM    9  H14 UNL     1      26.038   4.398  51.669  1.00  0.00     0.149 HD
ENDROOT
BRANCH   1  10
HETATM   10  C4  UNL     1      23.711   0.171  52.920  1.00  0.00     0.157 C 
BRANCH  10  11
HETATM   11  N2  UNL     1      22.362  -0.311  53.043  1.00  0.00    -0.381 N 
HETATM   12  C3  UNL     1      21.574  -0.245  51.895  1.00  0.00     0.121 C 
HETATM   13  C2  UNL     1      20.149   0.122  51.998  1.00  0.00     0.055 C 
HETATM   14  C1  UNL     1      19.544   0.055  53.372  1.00  0.00     0.223 C 
HETATM   15  C17 UNL     1      20.518   0.462  54.451  1.00  0.00     0.092 C 
HETATM   16  C16 UNL     1      21.809  -0.274  54.324  1.00  0.00     0.316 C 
BRANCH  14  17
HETATM   17  N1  UNL     1      18.936  -1.237  53.620  1.00  0.00     0.083 N 
HETATM   18  H1  UNL     1      18.026  -1.210  54.091  1.00  0.00     0.313 HD
HETATM   19  H2  UNL     1      18.807  -1.756  52.722  1.00  0.00     0.313 HD
ENDBRANCH  14  17
BRANCH  16  20
HETATM   20  N6  UNL     1      21.755  -1.634  54.867  1.00  0.00     0.101 N 
HETATM   21  H22 UNL     1      22.429  -2.272  54.405  1.00  0.00     0.315 HD
HETATM   22  H23 UNL     1      21.806  -1.674  55.892  1.00  0.00     0.315 HD
ENDBRANCH  16  20
ENDBRANCH  10  11
ENDBRANCH   1  10
BRANCH   7  23
HETATM   23  C9  UNL     1      26.762   1.269  52.491  1.00  0.00     0.054 A 
HETATM   24  C10 UNL     1      26.780  -0.019  51.998  1.00  0.00     0.031 A 
HETATM   25  C11 UNL     1      27.622  -0.852  52.670  1.00  0.00     0.005 A 
HETATM   26  C12 UNL     1      28.389  -0.474  53.735  1.00  0.00     0.042 A 
HETATM   27  C13 UNL     1      28.371   0.796  54.219  1.00  0.00     0.118 A 
HETATM   28  F1  UNL     1      29.167   1.060  55.272  1.00  0.00    -0.206 F 
HETATM   29  C14 UNL     1      27.527   1.715  53.580  1.00  0.00     0.073 A 
ENDBRANCH   7  23
TORSDOF 5
ENDMDL
MODEL 5
REMARK VINA RESULT:      -7.8      2.770      5.788
REMARK  5 active torsions:
REMARK  status: ('A' for Active; 'I' for Inactive)
REMARK    1  A    between atoms: N1_1  and  C1_2 
REMARK    2  A    between atoms: N2_5  and  C4_6 
REMARK    3  A    between atoms: C4_6  and  C5_7 
REMARK    4  A    between atoms: N5_13  and  C9_14 
REMARK    5  A    between atoms: C16_22  and  N6_23 
ROOT
HETATM    1  C5  UNL     1      22.911   2.275  52.627  1.00  0.00    -0.009 C 
HETATM    2  C6  UNL     1      23.063   0.943  52.372  1.00  0.00     0.063 C 
HETATM    3  C7  UNL     1      21.970   0.675  51.317  1.00  0.00     0.333 C 
HETATM    4  N3  UNL     1      21.044   0.874  52.500  1.00  0.00     0.112 N 
HETATM    5  C8  UNL     1      21.632   0.092  53.575  1.00  0.00     0.384 C 
HETATM    6  N4  UNL     1      22.665  -0.893  53.231  1.00  0.00    -0.205 NA
HETATM    7  N5  UNL     1      23.838  -0.110  52.921  1.00  0.00    -0.278 N 
HETATM    8  C15 UNL     1      21.385   2.330  52.609  1.00  0.00     0.312 C 
HETATM    9  H14 UNL     1      22.366  -1.493  52.483  1.00  0.00     0.149 HD
ENDROOT
BRANCH   1  10
HETATM   10  C4  UNL     1      24.082   3.171  52.875  1.00  0.00     0.157 C 
BRANCH  10  11
HETATM   11  N2  UNL     1      24.188   4.007  51.711  1.00  0.00    -0.381 N 
HETATM   12  C3  UNL     1      23.195   4.972  51.549  1.00  0.00     0.121 C 
HETATM   13  C2  UNL     1      22.664   5.268  50.205  1.00  0.00     0.055 C 
HETATM   14  C1  UNL     1      23.478   4.766  49.045  1.00  0.00     0.223 C 
HETATM   15  C17 UNL     1      24.132   3.437  49.333  1.00  0.00     0.092 C 
HETATM   16  C16 UNL     1      24.877   3.466  50.625  1.00  0.00     0.316 C 
BRANCH  14  17
HETATM   17  N1  UNL     1      24.417   5.769  48.585  1.00  0.00     0.083 N 
HETATM   18  H1  UNL     1      24.903   6.286  49.323  1.00  0.00     0.313 HD
HETATM   19  H2  UNL     1      25.147   5.332  47.977  1.00  0.00     0.313 HD
ENDBRANCH  14  17
BRANCH  16  20
HETATM   20  N6  UNL     1      26.192   4.105  50.520  1.00  0.00     0.101 N 
HETATM   21  H22 UNL     1      26.166   5.109  50.778  1.00  0.00     0.315 HD
HETATM   22  H23 UNL     1      26.943   3.591  50.994  1.00  0.00     0.315 HD
ENDBRANCH  16  20
ENDBRANCH  10  11
ENDBRANCH   1  10
BRANCH   7  23
HETATM   23  C9  UNL     1      25.232   0.109  52.942  1.00  0.00     0.054 A 
HETATM   24  C10 UNL     1      26.060   0.411  51.882  1.00  0.00     0.031 A 
HETATM   25  C11 UNL     1      27.369   0.550  52.231  1.00  0.00     0.005 A 
HETATM   26  C12 UNL     1      27.845   0.409  53.503  1.00  0.00     0.042 A 
HETATM   27  C13 UNL     1      27.027   0.110  54.547  1.00  0.00     0.118 A 
HETATM   28  F1  UNL     1      27.600  -0.005  55.760  1.00  0.00    -0.206 F 
HETATM   29  C14 UNL     1      25.662  -0.048  54.268  1.00  0.00     0.073 A 
ENDBRANCH   7  23
TORSDOF 5
ENDMDL
MODEL 6
REMARK VINA RESULT:      -7.6      2.785      4.826
REMARK  5 active torsions:
REMARK  status: ('A' for Active; 'I' for Inactive)
REMARK    1  A    between atoms: N1_1  and  C1_2 
REMARK    2  A    between atoms: N2_5  and  C4_6 
REMARK    3  A    between atoms: C4_6  and  C5_7 
REMARK    4  A    between atoms: N5_13  and  C9_14 
REMARK    5  A    between atoms: C16_22  and  N6_23 
ROOT
HETATM    1  C5  UNL     1      23.953   2.183  52.616  1.00  0.00    -0.009 C 
HETATM    2  C6  UNL     1      23.095   2.699  51.688  1.00  0.00     0.063 C 
HETATM    3  C7  UNL     1      21.726   2.567  52.385  1.00  0.00     0.333 C 
HETATM    4  N3  UNL     1      21.946   1.091  52.122  1.00  0.00     0.112 N 
HETATM    5  C8  UNL     1      22.395   1.016  50.742  1.00  0.00     0.384 C 
HETATM    6  N4  UNL     1      22.214   2.196  49.889  1.00  0.00    -0.205 NA
HETATM    7  N5  UNL     1      23.206   3.142  50.345  1.00  0.00    -0.278 N 
HETATM    8  C15 UNL     1      23.087   1.019  53.093  1.00  0.00     0.312 C 
HETATM    9  H14 UNL     1      21.271   2.541  49.934  1.00  0.00     0.149 HD
ENDROOT
BRANCH   1  10
HETATM   10  C4  UNL     1      25.313   2.761  52.842  1.00  0.00     0.157 C 
BRANCH  10  11
HETATM   11  N2  UNL     1      26.208   1.638  52.914  1.00  0.00    -0.381 N 
HETATM   12  C3  UNL     1      26.255   0.811  51.792  1.00  0.00     0.121 C 
HETATM   13  C2  UNL     1      26.371  -0.650  51.955  1.00  0.00     0.055 C 
HETATM   14  C1  UNL     1      26.791  -1.134  53.314  1.00  0.00     0.223 C 
HETATM   15  C17 UNL     1      26.231  -0.283  54.428  1.00  0.00     0.092 C 
HETATM   16  C16 UNL     1      26.501   1.165  54.194  1.00  0.00     0.316 C 
BRANCH  14  17
HETATM   17  N1  UNL     1      28.229  -1.297  53.397  1.00  0.00     0.083 N 
HETATM   18  H1  UNL     1      28.631  -1.168  54.330  1.00  0.00     0.313 HD
HETATM   19  H2  UNL     1      28.506  -2.249  53.066  1.00  0.00     0.313 HD
ENDBRANCH  14  17
BRANCH  16  20
HETATM   20  N6  UNL     1      27.864   1.565  54.555  1.00  0.00     0.101 N 
HETATM   21  H22 UNL     1      28.017   2.585  54.459  1.00  0.00     0.315 HD
HETATM   22  H23 UNL     1      28.178   1.198  55.461  1.00  0.00     0.315 HD
ENDBRANCH  16  20
ENDBRANCH  10  11
ENDBRANCH   1  10
BRANCH   7  23
HETATM   23  C9  UNL     1      24.162   4.153  50.115  1.00  0.00     0.054 A 
HETATM   24  C10 UNL     1      25.357   4.053  49.435  1.00  0.00     0.031 A 
HETATM   25  C11 UNL     1      26.066   5.216  49.399  1.00  0.00     0.005 A 
HETATM   26  C12 UNL     1      25.656   6.385  49.973  1.00  0.00     0.042 A 
HETATM   27  C13 UNL     1      24.477   6.482  50.643  1.00  0.00     0.118 A 
HETATM   28  F1  UNL     1      24.170   7.682  51.170  1.00  0.00    -0.206 F 
HETATM   29  C14 UNL     1      23.689   5.326  50.725  1.00  0.00     0.073 A 
ENDBRANCH   7  23
TORSDOF 5
ENDMDL
MODEL 7
REMARK VINA RESULT:      -7.5      3.298      5.697
REMARK  5 active torsions:
REMARK  status: ('A' for Active; 'I' for Inactive)
REMARK    1  A    between atoms: N1_1  and  C1_2 
REMARK    2  A    between atoms: N2_5  and  C4_6 
REMARK    3  A    between atoms: C4_6  and  C5_7 
REMARK    4  A    between atoms: N5_13  and  C9_14 
REMARK    5  A    between atoms: C16_22  and  N6_23 
ROOT
HETATM    1  C5  UNL     1      23.760   3.305  49.658  1.00  0.00    -0.009 C 
HETATM    2  C6  UNL     1      23.081   2.413  50.435  1.00  0.00     0.063 C 
HETATM    3  C7  UNL     1      22.173   1.698  49.414  1.00  0.00     0.333 C 
HETATM    4  N3  UNL     1      21.452   3.031  49.405  1.00  0.00     0.112 N 
HETATM    5  C8  UNL     1      21.315   3.395  50.805  1.00  0.00     0.384 C 
HETATM    6  N4  UNL     1      21.545   2.357  51.817  1.00  0.00    -0.205 NA
HETATM    7  N5  UNL     1      22.976   2.158  51.827  1.00  0.00    -0.278 N 
HETATM    8  C15 UNL     1      22.607   3.728  48.749  1.00  0.00     0.312 C 
HETATM    9  H14 UNL     1      21.020   1.525  51.617  1.00  0.00     0.149 HD
ENDROOT
BRANCH   1  10
HETATM   10  C4  UNL     1      25.200   3.627  49.898  1.00  0.00     0.157 C 
BRANCH  10  11
HETATM   11  N2  UNL     1      25.248   5.041  50.153  1.00  0.00    -0.381 N 
HETATM   12  C3  UNL     1      24.373   5.524  51.126  1.00  0.00     0.121 C 
HETATM   13  C2  UNL     1      23.702   6.824  50.935  1.00  0.00     0.055 C 
HETATM   14  C1  UNL     1      24.275   7.716  49.869  1.00  0.00     0.223 C 
HETATM   15  C17 UNL     1      24.787   6.939  48.681  1.00  0.00     0.092 C 
HETATM   16  C16 UNL     1      25.703   5.840  49.104  1.00  0.00     0.316 C 
BRANCH  14  17
HETATM   17  N1  UNL     1      25.260   8.627  50.415  1.00  0.00     0.083 N 
HETATM   18  H1  UNL     1      24.988   9.099  51.282  1.00  0.00     0.313 HD
HETATM   19  H2  UNL     1      26.157   8.123  50.601  1.00  0.00     0.313 HD
ENDBRANCH  14  17
BRANCH  16  20
HETATM   20  N6  UNL     1      27.061   6.303  49.404  1.00  0.00     0.101 N 
HETATM   21  H22 UNL     1      27.286   6.243  50.414  1.00  0.00     0.315 HD
HETATM   22  H23 UNL     1      27.784   5.884  48.808  1.00  0.00     0.315 HD
ENDBRANCH  16  20
ENDBRANCH  10  11
ENDBRANCH   1  10
BRANCH   7  23
HETATM   23  C9  UNL     1      24.195   1.905  52.491  1.00  0.00     0.054 A 
HETATM   24  C10 UNL     1      24.854   2.712  53.394  1.00  0.00     0.031 A 
HETATM   25  C11 UNL     1      26.024   2.183  53.850  1.00  0.00     0.005 A 
HETATM   26  C12 UNL     1      26.520   0.970  53.467  1.00  0.00     0.042 A 
HETATM   27  C13 UNL     1      25.869   0.176  52.577  1.00  0.00     0.118 A 
HETATM   28  F1  UNL     1      26.447  -1.001  52.271  1.00  0.00    -0.206 F 
HETATM   29  C14 UNL     1      24.655   0.651  52.061  1.00  0.00     0.073 A 
ENDBRANCH   7  23
TORSDOF 5
ENDMDL
MODEL 8
REMARK VINA RESULT:      -7.3      2.390      4.441
REMARK  5 active torsions:
REMARK  status: ('A' for Active; 'I' for Inactive)
REMARK    1  A    between atoms: N1_1  and  C1_2 
REMARK    2  A    between atoms: N2_5  and  C4_6 
REMARK    3  A    between atoms: C4_6  and  C5_7 
REMARK    4  A    between atoms: N5_13  and  C9_14 
REMARK    5  A    between atoms: C16_22  and  N6_23 
ROOT
HETATM    1  C5  UNL     1      23.609   0.633  52.359  1.00  0.00    -0.009 C 
HETATM    2  C6  UNL     1      22.537   1.473  52.272  1.00  0.00     0.063 C 
HETATM    3  C7  UNL     1      21.847   1.282  53.638  1.00  0.00     0.333 C 
HETATM    4  N3  UNL     1      21.493  -0.073  53.057  1.00  0.00     0.112 N 
HETATM    5  C8  UNL     1      21.022   0.205  51.711  1.00  0.00     0.384 C 
HETATM    6  N4  UNL     1      20.683   1.592  51.367  1.00  0.00    -0.205 NA
HETATM    7  N5  UNL     1      21.955   2.267  51.251  1.00  0.00    -0.278 N 
HETATM    8  C15 UNL     1      22.922  -0.528  53.073  1.00  0.00     0.312 C 
HETATM    9  H14 UNL     1      20.067   1.999  52.048  1.00  0.00     0.149 HD
ENDROOT
BRANCH   1  10
HETATM   10  C4  UNL     1      24.940   0.988  51.777  1.00  0.00     0.157 C 
BRANCH  10  11
HETATM   11  N2  UNL     1      25.878   0.897  52.863  1.00  0.00    -0.381 N 
HETATM   12  C3  UNL     1      26.381   2.104  53.348  1.00  0.00     0.121 C 
HETATM   13  C2  UNL     1      27.796   2.204  53.752  1.00  0.00     0.055 C 
HETATM   14  C1  UNL     1      28.523   0.904  53.953  1.00  0.00     0.223 C 
HETATM   15  C17 UNL     1      28.081  -0.160  52.978  1.00  0.00     0.092 C 
HETATM   16  C16 UNL     1      26.595  -0.296  52.959  1.00  0.00     0.316 C 
BRANCH  14  17
HETATM   17  N1  UNL     1      28.455   0.467  55.333  1.00  0.00     0.083 N 
HETATM   18  H1  UNL     1      29.359   0.345  55.798  1.00  0.00     0.313 HD
HETATM   19  H2  UNL     1      27.900   1.146  55.902  1.00  0.00     0.313 HD
ENDBRANCH  14  17
BRANCH  16  20
HETATM   20  N6  UNL     1      26.073  -1.085  54.078  1.00  0.00     0.101 N 
HETATM   21  H22 UNL     1      26.407  -2.066  54.062  1.00  0.00     0.315 HD
HETATM   22  H23 UNL     1      26.193  -0.637  54.994  1.00  0.00     0.315 HD
ENDBRANCH  16  20
ENDBRANCH  10  11
ENDBRANCH   1  10
BRANCH   7  23
HETATM   23  C9  UNL     1      22.818   3.204  50.645  1.00  0.00     0.054 A 
HETATM   24  C10 UNL     1      23.384   3.149  49.389  1.00  0.00     0.031 A 
HETATM   25  C11 UNL     1      24.187   4.211  49.101  1.00  0.00     0.005 A 
HETATM   26  C12 UNL     1      24.425   5.248  49.958  1.00  0.00     0.042 A 
HETATM   27  C13 UNL     1      23.866   5.301  51.195  1.00  0.00     0.118 A 
HETATM   28  F1  UNL     1      24.168   6.370  51.957  1.00  0.00    -0.206 F 
HETATM   29  C14 UNL     1      23.025   4.242  51.566  1.00  0.00     0.073 A 
ENDBRANCH   7  23
TORSDOF 5
ENDMDL
MODEL 9
REMARK VINA RESULT:      -7.2     10.551     12.889
REMARK  5 active torsions:
REMARK  status: ('A' for Active; 'I' for Inactive)
REMARK    1  A    between atoms: N1_1  and  C1_2 
REMARK    2  A    between atoms: N2_5  and  C4_6 
REMARK    3  A    between atoms: C4_6  and  C5_7 
REMARK    4  A    between atoms: N5_13  and  C9_14 
REMARK    5  A    between atoms: C16_22  and  N6_23 
ROOT
HETATM    1  C5  UNL     1      32.114   7.920  46.722  1.00  0.00    -0.009 C 
HETATM    2  C6  UNL     1      31.528   7.119  47.658  1.00  0.00     0.063 C 
HETATM    3  C7  UNL     1      30.025   7.376  47.428  1.00  0.00     0.333 C 
HETATM    4  N3  UNL     1      30.355   8.725  48.033  1.00  0.00     0.112 N 
HETATM    5  C8  UNL     1      31.167   8.427  49.201  1.00  0.00     0.384 C 
HETATM    6  N4  UNL     1      31.189   7.045  49.695  1.00  0.00    -0.205 NA
HETATM    7  N5  UNL     1      31.988   6.318  48.735  1.00  0.00    -0.278 N 
HETATM    8  C15 UNL     1      31.188   9.127  46.852  1.00  0.00     0.312 C 
HETATM    9  H14 UNL     1      30.260   6.680  49.810  1.00  0.00     0.149 HD
ENDROOT
BRANCH   1  10
HETATM   10  C4  UNL     1      33.342   7.499  45.979  1.00  0.00     0.157 C 
BRANCH  10  11
HETATM   11  N2  UNL     1      32.880   7.004  44.710  1.00  0.00    -0.381 N 
HETATM   12  C3  UNL     1      32.973   5.627  44.512  1.00  0.00     0.121 C 
HETATM   13  C2  UNL     1      33.362   5.096  43.192  1.00  0.00     0.055 C 
HETATM   14  C1  UNL     1      33.289   6.059  42.041  1.00  0.00     0.223 C 
HETATM   15  C17 UNL     1      33.668   7.464  42.441  1.00  0.00     0.092 C 
HETATM   16  C16 UNL     1      32.912   7.909  43.648  1.00  0.00     0.316 C 
BRANCH  14  17
HETATM   17  N1  UNL     1      32.005   5.990  41.374  1.00  0.00     0.083 N 
HETATM   18  H1  UNL     1      32.019   6.205  40.372  1.00  0.00     0.313 HD
HETATM   19  H2  UNL     1      31.590   5.036  41.483  1.00  0.00     0.313 HD
ENDBRANCH  14  17
BRANCH  16  20
HETATM   20  N6  UNL     1      31.547   8.348  43.347  1.00  0.00     0.101 N 
HETATM   21  H22 UNL     1      30.829   7.732  43.771  1.00  0.00     0.315 HD
HETATM   22  H23 UNL     1      31.380   9.343  43.535  1.00  0.00     0.315 HD
ENDBRANCH  16  20
ENDBRANCH  10  11
ENDBRANCH   1  10
BRANCH   7  23
HETATM   23  C9  UNL     1      32.938   5.332  48.396  1.00  0.00     0.054 A 
HETATM   24  C10 UNL     1      34.303   5.368  48.583  1.00  0.00     0.031 A 
HETATM   25  C11 UNL     1      34.948   4.256  48.134  1.00  0.00     0.005 A 
HETATM   26  C12 UNL     1      34.326   3.190  47.549  1.00  0.00     0.042 A 
HETATM   27  C13 UNL     1      32.979   3.156  47.365  1.00  0.00     0.118 A 
HETATM   28  F1  UNL     1      32.470   2.056  46.779  1.00  0.00    -0.206 F 
HETATM   29  C14 UNL     1      32.244   4.266  47.802  1.00  0.00     0.073 A 
ENDBRANCH   7  23
TORSDOF 5
ENDMDL
