MODEL 1
REMARK VINA RESULT:      -9.4      0.000      0.000
REMARK  3 active torsions:
REMARK  status: ('A' for Active; 'I' for Inactive)
REMARK    1  A    between atoms: C10_12  and  C11_13 
REMARK       I    between atoms: C11_13  and  N3_15 
REMARK    2  A    between atoms: C12_16  and  N4_17 
REMARK    3  A    between atoms: C16_23  and  C17_24 
ROOT
HETATM    1  C1  UNL     1      24.316  -0.388  53.627  1.00  0.00     0.049 C 
HETATM    2  C2  UNL     1      24.595   0.662  52.642  1.00  0.00    -0.051 C 
HETATM    3  C3  UNL     1      23.377   1.208  52.566  1.00  0.00     0.018 C 
HETATM    4  C4  UNL     1      22.709   2.325  51.823  1.00  0.00    -0.011 C 
HETATM    5  C5  UNL     1      22.529   3.455  52.628  1.00  0.00     0.150 C 
HETATM    6  N1  UNL     1      22.901   4.814  52.213  1.00  0.00    -0.160 NA
HETATM    7  N2  UNL     1      23.655   4.998  51.129  1.00  0.00    -0.132 NA
HETATM    8  C6  UNL     1      23.991   3.945  50.194  1.00  0.00     0.155 C 
HETATM    9  C7  UNL     1      22.795   3.524  49.656  1.00  0.00     0.025 C 
HETATM   10  C8  UNL     1      21.816   3.873  48.663  1.00  0.00    -0.017 C 
HETATM   11  C9  UNL     1      22.304   4.874  47.680  1.00  0.00     0.051 C 
HETATM   12  C10 UNL     1      20.710   3.161  48.944  1.00  0.00     0.106 C 
HETATM   13  N5  UNL     1      20.927   2.363  50.103  1.00  0.00    -0.372 N 
HETATM   14  C13 UNL     1      22.331   2.251  50.372  1.00  0.00     0.154 C 
HETATM   15  N6  UNL     1      25.279   3.393  49.939  1.00  0.00    -0.369 N 
HETATM   16  C14 UNL     1      26.597   2.893  50.190  1.00  0.00     0.149 C 
HETATM   17  C15 UNL     1      26.597   1.719  51.172  1.00  0.00     0.005 C 
HETATM   18  C16 UNL     1      25.805   0.977  52.019  1.00  0.00    -0.022 C 
HETATM   19  H12 UNL     1      20.120   1.945  50.626  1.00  0.00     0.161 HD
HETATM   20  H14 UNL     1      24.892   3.628  49.003  1.00  0.00     0.161 HD
ENDROOT
BRANCH  12  21
HETATM   21  C11 UNL     1      19.552   3.339  48.045  1.00  0.00     0.294 C 
HETATM   22  O1  UNL     1      19.433   2.980  46.876  1.00  0.00    -0.264 OA
HETATM   23  N3  UNL     1      18.529   4.033  48.722  1.00  0.00    -0.209 NA
HETATM   24  C12 UNL     1      17.271   3.897  48.546  1.00  0.00     0.177 C 
BRANCH  24  25
HETATM   25  N4  UNL     1      17.102   4.903  49.573  1.00  0.00    -0.297 NA
HETATM   26  H10 UNL     1      17.332   5.766  50.143  1.00  0.00     0.124 HD
HETATM   27  H11 UNL     1      17.249   5.743  50.183  1.00  0.00     0.124 HD
ENDBRANCH  24  25
ENDBRANCH  12  21
BRANCH  18  28
HETATM   28  C17 UNL     1      26.811  -0.097  52.328  1.00  0.00    -0.023 A 
HETATM   29  C18 UNL     1      26.769  -1.470  52.251  1.00  0.00     0.012 A 
HETATM   30  C19 UNL     1      27.635  -2.440  52.708  1.00  0.00     0.004 A 
HETATM   31  C20 UNL     1      28.713  -1.934  53.339  1.00  0.00     0.042 A 
HETATM   32  C21 UNL     1      28.965  -0.616  53.522  1.00  0.00     0.117 A 
HETATM   33  F1  UNL     1      30.092  -0.254  54.170  1.00  0.00    -0.206 F 
HETATM   34  C22 UNL     1      28.011   0.226  53.015  1.00  0.00     0.054 A 
ENDBRANCH  18  28
TORSDOF 3
ENDMDL
MODEL 2
REMARK VINA RESULT:      -9.2      3.889      6.661
REMARK  3 active torsions:
REMARK  status: ('A' for Active; 'I' for Inactive)
REMARK    1  A    between atoms: C10_12  and  C11_13 
REMARK       I    between atoms: C11_13  and  N3_15 
REMARK    2  A    between atoms: C12_16  and  N4_17 
REMARK    3  A    between atoms: C16_23  and  C17_24 
ROOT
HETATM    1  C1  UNL     1      22.677   1.890  49.360  1.00  0.00     0.049 C 
HETATM    2  C2  UNL     1      23.066   3.053  50.163  1.00  0.00    -0.051 C 
HETATM    3  C3  UNL     1      23.370   3.900  49.173  1.00  0.00     0.018 C 
HETATM    4  C4  UNL     1      23.859   5.310  49.033  1.00  0.00    -0.011 C 
HETATM    5  C5  UNL     1      22.829   6.190  48.685  1.00  0.00     0.150 C 
HETATM    6  N1  UNL     1      22.582   7.463  49.376  1.00  0.00    -0.160 NA
HETATM    7  N2  UNL     1      23.193   7.725  50.530  1.00  0.00    -0.132 NA
HETATM    8  C6  UNL     1      24.256   6.910  51.083  1.00  0.00     0.155 C 
HETATM    9  C7  UNL     1      25.291   6.977  50.177  1.00  0.00     0.025 C 
HETATM   10  C8  UNL     1      26.376   7.824  49.759  1.00  0.00    -0.017 C 
HETATM   11  C9  UNL     1      26.707   8.886  50.742  1.00  0.00     0.051 C 
HETATM   12  C10 UNL     1      26.770   7.378  48.553  1.00  0.00     0.106 C 
HETATM   13  N5  UNL     1      25.967   6.271  48.156  1.00  0.00    -0.372 N 
HETATM   14  C13 UNL     1      25.278   5.728  49.291  1.00  0.00     0.154 C 
HETATM   15  N6  UNL     1      24.216   6.129  52.272  1.00  0.00    -0.369 N 
HETATM   16  C14 UNL     1      23.710   5.252  53.285  1.00  0.00     0.149 C 
HETATM   17  C15 UNL     1      23.267   3.901  52.717  1.00  0.00     0.005 C 
HETATM   18  C16 UNL     1      23.070   3.195  51.553  1.00  0.00    -0.022 C 
HETATM   19  H12 UNL     1      25.943   5.956  47.157  1.00  0.00     0.161 HD
HETATM   20  H14 UNL     1      25.083   6.699  52.348  1.00  0.00     0.161 HD
ENDROOT
BRANCH  12  21
HETATM   21  C11 UNL     1      27.896   8.088  47.913  1.00  0.00     0.294 C 
HETATM   22  O1  UNL     1      27.857   8.927  47.017  1.00  0.00    -0.264 OA
HETATM   23  N3  UNL     1      29.113   7.651  48.476  1.00  0.00    -0.209 NA
HETATM   24  C12 UNL     1      30.174   8.344  48.629  1.00  0.00     0.177 C 
BRANCH  24  25
HETATM   25  N4  UNL     1      30.765   7.159  49.213  1.00  0.00    -0.297 NA
HETATM   26  H10 UNL     1      30.982   6.445  49.964  1.00  0.00     0.124 HD
HETATM   27  H11 UNL     1      31.029   6.404  49.891  1.00  0.00     0.124 HD
ENDBRANCH  24  25
ENDBRANCH  12  21
BRANCH  18  28
HETATM   28  C17 UNL     1      22.824   1.853  52.184  1.00  0.00    -0.023 A 
HETATM   29  C18 UNL     1      21.694   1.241  52.676  1.00  0.00     0.012 A 
HETATM   30  C19 UNL     1      21.523   0.088  53.412  1.00  0.00     0.004 A 
HETATM   31  C20 UNL     1      22.682  -0.543  53.686  1.00  0.00     0.042 A 
HETATM   32  C21 UNL     1      23.910  -0.128  53.294  1.00  0.00     0.117 A 
HETATM   33  F1  UNL     1      24.986  -0.868  53.638  1.00  0.00    -0.206 F 
HETATM   34  C22 UNL     1      23.920   1.036  52.573  1.00  0.00     0.054 A 
ENDBRANCH  18  28
TORSDOF 3
ENDMDL
MODEL 3
REMARK VINA RESULT:      -8.7      2.201      2.937
REMARK  3 active torsions:
REMARK  status: ('A' for Active; 'I' for Inactive)
REMARK    1  A    between atoms: C10_12  and  C11_13 
REMARK       I    between atoms: C11_13  and  N3_15 
REMARK    2  A    between atoms: C12_16  and  N4_17 
REMARK    3  A    between atoms: C16_23  and  C17_24 
ROOT
HETATM    1  C1  UNL     1      22.635  -0.940  52.857  1.00  0.00     0.049 C 
HETATM    2  C2  UNL     1      22.686   0.466  52.444  1.00  0.00    -0.051 C 
HETATM    3  C3  UNL     1      21.485   0.557  51.862  1.00  0.00     0.018 C 
HETATM    4  C4  UNL     1      20.671   1.601  51.159  1.00  0.00    -0.011 C 
HETATM    5  C5  UNL     1      19.666   2.122  51.981  1.00  0.00     0.150 C 
HETATM    6  N1  UNL     1      19.424   3.561  52.154  1.00  0.00    -0.160 NA
HETATM    7  N2  UNL     1      20.318   4.445  51.713  1.00  0.00    -0.132 NA
HETATM    8  C6  UNL     1      21.455   4.098  50.885  1.00  0.00     0.155 C 
HETATM    9  C7  UNL     1      20.928   3.598  49.714  1.00  0.00     0.025 C 
HETATM   10  C8  UNL     1      20.350   4.014  48.466  1.00  0.00    -0.017 C 
HETATM   11  C9  UNL     1      20.587   5.446  48.155  1.00  0.00     0.051 C 
HETATM   12  C10 UNL     1      19.741   2.934  47.944  1.00  0.00     0.106 C 
HETATM   13  N5  UNL     1      19.889   1.821  48.820  1.00  0.00    -0.372 N 
HETATM   14  C13 UNL     1      20.945   2.066  49.759  1.00  0.00     0.154 C 
HETATM   15  N6  UNL     1      22.833   4.173  51.233  1.00  0.00    -0.369 N 
HETATM   16  C14 UNL     1      24.024   4.075  52.022  1.00  0.00     0.149 C 
HETATM   17  C15 UNL     1      24.256   2.658  52.552  1.00  0.00     0.005 C 
HETATM   18  C16 UNL     1      23.701   1.403  52.652  1.00  0.00    -0.022 C 
HETATM   19  H12 UNL     1      19.277   0.976  48.721  1.00  0.00     0.161 HD
HETATM   20  H14 UNL     1      22.755   4.662  50.319  1.00  0.00     0.161 HD
ENDROOT
BRANCH  12  21
HETATM   21  C11 UNL     1      19.075   3.107  46.637  1.00  0.00     0.294 C 
HETATM   22  O1  UNL     1      17.875   3.065  46.382  1.00  0.00    -0.264 OA
HETATM   23  N3  UNL     1      20.045   3.329  45.637  1.00  0.00    -0.209 NA
HETATM   24  C12 UNL     1      19.906   4.041  44.586  1.00  0.00     0.177 C 
BRANCH  24  25
HETATM   25  N4  UNL     1      21.271   3.683  44.263  1.00  0.00    -0.297 NA
HETATM   26  H10 UNL     1      22.110   3.051  44.133  1.00  0.00     0.124 HD
HETATM   27  H11 UNL     1      22.148   3.133  44.103  1.00  0.00     0.124 HD
ENDBRANCH  24  25
ENDBRANCH  12  21
BRANCH  18  28
HETATM   28  C17 UNL     1      24.916   0.699  53.189  1.00  0.00    -0.023 A 
HETATM   29  C18 UNL     1      25.828   1.018  54.168  1.00  0.00     0.012 A 
HETATM   30  C19 UNL     1      27.032   0.448  54.520  1.00  0.00     0.004 A 
HETATM   31  C20 UNL     1      27.358  -0.616  53.758  1.00  0.00     0.042 A 
HETATM   32  C21 UNL     1      26.607  -1.112  52.746  1.00  0.00     0.117 A 
HETATM   33  F1  UNL     1      27.059  -2.190  52.071  1.00  0.00    -0.206 F 
HETATM   34  C22 UNL     1      25.439  -0.437  52.514  1.00  0.00     0.054 A 
ENDBRANCH  18  28
TORSDOF 3
ENDMDL
MODEL 4
REMARK VINA RESULT:      -8.7      2.914      4.920
REMARK  3 active torsions:
REMARK  status: ('A' for Active; 'I' for Inactive)
REMARK    1  A    between atoms: C10_12  and  C11_13 
REMARK       I    between atoms: C11_13  and  N3_15 
REMARK    2  A    between atoms: C12_16  and  N4_17 
REMARK    3  A    between atoms: C16_23  and  C17_24 
ROOT
HETATM    1  C1  UNL     1      23.007   4.336  52.637  1.00  0.00     0.049 C 
HETATM    2  C2  UNL     1      22.219   3.576  51.661  1.00  0.00    -0.051 C 
HETATM    3  C3  UNL     1      21.180   4.409  51.536  1.00  0.00     0.018 C 
HETATM    4  C4  UNL     1      19.894   4.467  50.769  1.00  0.00    -0.011 C 
HETATM    5  C5  UNL     1      19.975   5.336  49.676  1.00  0.00     0.150 C 
HETATM    6  N1  UNL     1      19.542   4.975  48.319  1.00  0.00    -0.160 NA
HETATM    7  N2  UNL     1      19.268   3.706  48.021  1.00  0.00    -0.132 NA
HETATM    8  C6  UNL     1      19.181   2.648  49.007  1.00  0.00     0.155 C 
HETATM    9  C7  UNL     1      18.135   2.991  49.836  1.00  0.00     0.025 C 
HETATM   10  C8  UNL     1      16.700   2.965  49.917  1.00  0.00    -0.017 C 
HETATM   11  C9  UNL     1      16.070   2.061  48.921  1.00  0.00     0.051 C 
HETATM   12  C10 UNL     1      16.355   3.806  50.907  1.00  0.00     0.106 C 
HETATM   13  N5  UNL     1      17.520   4.399  51.472  1.00  0.00    -0.372 N 
HETATM   14  C13 UNL     1      18.685   3.645  51.108  1.00  0.00     0.154 C 
HETATM   15  N6  UNL     1      20.046   1.526  49.150  1.00  0.00    -0.369 N 
HETATM   16  C14 UNL     1      21.256   0.761  49.182  1.00  0.00     0.149 C 
HETATM   17  C15 UNL     1      22.269   1.315  50.187  1.00  0.00     0.005 C 
HETATM   18  C16 UNL     1      22.525   2.358  51.048  1.00  0.00    -0.022 C 
HETATM   19  H12 UNL     1      17.451   5.260  52.065  1.00  0.00     0.161 HD
HETATM   20  H14 UNL     1      19.084   1.131  49.146  1.00  0.00     0.161 HD
ENDROOT
BRANCH  12  21
HETATM   21  C11 UNL     1      14.913   3.943  51.196  1.00  0.00     0.294 C 
HETATM   22  O1  UNL     1      13.967   3.829  50.421  1.00  0.00    -0.264 OA
HETATM   23  N3  UNL     1      14.730   4.258  52.558  1.00  0.00    -0.209 NA
HETATM   24  C12 UNL     1      13.743   3.919  53.293  1.00  0.00     0.177 C 
BRANCH  24  25
HETATM   25  N4  UNL     1      14.405   4.625  54.368  1.00  0.00    -0.297 NA
HETATM   26  H10 UNL     1      15.216   4.979  54.951  1.00  0.00     0.124 HD
HETATM   27  H11 UNL     1      15.144   5.021  54.997  1.00  0.00     0.124 HD
ENDBRANCH  24  25
ENDBRANCH  12  21
BRANCH  18  28
HETATM   28  C17 UNL     1      23.734   1.763  51.714  1.00  0.00    -0.023 A 
HETATM   29  C18 UNL     1      25.082   1.843  51.453  1.00  0.00     0.012 A 
HETATM   30  C19 UNL     1      26.157   1.148  51.963  1.00  0.00     0.004 A 
HETATM   31  C20 UNL     1      25.806   0.230  52.886  1.00  0.00     0.042 A 
HETATM   32  C21 UNL     1      24.541  -0.013  53.305  1.00  0.00     0.117 A 
HETATM   33  F1  UNL     1      24.339  -0.961  54.243  1.00  0.00    -0.206 F 
HETATM   34  C22 UNL     1      23.580   0.755  52.703  1.00  0.00     0.054 A 
ENDBRANCH  18  28
TORSDOF 3
ENDMDL
MODEL 5
REMARK VINA RESULT:      -8.5      7.590      9.951
REMARK  3 active torsions:
REMARK  status: ('A' for Active; 'I' for Inactive)
REMARK    1  A    between atoms: C10_12  and  C11_13 
REMARK       I    between atoms: C11_13  and  N3_15 
REMARK    2  A    between atoms: C12_16  and  N4_17 
REMARK    3  A    between atoms: C16_23  and  C17_24 
ROOT
HETATM    1  C1  UNL     1      33.440   5.404  46.986  1.00  0.00     0.049 C 
HETATM    2  C2  UNL     1      32.318   6.268  46.607  1.00  0.00    -0.051 C 
HETATM    3  C3  UNL     1      31.606   6.194  47.737  1.00  0.00     0.018 C 
HETATM    4  C4  UNL     1      30.317   6.743  48.271  1.00  0.00    -0.011 C 
HETATM    5  C5  UNL     1      30.528   7.803  49.160  1.00  0.00     0.150 C 
HETATM    6  N1  UNL     1      29.815   9.085  49.077  1.00  0.00    -0.160 NA
HETATM    7  N2  UNL     1      29.099   9.381  47.994  1.00  0.00    -0.132 NA
HETATM    8  C6  UNL     1      28.806   8.433  46.938  1.00  0.00     0.155 C 
HETATM    9  C7  UNL     1      28.058   7.435  47.525  1.00  0.00     0.025 C 
HETATM   10  C8  UNL     1      26.721   7.126  47.953  1.00  0.00    -0.017 C 
HETATM   11  C9  UNL     1      25.696   8.041  47.390  1.00  0.00     0.051 C 
HETATM   12  C10 UNL     1      26.815   6.063  48.772  1.00  0.00     0.106 C 
HETATM   13  N5  UNL     1      28.177   5.671  48.908  1.00  0.00    -0.372 N 
HETATM   14  C13 UNL     1      28.964   6.245  47.855  1.00  0.00     0.154 C 
HETATM   15  N6  UNL     1      29.262   8.472  45.590  1.00  0.00    -0.369 N 
HETATM   16  C14 UNL     1      30.144   8.662  44.478  1.00  0.00     0.149 C 
HETATM   17  C15 UNL     1      31.412   7.812  44.588  1.00  0.00     0.005 C 
HETATM   18  C16 UNL     1      32.116   6.966  45.414  1.00  0.00    -0.022 C 
HETATM   19  H12 UNL     1      28.480   5.044  49.690  1.00  0.00     0.161 HD
HETATM   20  H14 UNL     1      28.233   8.336  45.526  1.00  0.00     0.161 HD
ENDROOT
BRANCH  12  21
HETATM   21  C11 UNL     1      25.555   5.543  49.339  1.00  0.00     0.294 C 
HETATM   22  O1  UNL     1      24.995   4.476  49.100  1.00  0.00    -0.264 OA
HETATM   23  N3  UNL     1      25.017   6.483  50.241  1.00  0.00    -0.209 NA
HETATM   24  C12 UNL     1      24.331   6.230  51.288  1.00  0.00     0.177 C 
BRANCH  24  25
HETATM   25  N4  UNL     1      24.268   7.661  51.494  1.00  0.00    -0.297 NA
HETATM   26  H10 UNL     1      24.627   8.633  51.712  1.00  0.00     0.124 HD
HETATM   27  H11 UNL     1      24.536   8.654  51.692  1.00  0.00     0.124 HD
ENDBRANCH  24  25
ENDBRANCH  12  21
BRANCH  18  28
HETATM   28  C17 UNL     1      33.141   6.525  44.407  1.00  0.00    -0.023 A 
HETATM   29  C18 UNL     1      34.278   7.116  43.906  1.00  0.00     0.012 A 
HETATM   30  C19 UNL     1      35.101   6.774  42.855  1.00  0.00     0.004 A 
HETATM   31  C20 UNL     1      34.708   5.654  42.216  1.00  0.00     0.042 A 
HETATM   32  C21 UNL     1      33.628   4.906  42.542  1.00  0.00     0.117 A 
HETATM   33  F1  UNL     1      33.358   3.802  41.814  1.00  0.00    -0.206 F 
HETATM   34  C22 UNL     1      32.905   5.375  43.607  1.00  0.00     0.054 A 
ENDBRANCH  18  28
TORSDOF 3
ENDMDL
MODEL 6
REMARK VINA RESULT:      -8.3      2.203      3.614
REMARK  3 active torsions:
REMARK  status: ('A' for Active; 'I' for Inactive)
REMARK    1  A    between atoms: C10_12  and  C11_13 
REMARK       I    between atoms: C11_13  and  N3_15 
REMARK    2  A    between atoms: C12_16  and  N4_17 
REMARK    3  A    between atoms: C16_23  and  C17_24 
ROOT
HETATM    1  C1  UNL     1      26.588   2.878  50.011  1.00  0.00     0.049 C 
HETATM    2  C2  UNL     1      25.236   2.578  50.494  1.00  0.00    -0.051 C 
HETATM    3  C3  UNL     1      24.530   3.190  49.537  1.00  0.00     0.018 C 
HETATM    4  C4  UNL     1      23.088   3.416  49.198  1.00  0.00    -0.011 C 
HETATM    5  C5  UNL     1      22.654   2.573  48.169  1.00  0.00     0.150 C 
HETATM    6  N1  UNL     1      21.420   1.778  48.237  1.00  0.00    -0.160 NA
HETATM    7  N2  UNL     1      20.775   1.646  49.396  1.00  0.00    -0.132 NA
HETATM    8  C6  UNL     1      21.102   2.397  50.591  1.00  0.00     0.155 C 
HETATM    9  C7  UNL     1      20.878   3.720  50.275  1.00  0.00     0.025 C 
HETATM   10  C8  UNL     1      19.824   4.689  50.148  1.00  0.00    -0.017 C 
HETATM   11  C9  UNL     1      18.552   4.265  50.786  1.00  0.00     0.051 C 
HETATM   12  C10 UNL     1      20.333   5.723  49.454  1.00  0.00     0.106 C 
HETATM   13  N5  UNL     1      21.689   5.457  49.108  1.00  0.00    -0.372 N 
HETATM   14  C13 UNL     1      22.207   4.393  49.919  1.00  0.00     0.154 C 
HETATM   15  N6  UNL     1      21.628   1.892  51.813  1.00  0.00    -0.369 N 
HETATM   16  C14 UNL     1      22.421   1.104  52.708  1.00  0.00     0.149 C 
HETATM   17  C15 UNL     1      23.922   1.273  52.457  1.00  0.00     0.005 C 
HETATM   18  C16 UNL     1      24.853   1.838  51.615  1.00  0.00    -0.022 C 
HETATM   19  H12 UNL     1      22.170   6.011  48.360  1.00  0.00     0.161 HD
HETATM   20  H14 UNL     1      20.811   2.475  52.087  1.00  0.00     0.161 HD
ENDROOT
BRANCH  12  21
HETATM   21  C11 UNL     1      19.434   6.867  49.202  1.00  0.00     0.294 C 
HETATM   22  O1  UNL     1      19.405   7.954  49.773  1.00  0.00    -0.264 OA
HETATM   23  N3  UNL     1      18.535   6.543  48.165  1.00  0.00    -0.209 NA
HETATM   24  C12 UNL     1      18.033   7.349  47.312  1.00  0.00     0.177 C 
BRANCH  24  25
HETATM   25  N4  UNL     1      17.342   6.204  46.758  1.00  0.00    -0.297 NA
HETATM   26  H10 UNL     1      16.547   5.663  46.314  1.00  0.00     0.124 HD
HETATM   27  H11 UNL     1      16.613   5.594  46.317  1.00  0.00     0.124 HD
ENDBRANCH  24  25
ENDBRANCH  12  21
BRANCH  18  28
HETATM   28  C17 UNL     1      26.067   1.550  52.453  1.00  0.00    -0.023 A 
HETATM   29  C18 UNL     1      26.944   2.357  53.141  1.00  0.00     0.012 A 
HETATM   30  C19 UNL     1      28.150   2.089  53.751  1.00  0.00     0.004 A 
HETATM   31  C20 UNL     1      28.521   0.797  53.647  1.00  0.00     0.042 A 
HETATM   32  C21 UNL     1      27.811  -0.173  53.023  1.00  0.00     0.117 A 
HETATM   33  F1  UNL     1      28.305  -1.429  53.003  1.00  0.00    -0.206 F 
HETATM   34  C22 UNL     1      26.634   0.248  52.462  1.00  0.00     0.054 A 
ENDBRANCH  18  28
TORSDOF 3
ENDMDL
MODEL 7
REMARK VINA RESULT:      -8.3      3.905      8.672
REMARK  3 active torsions:
REMARK  status: ('A' for Active; 'I' for Inactive)
REMARK    1  A    between atoms: C10_12  and  C11_13 
REMARK       I    between atoms: C11_13  and  N3_15 
REMARK    2  A    between atoms: C12_16  and  N4_17 
REMARK    3  A    between atoms: C16_23  and  C17_24 
ROOT
HETATM    1  C1  UNL     1      23.947   6.738  47.469  1.00  0.00     0.049 C 
HETATM    2  C2  UNL     1      23.269   5.681  48.227  1.00  0.00    -0.051 C 
HETATM    3  C3  UNL     1      24.142   5.551  49.232  1.00  0.00     0.018 C 
HETATM    4  C4  UNL     1      24.288   4.719  50.470  1.00  0.00    -0.011 C 
HETATM    5  C5  UNL     1      23.956   5.436  51.624  1.00  0.00     0.150 C 
HETATM    6  N1  UNL     1      23.051   4.926  52.663  1.00  0.00    -0.160 NA
HETATM    7  N2  UNL     1      22.312   3.841  52.431  1.00  0.00    -0.132 NA
HETATM    8  C6  UNL     1      22.474   2.990  51.270  1.00  0.00     0.155 C 
HETATM    9  C7  UNL     1      23.747   2.470  51.359  1.00  0.00     0.025 C 
HETATM   10  C8  UNL     1      24.505   1.442  52.018  1.00  0.00    -0.017 C 
HETATM   11  C9  UNL     1      23.659   0.395  52.643  1.00  0.00     0.051 C 
HETATM   12  C10 UNL     1      25.803   1.762  51.864  1.00  0.00     0.106 C 
HETATM   13  N5  UNL     1      25.921   2.980  51.135  1.00  0.00    -0.372 N 
HETATM   14  C13 UNL     1      24.691   3.273  50.458  1.00  0.00     0.154 C 
HETATM   15  N6  UNL     1      21.547   2.793  50.207  1.00  0.00    -0.369 N 
HETATM   16  C14 UNL     1      20.561   3.096  49.214  1.00  0.00     0.149 C 
HETATM   17  C15 UNL     1      21.038   4.162  48.226  1.00  0.00     0.005 C 
HETATM   18  C16 UNL     1      22.052   5.052  47.953  1.00  0.00    -0.022 C 
HETATM   19  H12 UNL     1      26.818   3.522  51.138  1.00  0.00     0.161 HD
HETATM   20  H14 UNL     1      21.817   1.837  50.516  1.00  0.00     0.161 HD
ENDROOT
BRANCH  12  21
HETATM   21  C11 UNL     1      26.793   0.838  52.451  1.00  0.00     0.294 C 
HETATM   22  O1  UNL     1      26.850  -0.385  52.347  1.00  0.00    -0.264 OA
HETATM   23  N3  UNL     1      27.728   1.568  53.214  1.00  0.00    -0.209 NA
HETATM   24  C12 UNL     1      28.960   1.280  53.389  1.00  0.00     0.177 C 
BRANCH  24  25
HETATM   25  N4  UNL     1      29.039   2.475  54.201  1.00  0.00    -0.297 NA
HETATM   26  H10 UNL     1      29.281   3.069  55.045  1.00  0.00     0.124 HD
HETATM   27  H11 UNL     1      29.244   3.137  54.988  1.00  0.00     0.124 HD
ENDBRANCH  24  25
ENDBRANCH  12  21
BRANCH  18  28
HETATM   28  C17 UNL     1      21.591   5.451  46.579  1.00  0.00    -0.023 A 
HETATM   29  C18 UNL     1      21.008   6.594  46.081  1.00  0.00     0.012 A 
HETATM   30  C19 UNL     1      20.430   6.870  44.861  1.00  0.00     0.004 A 
HETATM   31  C20 UNL     1      20.451   5.822  44.014  1.00  0.00     0.042 A 
HETATM   32  C21 UNL     1      20.981   4.606  44.288  1.00  0.00     0.117 A 
HETATM   33  F1  UNL     1      20.936   3.649  43.337  1.00  0.00    -0.206 F 
HETATM   34  C22 UNL     1      21.516   4.483  45.543  1.00  0.00     0.054 A 
ENDBRANCH  18  28
TORSDOF 3
ENDMDL
MODEL 8
REMARK VINA RESULT:      -8.2      3.951      6.246
REMARK  3 active torsions:
REMARK  status: ('A' for Active; 'I' for Inactive)
REMARK    1  A    between atoms: C10_12  and  C11_13 
REMARK       I    between atoms: C11_13  and  N3_15 
REMARK    2  A    between atoms: C12_16  and  N4_17 
REMARK    3  A    between atoms: C16_23  and  C17_24 
ROOT
HETATM    1  C1  UNL     1      27.533   4.709  48.586  1.00  0.00     0.049 C 
HETATM    2  C2  UNL     1      26.380   5.172  49.365  1.00  0.00    -0.051 C 
HETATM    3  C3  UNL     1      25.918   3.986  49.780  1.00  0.00     0.018 C 
HETATM    4  C4  UNL     1      24.785   3.470  50.614  1.00  0.00    -0.011 C 
HETATM    5  C5  UNL     1      25.206   3.100  51.896  1.00  0.00     0.150 C 
HETATM    6  N1  UNL     1      24.526   3.526  53.127  1.00  0.00    -0.160 NA
HETATM    7  N2  UNL     1      23.607   4.489  53.083  1.00  0.00    -0.132 NA
HETATM    8  C6  UNL     1      23.074   5.039  51.853  1.00  0.00     0.155 C 
HETATM    9  C7  UNL     1      22.440   3.993  51.219  1.00  0.00     0.025 C 
HETATM   10  C8  UNL     1      21.214   3.242  51.226  1.00  0.00    -0.017 C 
HETATM   11  C9  UNL     1      20.118   3.908  51.975  1.00  0.00     0.051 C 
HETATM   12  C10 UNL     1      21.448   2.116  50.528  1.00  0.00     0.106 C 
HETATM   13  N5  UNL     1      22.797   2.096  50.073  1.00  0.00    -0.372 N 
HETATM   14  C13 UNL     1      23.362   3.413  50.142  1.00  0.00     0.154 C 
HETATM   15  N6  UNL     1      23.240   6.361  51.354  1.00  0.00    -0.369 N 
HETATM   16  C14 UNL     1      23.874   7.605  51.037  1.00  0.00     0.149 C 
HETATM   17  C15 UNL     1      25.114   7.419  50.158  1.00  0.00     0.005 C 
HETATM   18  C16 UNL     1      25.951   6.480  49.601  1.00  0.00    -0.022 C 
HETATM   19  H12 UNL     1      23.239   1.205  49.744  1.00  0.00     0.161 HD
HETATM   20  H14 UNL     1      22.217   6.178  51.311  1.00  0.00     0.161 HD
ENDROOT
BRANCH  12  21
HETATM   21  C11 UNL     1      20.320   1.174  50.381  1.00  0.00     0.294 C 
HETATM   22  O1  UNL     1      20.144   0.101  50.953  1.00  0.00    -0.264 OA
HETATM   23  N3  UNL     1      19.407   1.672  49.429  1.00  0.00    -0.209 NA
HETATM   24  C12 UNL     1      18.142   1.500  49.423  1.00  0.00     0.177 C 
BRANCH  24  25
HETATM   25  N4  UNL     1      18.122   2.296  48.215  1.00  0.00    -0.297 NA
HETATM   26  H10 UNL     1      18.250   3.155  47.608  1.00  0.00     0.124 HD
HETATM   27  H11 UNL     1      18.222   3.093  47.541  1.00  0.00     0.124 HD
ENDBRANCH  24  25
ENDBRANCH  12  21
BRANCH  18  28
HETATM   28  C17 UNL     1      26.731   7.418  48.722  1.00  0.00    -0.023 A 
HETATM   29  C18 UNL     1      26.762   7.619  47.361  1.00  0.00     0.012 A 
HETATM   30  C19 UNL     1      27.612   8.354  46.563  1.00  0.00     0.004 A 
HETATM   31  C20 UNL     1      28.578   8.987  47.258  1.00  0.00     0.042 A 
HETATM   32  C21 UNL     1      28.733   8.939  48.603  1.00  0.00     0.117 A 
HETATM   33  F1  UNL     1      29.747   9.630  49.164  1.00  0.00    -0.206 F 
HETATM   34  C22 UNL     1      27.814   8.164  49.259  1.00  0.00     0.054 A 
ENDBRANCH  18  28
TORSDOF 3
ENDMDL
MODEL 9
REMARK VINA RESULT:      -8.2      8.828     12.104
REMARK  3 active torsions:
REMARK  status: ('A' for Active; 'I' for Inactive)
REMARK    1  A    between atoms: C10_12  and  C11_13 
REMARK       I    between atoms: C11_13  and  N3_15 
REMARK    2  A    between atoms: C12_16  and  N4_17 
REMARK    3  A    between atoms: C16_23  and  C17_24 
ROOT
HETATM    1  C1  UNL     1      28.220   8.551  46.169  1.00  0.00     0.049 C 
HETATM    2  C2  UNL     1      29.360   7.708  46.540  1.00  0.00    -0.051 C 
HETATM    3  C3  UNL     1      30.214   8.075  45.578  1.00  0.00     0.018 C 
HETATM    4  C4  UNL     1      31.614   7.744  45.155  1.00  0.00    -0.011 C 
HETATM    5  C5  UNL     1      32.524   8.737  45.535  1.00  0.00     0.150 C 
HETATM    6  N1  UNL     1      33.792   8.455  46.220  1.00  0.00    -0.160 NA
HETATM    7  N2  UNL     1      34.022   7.244  46.728  1.00  0.00    -0.132 NA
HETATM    8  C6  UNL     1      33.172   6.096  46.487  1.00  0.00     0.155 C 
HETATM    9  C7  UNL     1      33.228   5.865  45.129  1.00  0.00     0.025 C 
HETATM   10  C8  UNL     1      34.054   5.265  44.117  1.00  0.00    -0.017 C 
HETATM   11  C9  UNL     1      35.093   4.357  44.665  1.00  0.00     0.051 C 
HETATM   12  C10 UNL     1      33.617   5.735  42.935  1.00  0.00     0.106 C 
HETATM   13  N5  UNL     1      32.537   6.640  43.140  1.00  0.00    -0.372 N 
HETATM   14  C13 UNL     1      31.993   6.471  44.456  1.00  0.00     0.154 C 
HETATM   15  N6  UNL     1      32.374   5.396  47.436  1.00  0.00    -0.369 N 
HETATM   16  C14 UNL     1      31.495   5.173  48.544  1.00  0.00     0.149 C 
HETATM   17  C15 UNL     1      30.164   5.913  48.389  1.00  0.00     0.005 C 
HETATM   18  C16 UNL     1      29.480   6.822  47.614  1.00  0.00    -0.022 C 
HETATM   19  H12 UNL     1      32.237   7.298  42.382  1.00  0.00     0.161 HD
HETATM   20  H14 UNL     1      32.922   4.661  46.944  1.00  0.00     0.161 HD
ENDROOT
BRANCH  12  21
HETATM   21  C11 UNL     1      34.308   5.248  41.725  1.00  0.00     0.294 C 
HETATM   22  O1  UNL     1      35.357   5.654  41.230  1.00  0.00    -0.264 OA
HETATM   23  N3  UNL     1      33.569   4.195  41.148  1.00  0.00    -0.209 NA
HETATM   24  C12 UNL     1      34.038   3.197  40.505  1.00  0.00     0.177 C 
BRANCH  24  25
HETATM   25  N4  UNL     1      32.668   2.754  40.354  1.00  0.00    -0.297 NA
HETATM   26  H10 UNL     1      31.830   2.115  40.464  1.00  0.00     0.124 HD
HETATM   27  H11 UNL     1      31.789   2.188  40.418  1.00  0.00     0.124 HD
ENDBRANCH  24  25
ENDBRANCH  12  21
BRANCH  18  28
HETATM   28  C17 UNL     1      28.135   6.653  48.263  1.00  0.00    -0.023 A 
HETATM   29  C18 UNL     1      27.317   7.510  48.962  1.00  0.00     0.012 A 
HETATM   30  C19 UNL     1      26.175   7.287  49.702  1.00  0.00     0.004 A 
HETATM   31  C20 UNL     1      25.807   5.991  49.732  1.00  0.00     0.042 A 
HETATM   32  C21 UNL     1      26.457   4.979  49.109  1.00  0.00     0.117 A 
HETATM   33  F1  UNL     1      25.968   3.726  49.223  1.00  0.00    -0.206 F 
HETATM   34  C22 UNL     1      27.576   5.356  48.416  1.00  0.00     0.054 A 
ENDBRANCH  18  28
TORSDOF 3
ENDMDL
