MODEL 1
REMARK VINA RESULT:      -9.2      0.000      0.000
REMARK  6 active torsions:
REMARK  status: ('A' for Active; 'I' for Inactive)
REMARK    1  A    between atoms: C2_2  and  C3_4 
REMARK    2  A    between atoms: C4_5  and  C5_6 
REMARK    3  A    between atoms: C5_6  and  C6_7 
REMARK    4  A    between atoms: C6_7  and  N1_8 
REMARK    5  A    between atoms: N1_8  and  C7_9 
REMARK    6  A    between atoms: C20_27  and  O4_28 
ROOT
HETATM    1  C7  UNL     1      26.097   1.300  53.846  1.00  0.00     0.144 A 
HETATM    2  N2  UNL     1      26.658   0.742  54.930  1.00  0.00    -0.223 NA
HETATM    3  C8  UNL     1      25.976  -0.262  55.488  1.00  0.00     0.236 A 
HETATM    4  N3  UNL     1      24.828  -0.571  54.885  1.00  0.00    -0.241 NA
HETATM    5  C9  UNL     1      24.279  -0.006  53.799  1.00  0.00     0.073 A 
HETATM    6  C10 UNL     1      24.907   1.021  53.172  1.00  0.00     0.075 A 
HETATM    7  C11 UNL     1      24.888   1.906  52.153  1.00  0.00     0.118 A 
HETATM    8  O1  UNL     1      25.831   2.840  51.857  1.00  0.00    -0.345 OA
HETATM    9  C12 UNL     1      26.553   2.934  50.639  1.00  0.00     0.202 C 
HETATM   10  C13 UNL     1      25.605   3.849  49.844  1.00  0.00     0.202 C 
HETATM   11  O2  UNL     1      24.336   3.276  50.213  1.00  0.00    -0.346 OA
HETATM   12  C14 UNL     1      24.040   2.259  51.095  1.00  0.00     0.108 A 
HETATM   13  C15 UNL     1      22.853   2.004  50.439  1.00  0.00    -0.013 A 
HETATM   14  C16 UNL     1      21.878   2.334  49.311  1.00  0.00     0.066 C 
HETATM   15  C17 UNL     1      20.586   2.623  50.045  1.00  0.00     0.173 C 
HETATM   16  O3  UNL     1      20.605   1.506  50.887  1.00  0.00    -0.381 OA
HETATM   17  C18 UNL     1      21.834   0.939  50.759  1.00  0.00     0.156 A 
HETATM   18  C19 UNL     1      22.389   0.353  51.922  1.00  0.00     0.072 A 
HETATM   19  C20 UNL     1      22.002  -0.760  52.763  1.00  0.00     0.146 A 
HETATM   20  C21 UNL     1      23.161  -0.746  53.705  1.00  0.00     0.037 A 
ENDROOT
BRANCH   1  21
HETATM   21  N1  UNL     1      27.097   2.347  53.635  1.00  0.00    -0.350 N 
HETATM   22  H7  UNL     1      26.503   3.151  53.340  1.00  0.00     0.166 HD
BRANCH  21  23
HETATM   23  C6  UNL     1      28.499   2.383  53.785  1.00  0.00     0.090 C 
BRANCH  23  24
HETATM   24  C5  UNL     1      29.128   1.264  53.671  1.00  0.00     0.017 C 
BRANCH  24  25
HETATM   25  C4  UNL     1      29.756  -0.019  53.573  1.00  0.00     0.004 C 
HETATM   26  C3  UNL     1      29.703  -1.305  53.326  1.00  0.00     0.032 C 
BRANCH  26  27
HETATM   27  C2  UNL     1      28.422  -1.871  52.946  1.00  0.00     0.037 C 
HETATM   28  C1  UNL     1      27.213  -2.239  52.629  1.00  0.00     0.361 C 
HETATM   29  F1  UNL     1      28.184  -3.185  52.740  1.00  0.00    -0.433 F 
ENDBRANCH  26  27
ENDBRANCH  24  25
ENDBRANCH  23  24
ENDBRANCH  21  23
ENDBRANCH   1  21
BRANCH  19  30
HETATM   30  O4  UNL     1      20.776  -0.589  53.346  1.00  0.00    -0.392 OA
HETATM   31  H21 UNL     1      20.326   0.250  53.073  1.00  0.00     0.210 HD
ENDBRANCH  19  30
TORSDOF 6
ENDMDL
MODEL 2
REMARK VINA RESULT:      -8.6      3.006      5.416
REMARK  6 active torsions:
REMARK  status: ('A' for Active; 'I' for Inactive)
REMARK    1  A    between atoms: C2_2  and  C3_4 
REMARK    2  A    between atoms: C4_5  and  C5_6 
REMARK    3  A    between atoms: C5_6  and  C6_7 
REMARK    4  A    between atoms: C6_7  and  N1_8 
REMARK    5  A    between atoms: N1_8  and  C7_9 
REMARK    6  A    between atoms: C20_27  and  O4_28 
ROOT
HETATM    1  C7  UNL     1      26.500   2.277  52.077  1.00  0.00     0.144 A 
HETATM    2  N2  UNL     1      27.822   2.469  52.205  1.00  0.00    -0.223 NA
HETATM    3  C8  UNL     1      28.446   1.666  53.070  1.00  0.00     0.236 A 
HETATM    4  N3  UNL     1      27.664   0.780  53.688  1.00  0.00    -0.241 NA
HETATM    5  C9  UNL     1      26.342   0.598  53.549  1.00  0.00     0.073 A 
HETATM    6  C10 UNL     1      25.632   1.373  52.691  1.00  0.00     0.075 A 
HETATM    7  C11 UNL     1      24.427   1.653  52.152  1.00  0.00     0.118 A 
HETATM    8  O1  UNL     1      24.144   2.596  51.214  1.00  0.00    -0.345 OA
HETATM    9  C12 UNL     1      23.570   2.353  49.938  1.00  0.00     0.202 C 
HETATM   10  C13 UNL     1      22.079   2.471  50.297  1.00  0.00     0.202 C 
HETATM   11  O2  UNL     1      22.065   1.762  51.552  1.00  0.00    -0.346 OA
HETATM   12  C14 UNL     1      23.101   1.212  52.275  1.00  0.00     0.108 A 
HETATM   13  C15 UNL     1      22.235   0.337  52.896  1.00  0.00    -0.013 A 
HETATM   14  C16 UNL     1      20.815  -0.194  53.086  1.00  0.00     0.066 C 
HETATM   15  C17 UNL     1      20.579  -0.022  54.572  1.00  0.00     0.173 C 
HETATM   16  O3  UNL     1      21.786  -0.575  55.010  1.00  0.00    -0.381 OA
HETATM   17  C18 UNL     1      22.571  -0.728  53.910  1.00  0.00     0.156 A 
HETATM   18  C19 UNL     1      23.961  -0.527  54.087  1.00  0.00     0.072 A 
HETATM   19  C20 UNL     1      24.979  -1.203  54.862  1.00  0.00     0.146 A 
HETATM   20  C21 UNL     1      26.165  -0.411  54.420  1.00  0.00     0.037 A 
ENDROOT
BRANCH   1  21
HETATM   21  N1  UNL     1      26.241   3.371  51.140  1.00  0.00    -0.350 N 
HETATM   22  H7  UNL     1      25.532   3.931  51.659  1.00  0.00     0.166 HD
BRANCH  21  23
HETATM   23  C6  UNL     1      26.767   3.695  49.872  1.00  0.00     0.090 C 
BRANCH  23  24
HETATM   24  C5  UNL     1      26.364   4.796  49.336  1.00  0.00     0.017 C 
BRANCH  24  25
HETATM   25  C4  UNL     1      25.996   6.047  48.745  1.00  0.00     0.004 C 
HETATM   26  C3  UNL     1      26.306   7.143  48.097  1.00  0.00     0.032 C 
BRANCH  26  27
HETATM   27  C2  UNL     1      27.691   7.334  47.709  1.00  0.00     0.037 C 
HETATM   28  C1  UNL     1      28.902   7.656  47.354  1.00  0.00     0.361 C 
HETATM   29  F1  UNL     1      28.560   6.341  47.416  1.00  0.00    -0.433 F 
ENDBRANCH  26  27
ENDBRANCH  24  25
ENDBRANCH  23  24
ENDBRANCH  21  23
ENDBRANCH   1  21
BRANCH  19  30
HETATM   30  O4  UNL     1      24.731  -1.179  56.208  1.00  0.00    -0.392 OA
HETATM   31  H21 UNL     1      25.327  -1.776  56.726  1.00  0.00     0.210 HD
ENDBRANCH  19  30
TORSDOF 6
ENDMDL
MODEL 3
REMARK VINA RESULT:      -8.5      2.815      5.352
REMARK  6 active torsions:
REMARK  status: ('A' for Active; 'I' for Inactive)
REMARK    1  A    between atoms: C2_2  and  C3_4 
REMARK    2  A    between atoms: C4_5  and  C5_6 
REMARK    3  A    between atoms: C5_6  and  C6_7 
REMARK    4  A    between atoms: C6_7  and  N1_8 
REMARK    5  A    between atoms: N1_8  and  C7_9 
REMARK    6  A    between atoms: C20_27  and  O4_28 
ROOT
HETATM    1  C7  UNL     1      26.468   2.300  52.059  1.00  0.00     0.144 A 
HETATM    2  N2  UNL     1      27.792   2.482  52.177  1.00  0.00    -0.223 NA
HETATM    3  C8  UNL     1      28.421   1.658  53.020  1.00  0.00     0.236 A 
HETATM    4  N3  UNL     1      27.640   0.766  53.629  1.00  0.00    -0.241 NA
HETATM    5  C9  UNL     1      26.316   0.594  53.501  1.00  0.00     0.073 A 
HETATM    6  C10 UNL     1      25.601   1.389  52.666  1.00  0.00     0.075 A 
HETATM    7  C11 UNL     1      24.392   1.686  52.146  1.00  0.00     0.118 A 
HETATM    8  O1  UNL     1      24.104   2.649  51.228  1.00  0.00    -0.345 OA
HETATM    9  C12 UNL     1      23.515   2.434  49.955  1.00  0.00     0.202 C 
HETATM   10  C13 UNL     1      22.029   2.553  50.332  1.00  0.00     0.202 C 
HETATM   11  O2  UNL     1      22.024   1.820  51.573  1.00  0.00    -0.346 OA
HETATM   12  C14 UNL     1      23.065   1.251  52.274  1.00  0.00     0.108 A 
HETATM   13  C15 UNL     1      22.200   0.369  52.888  1.00  0.00    -0.013 A 
HETATM   14  C16 UNL     1      20.780  -0.157  53.083  1.00  0.00     0.066 C 
HETATM   15  C17 UNL     1      20.561  -0.013  54.575  1.00  0.00     0.173 C 
HETATM   16  O3  UNL     1      21.769  -0.582  54.989  1.00  0.00    -0.381 OA
HETATM   17  C18 UNL     1      22.541  -0.717  53.877  1.00  0.00     0.156 A 
HETATM   18  C19 UNL     1      23.934  -0.528  54.043  1.00  0.00     0.072 A 
HETATM   19  C20 UNL     1      24.956  -1.224  54.794  1.00  0.00     0.146 A 
HETATM   20  C21 UNL     1      26.142  -0.431  54.354  1.00  0.00     0.037 A 
ENDROOT
BRANCH   1  21
HETATM   21  N1  UNL     1      26.205   3.413  51.146  1.00  0.00    -0.350 N 
HETATM   22  H7  UNL     1      25.448   3.924  51.647  1.00  0.00     0.166 HD
BRANCH  21  23
HETATM   23  C6  UNL     1      26.776   3.803  49.917  1.00  0.00     0.090 C 
BRANCH  23  24
HETATM   24  C5  UNL     1      26.264   4.833  49.335  1.00  0.00     0.017 C 
BRANCH  24  25
HETATM   25  C4  UNL     1      25.748   6.027  48.735  1.00  0.00     0.004 C 
HETATM   26  C3  UNL     1      24.757   6.720  48.234  1.00  0.00     0.032 C 
BRANCH  26  27
HETATM   27  C2  UNL     1      23.445   6.099  48.194  1.00  0.00     0.037 C 
HETATM   28  C1  UNL     1      22.224   5.652  48.258  1.00  0.00     0.361 C 
HETATM   29  F1  UNL     1      23.160   4.926  47.589  1.00  0.00    -0.433 F 
ENDBRANCH  26  27
ENDBRANCH  24  25
ENDBRANCH  23  24
ENDBRANCH  21  23
ENDBRANCH   1  21
BRANCH  19  30
HETATM   30  O4  UNL     1      24.723  -1.224  56.142  1.00  0.00    -0.392 OA
HETATM   31  H21 UNL     1      25.330  -1.826  56.644  1.00  0.00     0.210 HD
ENDBRANCH  19  30
TORSDOF 6
ENDMDL
MODEL 4
REMARK VINA RESULT:      -8.4      2.423      3.762
REMARK  6 active torsions:
REMARK  status: ('A' for Active; 'I' for Inactive)
REMARK    1  A    between atoms: C2_2  and  C3_4 
REMARK    2  A    between atoms: C4_5  and  C5_6 
REMARK    3  A    between atoms: C5_6  and  C6_7 
REMARK    4  A    between atoms: C6_7  and  N1_8 
REMARK    5  A    between atoms: N1_8  and  C7_9 
REMARK    6  A    between atoms: C20_27  and  O4_28 
ROOT
HETATM    1  C7  UNL     1      22.561   0.033  53.432  1.00  0.00     0.144 A 
HETATM    2  N2  UNL     1      23.240  -0.585  54.412  1.00  0.00    -0.223 NA
HETATM    3  C8  UNL     1      22.555  -1.492  55.114  1.00  0.00     0.236 A 
HETATM    4  N3  UNL     1      21.285  -1.658  54.740  1.00  0.00    -0.241 NA
HETATM    5  C9  UNL     1      20.619  -1.034  53.758  1.00  0.00     0.073 A 
HETATM    6  C10 UNL     1      21.241  -0.098  52.996  1.00  0.00     0.075 A 
HETATM    7  C11 UNL     1      21.142   0.776  51.973  1.00  0.00     0.118 A 
HETATM    8  O1  UNL     1      22.121   1.583  51.483  1.00  0.00    -0.345 OA
HETATM    9  C12 UNL     1      22.611   1.578  50.150  1.00  0.00     0.202 C 
HETATM   10  C13 UNL     1      21.652   2.600  49.516  1.00  0.00     0.202 C 
HETATM   11  O2  UNL     1      20.412   2.194  50.128  1.00  0.00    -0.346 OA
HETATM   12  C14 UNL     1      20.162   1.228  51.078  1.00  0.00     0.108 A 
HETATM   13  C15 UNL     1      18.853   1.120  50.659  1.00  0.00    -0.013 A 
HETATM   14  C16 UNL     1      17.733   1.564  49.719  1.00  0.00     0.066 C 
HETATM   15  C17 UNL     1      16.645   2.018  50.669  1.00  0.00     0.173 C 
HETATM   16  O3  UNL     1      16.682   0.913  51.525  1.00  0.00    -0.381 OA
HETATM   17  C18 UNL     1      17.788   0.194  51.191  1.00  0.00     0.156 A 
HETATM   18  C19 UNL     1      18.472  -0.451  52.249  1.00  0.00     0.072 A 
HETATM   19  C20 UNL     1      18.114  -1.501  53.179  1.00  0.00     0.146 A 
HETATM   20  C21 UNL     1      19.420  -1.628  53.892  1.00  0.00     0.037 A 
ENDROOT
BRANCH   1  21
HETATM   21  N1  UNL     1      23.624   0.945  53.011  1.00  0.00    -0.350 N 
HETATM   22  H7  UNL     1      23.103   1.614  52.407  1.00  0.00     0.166 HD
BRANCH  21  23
HETATM   23  C6  UNL     1      25.003   1.014  53.303  1.00  0.00     0.090 C 
BRANCH  23  24
HETATM   24  C5  UNL     1      25.720  -0.007  52.982  1.00  0.00     0.017 C 
BRANCH  24  25
HETATM   25  C4  UNL     1      26.453  -1.191  52.649  1.00  0.00     0.004 C 
HETATM   26  C3  UNL     1      27.560  -1.892  52.652  1.00  0.00     0.032 C 
BRANCH  26  27
HETATM   27  C2  UNL     1      28.734  -1.306  53.271  1.00  0.00     0.037 C 
HETATM   28  C1  UNL     1      29.870  -0.884  53.749  1.00  0.00     0.361 C 
HETATM   29  F1  UNL     1      28.712  -0.372  54.248  1.00  0.00    -0.433 F 
ENDBRANCH  26  27
ENDBRANCH  24  25
ENDBRANCH  23  24
ENDBRANCH  21  23
ENDBRANCH   1  21
BRANCH  19  30
HETATM   30  O4  UNL     1      17.048  -1.174  53.971  1.00  0.00    -0.392 OA
HETATM   31  H21 UNL     1      16.324  -0.707  53.481  1.00  0.00     0.210 HD
ENDBRANCH  19  30
TORSDOF 6
ENDMDL
MODEL 5
REMARK VINA RESULT:      -8.3      3.495      7.506
REMARK  6 active torsions:
REMARK  status: ('A' for Active; 'I' for Inactive)
REMARK    1  A    between atoms: C2_2  and  C3_4 
REMARK    2  A    between atoms: C4_5  and  C5_6 
REMARK    3  A    between atoms: C5_6  and  C6_7 
REMARK    4  A    between atoms: C6_7  and  N1_8 
REMARK    5  A    between atoms: N1_8  and  C7_9 
REMARK    6  A    between atoms: C20_27  and  O4_28 
ROOT
HETATM    1  C7  UNL     1      21.874   2.901  50.775  1.00  0.00     0.144 A 
HETATM    2  N2  UNL     1      21.117   3.699  50.006  1.00  0.00    -0.223 NA
HETATM    3  C8  UNL     1      21.773   4.427  49.099  1.00  0.00     0.236 A 
HETATM    4  N3  UNL     1      23.096   4.258  49.084  1.00  0.00    -0.241 NA
HETATM    5  C9  UNL     1      23.840   3.456  49.858  1.00  0.00     0.073 A 
HETATM    6  C10 UNL     1      23.253   2.682  50.806  1.00  0.00     0.075 A 
HETATM    7  C11 UNL     1      23.421   1.766  51.782  1.00  0.00     0.118 A 
HETATM    8  O1  UNL     1      22.452   1.188  52.543  1.00  0.00    -0.345 OA
HETATM    9  C12 UNL     1      22.182  -0.203  52.627  1.00  0.00     0.202 C 
HETATM   10  C13 UNL     1      23.118  -0.581  53.788  1.00  0.00     0.202 C 
HETATM   11  O2  UNL     1      24.282   0.192  53.435  1.00  0.00    -0.346 OA
HETATM   12  C14 UNL     1      24.477   1.087  52.405  1.00  0.00     0.108 A 
HETATM   13  C15 UNL     1      25.840   0.884  52.457  1.00  0.00    -0.013 A 
HETATM   14  C16 UNL     1      27.042   0.184  53.088  1.00  0.00     0.066 C 
HETATM   15  C17 UNL     1      27.914   1.337  53.541  1.00  0.00     0.173 C 
HETATM   16  O3  UNL     1      27.856   2.080  52.358  1.00  0.00    -0.381 OA
HETATM   17  C18 UNL     1      26.898   1.508  51.580  1.00  0.00     0.156 A 
HETATM   18  C19 UNL     1      26.126   2.380  50.776  1.00  0.00     0.072 A 
HETATM   19  C20 UNL     1      26.440   3.266  49.675  1.00  0.00     0.146 A 
HETATM   20  C21 UNL     1      25.058   3.738  49.363  1.00  0.00     0.037 A 
ENDROOT
BRANCH   1  21
HETATM   21  N1  UNL     1      20.802   2.386  51.626  1.00  0.00    -0.350 N 
HETATM   22  H7  UNL     1      21.300   1.655  52.177  1.00  0.00     0.166 HD
BRANCH  21  23
HETATM   23  C6  UNL     1      19.440   2.728  51.770  1.00  0.00     0.090 C 
BRANCH  23  24
HETATM   24  C5  UNL     1      18.575   1.824  51.460  1.00  0.00     0.017 C 
BRANCH  24  25
HETATM   25  C4  UNL     1      17.671   0.761  51.140  1.00  0.00     0.004 C 
HETATM   26  C3  UNL     1      17.165  -0.423  51.380  1.00  0.00     0.032 C 
BRANCH  26  27
HETATM   27  C2  UNL     1      17.679  -1.164  52.517  1.00  0.00     0.037 C 
HETATM   28  C1  UNL     1      17.994  -1.874  53.562  1.00  0.00     0.361 C 
HETATM   29  F1  UNL     1      18.941  -1.080  52.992  1.00  0.00    -0.433 F 
ENDBRANCH  26  27
ENDBRANCH  24  25
ENDBRANCH  23  24
ENDBRANCH  21  23
ENDBRANCH   1  21
BRANCH  19  30
HETATM   30  O4  UNL     1      27.328   4.249  50.016  1.00  0.00    -0.392 OA
HETATM   31  H21 UNL     1      28.093   4.319  49.390  1.00  0.00     0.210 HD
ENDBRANCH  19  30
TORSDOF 6
ENDMDL
MODEL 6
REMARK VINA RESULT:      -8.3      2.104      3.258
REMARK  6 active torsions:
REMARK  status: ('A' for Active; 'I' for Inactive)
REMARK    1  A    between atoms: C2_2  and  C3_4 
REMARK    2  A    between atoms: C4_5  and  C5_6 
REMARK    3  A    between atoms: C5_6  and  C6_7 
REMARK    4  A    between atoms: C6_7  and  N1_8 
REMARK    5  A    between atoms: N1_8  and  C7_9 
REMARK    6  A    between atoms: C20_27  and  O4_28 
ROOT
HETATM    1  C7  UNL     1      23.123  -0.100  53.417  1.00  0.00     0.144 A 
HETATM    2  N2  UNL     1      22.610  -1.150  54.077  1.00  0.00    -0.223 NA
HETATM    3  C8  UNL     1      21.277  -1.223  54.111  1.00  0.00     0.236 A 
HETATM    4  N3  UNL     1      20.639  -0.235  53.481  1.00  0.00    -0.241 NA
HETATM    5  C9  UNL     1      21.165   0.808  52.823  1.00  0.00     0.073 A 
HETATM    6  C10 UNL     1      22.511   0.957  52.741  1.00  0.00     0.075 A 
HETATM    7  C11 UNL     1      23.542   1.692  52.275  1.00  0.00     0.118 A 
HETATM    8  O1  UNL     1      24.870   1.437  52.425  1.00  0.00    -0.345 OA
HETATM    9  C12 UNL     1      25.803   1.243  51.373  1.00  0.00     0.202 C 
HETATM   10  C13 UNL     1      26.255   2.697  51.155  1.00  0.00     0.202 C 
HETATM   11  O2  UNL     1      24.987   3.373  51.254  1.00  0.00    -0.346 OA
HETATM   12  C14 UNL     1      23.735   2.877  51.551  1.00  0.00     0.108 A 
HETATM   13  C15 UNL     1      23.136   3.937  50.902  1.00  0.00    -0.013 A 
HETATM   14  C16 UNL     1      23.267   5.237  50.112  1.00  0.00     0.066 C 
HETATM   15  C17 UNL     1      22.484   6.229  50.947  1.00  0.00     0.173 C 
HETATM   16  O3  UNL     1      21.349   5.437  51.148  1.00  0.00    -0.381 OA
HETATM   17  C18 UNL     1      21.661   4.187  50.713  1.00  0.00     0.156 A 
HETATM   18  C19 UNL     1      21.093   3.105  51.428  1.00  0.00     0.072 A 
HETATM   19  C20 UNL     1      19.736   2.652  51.647  1.00  0.00     0.146 A 
HETATM   20  C21 UNL     1      20.032   1.417  52.432  1.00  0.00     0.037 A 
ENDROOT
BRANCH   1  21
HETATM   21  N1  UNL     1      24.534  -0.374  53.694  1.00  0.00    -0.350 N 
HETATM   22  H7  UNL     1      24.931  -0.434  52.733  1.00  0.00     0.166 HD
BRANCH  21  23
HETATM   23  C6  UNL     1      25.270  -0.511  54.890  1.00  0.00     0.090 C 
BRANCH  23  24
HETATM   24  C5  UNL     1      26.447   0.013  54.914  1.00  0.00     0.017 C 
BRANCH  24  25
HETATM   25  C4  UNL     1      27.786   0.522  54.908  1.00  0.00     0.004 C 
HETATM   26  C3  UNL     1      29.050   0.416  54.582  1.00  0.00     0.032 C 
BRANCH  26  27
HETATM   27  C2  UNL     1      29.465  -0.766  53.850  1.00  0.00     0.037 C 
HETATM   28  C1  UNL     1      29.709  -1.810  53.110  1.00  0.00     0.361 C 
HETATM   29  F1  UNL     1      30.515  -1.553  54.176  1.00  0.00    -0.433 F 
ENDBRANCH  26  27
ENDBRANCH  24  25
ENDBRANCH  23  24
ENDBRANCH  21  23
ENDBRANCH   1  21
BRANCH  19  30
HETATM   30  O4  UNL     1      18.960   3.578  52.290  1.00  0.00    -0.392 OA
HETATM   31  H21 UNL     1      18.071   3.229  52.552  1.00  0.00     0.210 HD
ENDBRANCH  19  30
TORSDOF 6
ENDMDL
MODEL 7
REMARK VINA RESULT:      -8.3      2.835      4.759
REMARK  6 active torsions:
REMARK  status: ('A' for Active; 'I' for Inactive)
REMARK    1  A    between atoms: C2_2  and  C3_4 
REMARK    2  A    between atoms: C4_5  and  C5_6 
REMARK    3  A    between atoms: C5_6  and  C6_7 
REMARK    4  A    between atoms: C6_7  and  N1_8 
REMARK    5  A    between atoms: N1_8  and  C7_9 
REMARK    6  A    between atoms: C20_27  and  O4_28 
ROOT
HETATM    1  C7  UNL     1      24.612   1.904  51.531  1.00  0.00     0.144 A 
HETATM    2  N2  UNL     1      25.762   1.803  52.216  1.00  0.00    -0.223 NA
HETATM    3  C8  UNL     1      25.730   1.019  53.296  1.00  0.00     0.236 A 
HETATM    4  N3  UNL     1      24.553   0.444  53.545  1.00  0.00    -0.241 NA
HETATM    5  C9  UNL     1      23.411   0.553  52.852  1.00  0.00     0.073 A 
HETATM    6  C10 UNL     1      23.357   1.329  51.740  1.00  0.00     0.075 A 
HETATM    7  C11 UNL     1      22.606   1.794  50.720  1.00  0.00     0.118 A 
HETATM    8  O1  UNL     1      23.003   2.622  49.716  1.00  0.00    -0.345 OA
HETATM    9  C12 UNL     1      22.960   2.325  48.329  1.00  0.00     0.202 C 
HETATM   10  C13 UNL     1      21.547   2.837  47.997  1.00  0.00     0.202 C 
HETATM   11  O2  UNL     1      20.827   2.352  49.146  1.00  0.00    -0.346 OA
HETATM   12  C14 UNL     1      21.282   1.696  50.270  1.00  0.00     0.108 A 
HETATM   13  C15 UNL     1      20.033   1.150  50.485  1.00  0.00    -0.013 A 
HETATM   14  C16 UNL     1      18.575   0.997  50.058  1.00  0.00     0.066 C 
HETATM   15  C17 UNL     1      17.807   1.444  51.285  1.00  0.00     0.173 C 
HETATM   16  O3  UNL     1      18.526   0.701  52.226  1.00  0.00    -0.381 OA
HETATM   17  C18 UNL     1      19.618   0.205  51.584  1.00  0.00     0.156 A 
HETATM   18  C19 UNL     1      20.810   0.104  52.341  1.00  0.00     0.072 A 
HETATM   19  C20 UNL     1      21.192  -0.662  53.508  1.00  0.00     0.146 A 
HETATM   20  C21 UNL     1      22.623  -0.242  53.597  1.00  0.00     0.037 A 
ENDROOT
BRANCH   1  21
HETATM   21  N1  UNL     1      25.070   2.871  50.533  1.00  0.00    -0.350 N 
HETATM   22  H7  UNL     1      24.228   3.473  50.419  1.00  0.00     0.166 HD
BRANCH  21  23
HETATM   23  C6  UNL     1      26.299   3.053  49.864  1.00  0.00     0.090 C 
BRANCH  23  24
HETATM   24  C5  UNL     1      26.508   4.206  49.328  1.00  0.00     0.017 C 
BRANCH  24  25
HETATM   25  C4  UNL     1      26.783   5.509  48.803  1.00  0.00     0.004 C 
HETATM   26  C3  UNL     1      27.614   6.392  48.307  1.00  0.00     0.032 C 
BRANCH  26  27
HETATM   27  C2  UNL     1      29.002   6.002  48.144  1.00  0.00     0.037 C 
HETATM   28  C1  UNL     1      30.282   5.802  48.009  1.00  0.00     0.361 C 
HETATM   29  F1  UNL     1      29.428   4.759  47.830  1.00  0.00    -0.433 F 
ENDBRANCH  26  27
ENDBRANCH  24  25
ENDBRANCH  23  24
ENDBRANCH  21  23
ENDBRANCH   1  21
BRANCH  19  30
HETATM   30  O4  UNL     1      20.432  -0.375  54.609  1.00  0.00    -0.392 OA
HETATM   31  H21 UNL     1      19.729   0.301  54.434  1.00  0.00     0.210 HD
ENDBRANCH  19  30
TORSDOF 6
ENDMDL
MODEL 8
REMARK VINA RESULT:      -8.0      3.420      6.715
REMARK  6 active torsions:
REMARK  status: ('A' for Active; 'I' for Inactive)
REMARK    1  A    between atoms: C2_2  and  C3_4 
REMARK    2  A    between atoms: C4_5  and  C5_6 
REMARK    3  A    between atoms: C5_6  and  C6_7 
REMARK    4  A    between atoms: C6_7  and  N1_8 
REMARK    5  A    between atoms: N1_8  and  C7_9 
REMARK    6  A    between atoms: C20_27  and  O4_28 
ROOT
HETATM    1  C7  UNL     1      22.403   0.969  51.574  1.00  0.00     0.144 A 
HETATM    2  N2  UNL     1      21.097   0.660  51.538  1.00  0.00    -0.223 NA
HETATM    3  C8  UNL     1      20.645  -0.081  52.553  1.00  0.00     0.236 A 
HETATM    4  N3  UNL     1      21.560  -0.412  53.465  1.00  0.00    -0.241 NA
HETATM    5  C9  UNL     1      22.862  -0.095  53.489  1.00  0.00     0.073 A 
HETATM    6  C10 UNL     1      23.403   0.655  52.496  1.00  0.00     0.075 A 
HETATM    7  C11 UNL     1      24.508   1.251  52.001  1.00  0.00     0.118 A 
HETATM    8  O1  UNL     1      24.603   1.998  50.868  1.00  0.00    -0.345 OA
HETATM    9  C12 UNL     1      25.027   3.350  50.797  1.00  0.00     0.202 C 
HETATM   10  C13 UNL     1      26.540   3.139  50.612  1.00  0.00     0.202 C 
HETATM   11  O2  UNL     1      26.761   2.069  51.551  1.00  0.00    -0.346 OA
HETATM   12  C14 UNL     1      25.866   1.368  52.330  1.00  0.00     0.108 A 
HETATM   13  C15 UNL     1      26.863   1.041  53.224  1.00  0.00    -0.013 A 
HETATM   14  C16 UNL     1      28.329   1.122  53.645  1.00  0.00     0.066 C 
HETATM   15  C17 UNL     1      28.738  -0.333  53.751  1.00  0.00     0.173 C 
HETATM   16  O3  UNL     1      27.638  -0.774  54.492  1.00  0.00    -0.381 OA
HETATM   17  C18 UNL     1      26.733   0.241  54.497  1.00  0.00     0.156 A 
HETATM   18  C19 UNL     1      25.366  -0.123  54.468  1.00  0.00     0.072 A 
HETATM   19  C20 UNL     1      24.504  -0.847  55.378  1.00  0.00     0.146 A 
HETATM   20  C21 UNL     1      23.219  -0.711  54.630  1.00  0.00     0.037 A 
ENDROOT
BRANCH   1  21
HETATM   21  N1  UNL     1      22.464   1.680  50.296  1.00  0.00    -0.350 N 
HETATM   22  H7  UNL     1      23.463   1.553  50.030  1.00  0.00     0.166 HD
BRANCH  21  23
HETATM   23  C6  UNL     1      21.496   2.360  49.527  1.00  0.00     0.090 C 
BRANCH  23  24
HETATM   24  C5  UNL     1      21.905   3.360  48.825  1.00  0.00     0.017 C 
BRANCH  24  25
HETATM   25  C4  UNL     1      22.312   4.522  48.094  1.00  0.00     0.004 C 
HETATM   26  C3  UNL     1      22.401   5.199  46.976  1.00  0.00     0.032 C 
BRANCH  26  27
HETATM   27  C2  UNL     1      21.853   4.600  45.773  1.00  0.00     0.037 C 
HETATM   28  C1  UNL     1      21.285   4.195  44.673  1.00  0.00     0.361 C 
HETATM   29  F1  UNL     1      22.005   3.307  45.411  1.00  0.00    -0.433 F 
ENDBRANCH  26  27
ENDBRANCH  24  25
ENDBRANCH  23  24
ENDBRANCH  21  23
ENDBRANCH   1  21
BRANCH  19  30
HETATM   30  O4  UNL     1      24.917  -2.133  55.598  1.00  0.00    -0.392 OA
HETATM   31  H21 UNL     1      24.591  -2.771  54.914  1.00  0.00     0.210 HD
ENDBRANCH  19  30
TORSDOF 6
ENDMDL
MODEL 9
REMARK VINA RESULT:      -8.0      2.386      4.465
REMARK  6 active torsions:
REMARK  status: ('A' for Active; 'I' for Inactive)
REMARK    1  A    between atoms: C2_2  and  C3_4 
REMARK    2  A    between atoms: C4_5  and  C5_6 
REMARK    3  A    between atoms: C5_6  and  C6_7 
REMARK    4  A    between atoms: C6_7  and  N1_8 
REMARK    5  A    between atoms: N1_8  and  C7_9 
REMARK    6  A    between atoms: C20_27  and  O4_28 
ROOT
HETATM    1  C7  UNL     1      24.115   3.205  51.248  1.00  0.00     0.144 A 
HETATM    2  N2  UNL     1      24.856   4.252  50.852  1.00  0.00    -0.223 NA
HETATM    3  C8  UNL     1      24.177   5.337  50.473  1.00  0.00     0.236 A 
HETATM    4  N3  UNL     1      22.849   5.228  50.542  1.00  0.00    -0.241 NA
HETATM    5  C9  UNL     1      22.121   4.175  50.941  1.00  0.00     0.073 A 
HETATM    6  C10 UNL     1      22.733   3.032  51.342  1.00  0.00     0.075 A 
HETATM    7  C11 UNL     1      22.588   1.775  51.811  1.00  0.00     0.118 A 
HETATM    8  O1  UNL     1      23.576   0.896  52.128  1.00  0.00    -0.345 OA
HETATM    9  C12 UNL     1      23.784   0.304  53.402  1.00  0.00     0.202 C 
HETATM   10  C13 UNL     1      22.911  -0.954  53.250  1.00  0.00     0.202 C 
HETATM   11  O2  UNL     1      21.766  -0.387  52.586  1.00  0.00    -0.346 OA
HETATM   12  C14 UNL     1      21.544   0.896  52.131  1.00  0.00     0.108 A 
HETATM   13  C15 UNL     1      20.179   0.711  52.204  1.00  0.00    -0.013 A 
HETATM   14  C16 UNL     1      18.991  -0.191  52.530  1.00  0.00     0.066 C 
HETATM   15  C17 UNL     1      18.208  -0.212  51.233  1.00  0.00     0.173 C 
HETATM   16  O3  UNL     1      18.221   1.165  50.995  1.00  0.00    -0.381 OA
HETATM   17  C18 UNL     1      19.096   1.710  51.882  1.00  0.00     0.156 A 
HETATM   18  C19 UNL     1      19.853   2.818  51.432  1.00  0.00     0.072 A 
HETATM   19  C20 UNL     1      19.509   4.157  51.004  1.00  0.00     0.146 A 
HETATM   20  C21 UNL     1      20.887   4.686  50.781  1.00  0.00     0.037 A 
ENDROOT
BRANCH   1  21
HETATM   21  N1  UNL     1      25.217   2.271  51.480  1.00  0.00    -0.350 N 
HETATM   22  H7  UNL     1      24.716   1.443  51.866  1.00  0.00     0.166 HD
BRANCH  21  23
HETATM   23  C6  UNL     1      26.608   2.348  51.254  1.00  0.00     0.090 C 
BRANCH  23  24
HETATM   24  C5  UNL     1      27.373   2.261  52.287  1.00  0.00     0.017 C 
BRANCH  24  25
HETATM   25  C4  UNL     1      28.249   2.244  53.420  1.00  0.00     0.004 C 
HETATM   26  C3  UNL     1      29.099   1.625  54.201  1.00  0.00     0.032 C 
BRANCH  26  27
HETATM   27  C2  UNL     1      29.421   0.243  53.895  1.00  0.00     0.037 C 
HETATM   28  C1  UNL     1      29.857  -0.950  53.608  1.00  0.00     0.361 C 
HETATM   29  F1  UNL     1      28.515  -0.737  53.684  1.00  0.00    -0.433 F 
ENDBRANCH  26  27
ENDBRANCH  24  25
ENDBRANCH  23  24
ENDBRANCH  21  23
ENDBRANCH   1  21
BRANCH  19  30
HETATM   30  O4  UNL     1      18.694   4.175  49.905  1.00  0.00    -0.392 OA
HETATM   31  H21 UNL     1      19.091   3.725  49.116  1.00  0.00     0.210 HD
ENDBRANCH  19  30
TORSDOF 6
ENDMDL
