MODEL 1
REMARK VINA RESULT:      -7.9      0.000      0.000
REMARK  8 active torsions:
REMARK  status: ('A' for Active; 'I' for Inactive)
REMARK    1  A    between atoms: N1_1  and  C1_2 
REMARK    2  A    between atoms: C1_2  and  C2_3 
REMARK    3  A    between atoms: C2_3  and  C3_4 
REMARK    4  A    between atoms: C3_4  and  N2_5 
REMARK       I    between atoms: N2_5  and  C4_6 
REMARK    5  A    between atoms: C4_6  and  C5_8 
REMARK    6  A    between atoms: C7_10  and  C8_11 
REMARK    7  A    between atoms: C11_15  and  C12_16 
REMARK    8  A    between atoms: C18_24  and  N6_25 
ROOT
HETATM    1  C5  UNL     1      24.879   1.248  53.795  1.00  0.00     0.145 A 
HETATM    2  C6  UNL     1      25.093   2.421  52.924  1.00  0.00     0.008 A 
HETATM    3  C7  UNL     1      24.318   2.335  51.856  1.00  0.00     0.011 A 
HETATM    4  C17 UNL     1      23.518   1.116  51.902  1.00  0.00     0.035 A 
HETATM    5  C18 UNL     1      23.844   0.490  53.023  1.00  0.00     0.001 A 
ENDROOT
BRANCH   3   6
HETATM    6  C8  UNL     1      24.258   3.312  50.776  1.00  0.00     0.159 A 
HETATM    7  N3  UNL     1      23.063   3.577  50.172  1.00  0.00    -0.241 NA
HETATM    8  C9  UNL     1      22.987   4.482  49.167  1.00  0.00     0.121 A 
HETATM    9  C10 UNL     1      24.129   5.135  48.758  1.00  0.00     0.052 A 
HETATM   10  C11 UNL     1      25.330   4.875  49.358  1.00  0.00     0.072 A 
HETATM   11  N5  UNL     1      25.335   3.965  50.348  1.00  0.00    -0.228 NA
BRANCH  10  12
HETATM   12  C12 UNL     1      26.565   5.539  48.961  1.00  0.00     0.010 A 
HETATM   13  C13 UNL     1      27.719   4.888  48.601  1.00  0.00     0.017 A 
HETATM   14  C14 UNL     1      28.866   5.541  48.231  1.00  0.00     0.020 A 
HETATM   15  C15 UNL     1      28.866   6.930  48.218  1.00  0.00     0.116 A 
HETATM   16  N4  UNL     1      27.739   7.591  48.569  1.00  0.00    -0.272 NA
HETATM   17  C16 UNL     1      26.616   6.917  48.932  1.00  0.00     0.130 A 
ENDBRANCH  10  12
ENDBRANCH   3   6
BRANCH   1  18
HETATM   18  C4  UNL     1      26.063   0.400  53.986  1.00  0.00     0.230 C 
HETATM   19  N2  UNL     1      27.190   0.886  54.713  1.00  0.00    -0.360 N 
HETATM   20  H9  UNL     1      27.111   1.871  55.092  1.00  0.00     0.162 HD
HETATM   21  O1  UNL     1      26.119  -0.748  53.528  1.00  0.00    -0.272 OA
BRANCH  19  22
HETATM   22  C3  UNL     1      28.358   0.067  54.910  1.00  0.00     0.124 C 
BRANCH  22  23
HETATM   23  C2  UNL     1      29.404   0.214  53.871  1.00  0.00     0.049 C 
BRANCH  23  24
HETATM   24  C1  UNL     1      29.895  -1.145  53.423  1.00  0.00     0.268 C 
BRANCH  24  25
HETATM   25  N1  UNL     1      28.800  -2.093  53.353  1.00  0.00     0.078 N 
HETATM   26  H1  UNL     1      28.987  -2.787  52.611  1.00  0.00     0.312 HD
HETATM   27  H2  UNL     1      28.615  -2.468  54.294  1.00  0.00     0.312 HD
ENDBRANCH  24  25
ENDBRANCH  23  24
ENDBRANCH  22  23
ENDBRANCH  19  22
ENDBRANCH   1  18
BRANCH   5  28
HETATM   28  N6  UNL     1      23.341  -0.748  53.531  1.00  0.00    -0.305 NA
HETATM   29  H19 UNL     1      22.509  -1.024  54.114  1.00  0.00     0.124 HD
HETATM   30  H20 UNL     1      22.470  -0.895  54.122  1.00  0.00     0.124 HD
ENDBRANCH   5  28
TORSDOF 8
ENDMDL
MODEL 2
REMARK VINA RESULT:      -7.8      1.663      3.695
REMARK  8 active torsions:
REMARK  status: ('A' for Active; 'I' for Inactive)
REMARK    1  A    between atoms: N1_1  and  C1_2 
REMARK    2  A    between atoms: C1_2  and  C2_3 
REMARK    3  A    between atoms: C2_3  and  C3_4 
REMARK    4  A    between atoms: C3_4  and  N2_5 
REMARK       I    between atoms: N2_5  and  C4_6 
REMARK    5  A    between atoms: C4_6  and  C5_8 
REMARK    6  A    between atoms: C7_10  and  C8_11 
REMARK    7  A    between atoms: C11_15  and  C12_16 
REMARK    8  A    between atoms: C18_24  and  N6_25 
ROOT
HETATM    1  C5  UNL     1      26.219  -0.111  53.231  1.00  0.00     0.145 A 
HETATM    2  C6  UNL     1      25.569   0.540  52.076  1.00  0.00     0.008 A 
HETATM    3  C7  UNL     1      25.956   1.801  51.996  1.00  0.00     0.011 A 
HETATM    4  C17 UNL     1      26.890   2.120  53.070  1.00  0.00     0.035 A 
HETATM    5  C18 UNL     1      27.039   1.013  53.782  1.00  0.00     0.001 A 
ENDROOT
BRANCH   3   6
HETATM    6  C8  UNL     1      25.522   2.754  50.981  1.00  0.00     0.159 A 
HETATM    7  N3  UNL     1      24.213   2.778  50.593  1.00  0.00    -0.241 NA
HETATM    8  C9  UNL     1      23.791   3.657  49.653  1.00  0.00     0.121 A 
HETATM    9  C10 UNL     1      24.696   4.530  49.089  1.00  0.00     0.052 A 
HETATM   10  C11 UNL     1      26.008   4.512  49.473  1.00  0.00     0.072 A 
HETATM   11  N5  UNL     1      26.360   3.615  50.410  1.00  0.00    -0.228 NA
BRANCH  10  12
HETATM   12  C12 UNL     1      27.002   5.416  48.906  1.00  0.00     0.010 A 
HETATM   13  C13 UNL     1      28.254   5.034  48.491  1.00  0.00     0.017 A 
HETATM   14  C14 UNL     1      29.168   5.908  47.962  1.00  0.00     0.020 A 
HETATM   15  C15 UNL     1      28.815   7.245  47.836  1.00  0.00     0.116 A 
HETATM   16  N4  UNL     1      27.586   7.641  48.238  1.00  0.00    -0.272 NA
HETATM   17  C16 UNL     1      26.699   6.753  48.761  1.00  0.00     0.130 A 
ENDBRANCH  10  12
ENDBRANCH   3   6
BRANCH   1  18
HETATM   18  C4  UNL     1      25.294  -0.593  54.266  1.00  0.00     0.230 C 
HETATM   19  N2  UNL     1      23.889  -0.622  54.023  1.00  0.00    -0.360 N 
HETATM   20  H9  UNL     1      23.574  -0.281  53.071  1.00  0.00     0.162 HD
HETATM   21  O1  UNL     1      25.700  -0.984  55.367  1.00  0.00    -0.272 OA
BRANCH  19  22
HETATM   22  C3  UNL     1      22.969  -1.091  55.026  1.00  0.00     0.124 C 
BRANCH  22  23
HETATM   23  C2  UNL     1      21.803  -1.838  54.501  1.00  0.00     0.049 C 
BRANCH  23  24
HETATM   24  C1  UNL     1      20.712  -0.881  54.076  1.00  0.00     0.268 C 
BRANCH  24  25
HETATM   25  N1  UNL     1      20.662   0.270  54.958  1.00  0.00     0.078 N 
HETATM   26  H1  UNL     1      19.724   0.341  55.384  1.00  0.00     0.312 HD
HETATM   27  H2  UNL     1      21.459   0.232  55.609  1.00  0.00     0.312 HD
ENDBRANCH  24  25
ENDBRANCH  23  24
ENDBRANCH  22  23
ENDBRANCH  19  22
ENDBRANCH   1  18
BRANCH   5  28
HETATM   28  N6  UNL     1      27.850   0.802  54.941  1.00  0.00    -0.305 NA
HETATM   29  H19 UNL     1      28.855   0.530  55.101  1.00  0.00     0.124 HD
HETATM   30  H20 UNL     1      28.875   0.522  54.968  1.00  0.00     0.124 HD
ENDBRANCH   5  28
TORSDOF 8
ENDMDL
MODEL 3
REMARK VINA RESULT:      -7.8      3.118      7.247
REMARK  8 active torsions:
REMARK  status: ('A' for Active; 'I' for Inactive)
REMARK    1  A    between atoms: N1_1  and  C1_2 
REMARK    2  A    between atoms: C1_2  and  C2_3 
REMARK    3  A    between atoms: C2_3  and  C3_4 
REMARK    4  A    between atoms: C3_4  and  N2_5 
REMARK       I    between atoms: N2_5  and  C4_6 
REMARK    5  A    between atoms: C4_6  and  C5_8 
REMARK    6  A    between atoms: C7_10  and  C8_11 
REMARK    7  A    between atoms: C11_15  and  C12_16 
REMARK    8  A    between atoms: C18_24  and  N6_25 
ROOT
HETATM    1  C5  UNL     1      28.022   6.128  47.987  1.00  0.00     0.145 A 
HETATM    2  C6  UNL     1      27.754   4.826  48.628  1.00  0.00     0.008 A 
HETATM    3  C7  UNL     1      26.655   4.903  49.358  1.00  0.00     0.011 A 
HETATM    4  C17 UNL     1      26.083   6.243  49.282  1.00  0.00     0.035 A 
HETATM    5  C18 UNL     1      26.875   6.949  48.489  1.00  0.00     0.001 A 
ENDROOT
BRANCH   3   6
HETATM    6  C8  UNL     1      26.079   3.812  50.136  1.00  0.00     0.159 A 
HETATM    7  N3  UNL     1      24.732   3.593  50.098  1.00  0.00    -0.241 NA
HETATM    8  C9  UNL     1      24.180   2.584  50.813  1.00  0.00     0.121 A 
HETATM    9  C10 UNL     1      24.991   1.778  51.582  1.00  0.00     0.052 A 
HETATM   10  C11 UNL     1      26.341   1.991  51.625  1.00  0.00     0.072 A 
HETATM   11  N5  UNL     1      26.824   3.009  50.892  1.00  0.00    -0.228 NA
BRANCH  10  12
HETATM   12  C12 UNL     1      27.240   1.166  52.423  1.00  0.00     0.010 A 
HETATM   13  C13 UNL     1      27.190  -0.205  52.484  1.00  0.00     0.017 A 
HETATM   14  C14 UNL     1      28.050  -0.954  53.244  1.00  0.00     0.020 A 
HETATM   15  C15 UNL     1      29.020  -0.300  53.992  1.00  0.00     0.116 A 
HETATM   16  N4  UNL     1      29.086   1.051  53.946  1.00  0.00    -0.272 NA
HETATM   17  C16 UNL     1      28.220   1.769  53.183  1.00  0.00     0.130 A 
ENDBRANCH  10  12
ENDBRANCH   3   6
BRANCH   1  18
HETATM   18  C4  UNL     1      29.286   6.761  48.387  1.00  0.00     0.230 C 
HETATM   19  N2  UNL     1      30.278   6.015  49.089  1.00  0.00    -0.360 N 
HETATM   20  H9  UNL     1      30.041   5.004  49.294  1.00  0.00     0.162 HD
HETATM   21  O1  UNL     1      29.527   7.948  48.129  1.00  0.00    -0.272 OA
BRANCH  19  22
HETATM   22  C3  UNL     1      31.522   6.621  49.488  1.00  0.00     0.124 C 
BRANCH  22  23
HETATM   23  C2  UNL     1      32.736   5.890  49.058  1.00  0.00     0.049 C 
BRANCH  23  24
HETATM   24  C1  UNL     1      32.390   4.878  47.990  1.00  0.00     0.268 C 
BRANCH  24  25
HETATM   25  N1  UNL     1      32.967   3.583  48.298  1.00  0.00     0.078 N 
HETATM   26  H1  UNL     1      33.498   3.640  49.183  1.00  0.00     0.312 HD
HETATM   27  H2  UNL     1      32.231   2.864  48.252  1.00  0.00     0.312 HD
ENDBRANCH  24  25
ENDBRANCH  23  24
ENDBRANCH  22  23
ENDBRANCH  19  22
ENDBRANCH   1  18
BRANCH   5  28
HETATM   28  N6  UNL     1      26.751   8.317  48.094  1.00  0.00    -0.305 NA
HETATM   29  H19 UNL     1      26.607   9.225  48.608  1.00  0.00     0.124 HD
HETATM   30  H20 UNL     1      26.605   9.159  48.726  1.00  0.00     0.124 HD
ENDBRANCH   5  28
TORSDOF 8
ENDMDL
MODEL 4
REMARK VINA RESULT:      -7.7      3.983      6.758
REMARK  8 active torsions:
REMARK  status: ('A' for Active; 'I' for Inactive)
REMARK    1  A    between atoms: N1_1  and  C1_2 
REMARK    2  A    between atoms: C1_2  and  C2_3 
REMARK    3  A    between atoms: C2_3  and  C3_4 
REMARK    4  A    between atoms: C3_4  and  N2_5 
REMARK       I    between atoms: N2_5  and  C4_6 
REMARK    5  A    between atoms: C4_6  and  C5_8 
REMARK    6  A    between atoms: C7_10  and  C8_11 
REMARK    7  A    between atoms: C11_15  and  C12_16 
REMARK    8  A    between atoms: C18_24  and  N6_25 
ROOT
HETATM    1  C5  UNL     1      25.675   1.262  53.902  1.00  0.00     0.145 A 
HETATM    2  C6  UNL     1      24.699   1.726  52.896  1.00  0.00     0.008 A 
HETATM    3  C7  UNL     1      23.772   0.803  52.712  1.00  0.00     0.011 A 
HETATM    4  C17 UNL     1      24.027  -0.356  53.562  1.00  0.00     0.035 A 
HETATM    5  C18 UNL     1      25.127  -0.087  54.248  1.00  0.00     0.001 A 
ENDROOT
BRANCH   3   6
HETATM    6  C8  UNL     1      22.645   0.910  51.793  1.00  0.00     0.159 A 
HETATM    7  N3  UNL     1      22.814   1.524  50.586  1.00  0.00    -0.241 NA
HETATM    8  C9  UNL     1      21.779   1.632  49.719  1.00  0.00     0.121 A 
HETATM    9  C10 UNL     1      20.550   1.116  50.067  1.00  0.00     0.052 A 
HETATM   10  C11 UNL     1      20.372   0.499  51.274  1.00  0.00     0.072 A 
HETATM   11  N5  UNL     1      21.441   0.426  52.087  1.00  0.00    -0.228 NA
BRANCH  10  12
HETATM   12  C12 UNL     1      19.091  -0.062  51.687  1.00  0.00     0.010 A 
HETATM   13  C13 UNL     1      18.868  -0.693  52.886  1.00  0.00     0.017 A 
HETATM   14  C14 UNL     1      17.651  -1.211  53.245  1.00  0.00     0.020 A 
HETATM   15  C15 UNL     1      16.589  -1.094  52.358  1.00  0.00     0.116 A 
HETATM   16  N4  UNL     1      16.789  -0.476  51.171  1.00  0.00    -0.272 NA
HETATM   17  C16 UNL     1      18.007   0.029  50.840  1.00  0.00     0.130 A 
ENDBRANCH  10  12
ENDBRANCH   3   6
BRANCH   1  18
HETATM   18  C4  UNL     1      27.050   1.117  53.404  1.00  0.00     0.230 C 
HETATM   19  N2  UNL     1      28.065   0.560  54.237  1.00  0.00    -0.360 N 
HETATM   20  H9  UNL     1      27.763   0.270  55.209  1.00  0.00     0.162 HD
HETATM   21  O1  UNL     1      27.366   1.468  52.260  1.00  0.00    -0.272 OA
BRANCH  19  22
HETATM   22  C3  UNL     1      29.417   0.410  53.763  1.00  0.00     0.124 C 
BRANCH  22  23
HETATM   23  C2  UNL     1      29.803  -0.975  53.410  1.00  0.00     0.049 C 
BRANCH  23  24
HETATM   24  C1  UNL     1      28.577  -1.793  53.072  1.00  0.00     0.268 C 
BRANCH  24  25
HETATM   25  N1  UNL     1      28.818  -3.205  53.301  1.00  0.00     0.078 N 
HETATM   26  H1  UNL     1      28.137  -3.568  53.987  1.00  0.00     0.312 HD
HETATM   27  H2  UNL     1      28.859  -3.693  52.395  1.00  0.00     0.312 HD
ENDBRANCH  24  25
ENDBRANCH  23  24
ENDBRANCH  22  23
ENDBRANCH  19  22
ENDBRANCH   1  18
BRANCH   5  28
HETATM   28  N6  UNL     1      25.793  -0.900  55.217  1.00  0.00    -0.305 NA
HETATM   29  H19 UNL     1      25.692  -1.046  56.255  1.00  0.00     0.124 HD
HETATM   30  H20 UNL     1      25.592  -0.956  56.259  1.00  0.00     0.124 HD
ENDBRANCH   5  28
TORSDOF 8
ENDMDL
MODEL 5
REMARK VINA RESULT:      -7.6      2.321      7.664
REMARK  8 active torsions:
REMARK  status: ('A' for Active; 'I' for Inactive)
REMARK    1  A    between atoms: N1_1  and  C1_2 
REMARK    2  A    between atoms: C1_2  and  C2_3 
REMARK    3  A    between atoms: C2_3  and  C3_4 
REMARK    4  A    between atoms: C3_4  and  N2_5 
REMARK       I    between atoms: N2_5  and  C4_6 
REMARK    5  A    between atoms: C4_6  and  C5_8 
REMARK    6  A    between atoms: C7_10  and  C8_11 
REMARK    7  A    between atoms: C11_15  and  C12_16 
REMARK    8  A    between atoms: C18_24  and  N6_25 
ROOT
HETATM    1  C5  UNL     1      26.701   5.107  48.586  1.00  0.00     0.145 A 
HETATM    2  C6  UNL     1      26.684   3.789  49.252  1.00  0.00     0.008 A 
HETATM    3  C7  UNL     1      25.877   3.825  50.298  1.00  0.00     0.011 A 
HETATM    4  C17 UNL     1      25.280   5.149  50.439  1.00  0.00     0.035 A 
HETATM    5  C18 UNL     1      25.758   5.888  49.449  1.00  0.00     0.001 A 
ENDROOT
BRANCH   3   6
HETATM    6  C8  UNL     1      25.608   2.708  51.196  1.00  0.00     0.159 A 
HETATM    7  N3  UNL     1      24.335   2.486  51.635  1.00  0.00    -0.241 NA
HETATM    8  C9  UNL     1      24.066   1.453  52.469  1.00  0.00     0.121 A 
HETATM    9  C10 UNL     1      25.091   0.626  52.872  1.00  0.00     0.052 A 
HETATM   10  C11 UNL     1      26.369   0.842  52.436  1.00  0.00     0.072 A 
HETATM   11  N5  UNL     1      26.567   1.884  51.611  1.00  0.00    -0.228 NA
BRANCH  10  12
HETATM   12  C12 UNL     1      27.487  -0.006  52.835  1.00  0.00     0.010 A 
HETATM   13  C13 UNL     1      28.709   0.462  53.252  1.00  0.00     0.017 A 
HETATM   14  C14 UNL     1      29.741  -0.361  53.620  1.00  0.00     0.020 A 
HETATM   15  C15 UNL     1      29.546  -1.736  53.572  1.00  0.00     0.116 A 
HETATM   16  N4  UNL     1      28.350  -2.216  53.165  1.00  0.00    -0.272 NA
HETATM   17  C16 UNL     1      27.343  -1.377  52.804  1.00  0.00     0.130 A 
ENDBRANCH  10  12
ENDBRANCH   3   6
BRANCH   1  18
HETATM   18  C4  UNL     1      28.011   5.771  48.572  1.00  0.00     0.230 C 
HETATM   19  N2  UNL     1      28.119   7.149  48.221  1.00  0.00    -0.360 N 
HETATM   20  H9  UNL     1      27.213   7.641  47.979  1.00  0.00     0.162 HD
HETATM   21  O1  UNL     1      29.050   5.163  48.862  1.00  0.00    -0.272 OA
BRANCH  19  22
HETATM   22  C3  UNL     1      29.396   7.815  48.202  1.00  0.00     0.124 C 
BRANCH  22  23
HETATM   23  C2  UNL     1      29.564   8.868  49.230  1.00  0.00     0.049 C 
BRANCH  23  24
HETATM   24  C1  UNL     1      28.254   9.586  49.468  1.00  0.00     0.268 C 
BRANCH  24  25
HETATM   25  N1  UNL     1      27.722   9.270  50.779  1.00  0.00     0.078 N 
HETATM   26  H1  UNL     1      26.693   9.355  50.768  1.00  0.00     0.312 HD
HETATM   27  H2  UNL     1      28.102   8.364  51.090  1.00  0.00     0.312 HD
ENDBRANCH  24  25
ENDBRANCH  23  24
ENDBRANCH  22  23
ENDBRANCH  19  22
ENDBRANCH   1  18
BRANCH   5  28
HETATM   28  N6  UNL     1      25.482   7.256  49.144  1.00  0.00    -0.305 NA
HETATM   29  H19 UNL     1      24.688   7.763  48.671  1.00  0.00     0.124 HD
HETATM   30  H20 UNL     1      24.624   7.646  48.651  1.00  0.00     0.124 HD
ENDBRANCH   5  28
TORSDOF 8
ENDMDL
MODEL 6
REMARK VINA RESULT:      -7.5      2.435      7.486
REMARK  8 active torsions:
REMARK  status: ('A' for Active; 'I' for Inactive)
REMARK    1  A    between atoms: N1_1  and  C1_2 
REMARK    2  A    between atoms: C1_2  and  C2_3 
REMARK    3  A    between atoms: C2_3  and  C3_4 
REMARK    4  A    between atoms: C3_4  and  N2_5 
REMARK       I    between atoms: N2_5  and  C4_6 
REMARK    5  A    between atoms: C4_6  and  C5_8 
REMARK    6  A    between atoms: C7_10  and  C8_11 
REMARK    7  A    between atoms: C11_15  and  C12_16 
REMARK    8  A    between atoms: C18_24  and  N6_25 
ROOT
HETATM    1  C5  UNL     1      25.455   5.024  49.267  1.00  0.00     0.145 A 
HETATM    2  C6  UNL     1      25.769   3.984  50.267  1.00  0.00     0.008 A 
HETATM    3  C7  UNL     1      24.709   3.219  50.466  1.00  0.00     0.011 A 
HETATM    4  C17 UNL     1      23.596   3.659  49.632  1.00  0.00     0.035 A 
HETATM    5  C18 UNL     1      24.030   4.703  48.941  1.00  0.00     0.001 A 
ENDROOT
BRANCH   3   6
HETATM    6  C8  UNL     1      24.645   2.088  51.384  1.00  0.00     0.159 A 
HETATM    7  N3  UNL     1      23.449   1.736  51.939  1.00  0.00    -0.241 NA
HETATM    8  C9  UNL     1      23.369   0.688  52.794  1.00  0.00     0.121 A 
HETATM    9  C10 UNL     1      24.510  -0.022  53.099  1.00  0.00     0.052 A 
HETATM   10  C11 UNL     1      25.712   0.324  52.546  1.00  0.00     0.072 A 
HETATM   11  N5  UNL     1      25.720   1.374  51.707  1.00  0.00    -0.228 NA
BRANCH  10  12
HETATM   12  C12 UNL     1      26.945  -0.397  52.839  1.00  0.00     0.010 A 
HETATM   13  C13 UNL     1      28.119   0.196  53.233  1.00  0.00     0.017 A 
HETATM   14  C14 UNL     1      29.263  -0.510  53.501  1.00  0.00     0.020 A 
HETATM   15  C15 UNL     1      29.239  -1.892  53.369  1.00  0.00     0.116 A 
HETATM   16  N4  UNL     1      28.092  -2.496  52.981  1.00  0.00    -0.272 NA
HETATM   17  C16 UNL     1      26.972  -1.771  52.722  1.00  0.00     0.130 A 
ENDBRANCH  10  12
ENDBRANCH   3   6
BRANCH   1  18
HETATM   18  C4  UNL     1      25.542   6.403  49.766  1.00  0.00     0.230 C 
HETATM   19  N2  UNL     1      26.774   7.118  49.701  1.00  0.00    -0.360 N 
HETATM   20  H9  UNL     1      27.594   6.597  49.280  1.00  0.00     0.162 HD
HETATM   21  O1  UNL     1      24.561   6.980  50.252  1.00  0.00    -0.272 OA
BRANCH  19  22
HETATM   22  C3  UNL     1      26.876   8.471  50.185  1.00  0.00     0.124 C 
BRANCH  22  23
HETATM   23  C2  UNL     1      27.789   9.343  49.410  1.00  0.00     0.049 C 
BRANCH  23  24
HETATM   24  C1  UNL     1      28.934   8.534  48.843  1.00  0.00     0.268 C 
BRANCH  24  25
HETATM   25  N1  UNL     1      30.147   8.750  49.608  1.00  0.00     0.078 N 
HETATM   26  H1  UNL     1      30.704   7.880  49.631  1.00  0.00     0.312 HD
HETATM   27  H2  UNL     1      30.627   9.590  49.253  1.00  0.00     0.312 HD
ENDBRANCH  24  25
ENDBRANCH  23  24
ENDBRANCH  22  23
ENDBRANCH  19  22
ENDBRANCH   1  18
BRANCH   5  28
HETATM   28  N6  UNL     1      23.323   5.494  47.983  1.00  0.00    -0.305 NA
HETATM   29  H19 UNL     1      22.674   5.279  47.181  1.00  0.00     0.124 HD
HETATM   30  H20 UNL     1      22.686   5.147  47.205  1.00  0.00     0.124 HD
ENDBRANCH   5  28
TORSDOF 8
ENDMDL
MODEL 7
REMARK VINA RESULT:      -7.5      2.782      7.279
REMARK  8 active torsions:
REMARK  status: ('A' for Active; 'I' for Inactive)
REMARK    1  A    between atoms: N1_1  and  C1_2 
REMARK    2  A    between atoms: C1_2  and  C2_3 
REMARK    3  A    between atoms: C2_3  and  C3_4 
REMARK    4  A    between atoms: C3_4  and  N2_5 
REMARK       I    between atoms: N2_5  and  C4_6 
REMARK    5  A    between atoms: C4_6  and  C5_8 
REMARK    6  A    between atoms: C7_10  and  C8_11 
REMARK    7  A    between atoms: C11_15  and  C12_16 
REMARK    8  A    between atoms: C18_24  and  N6_25 
ROOT
HETATM    1  C5  UNL     1      27.365   6.054  48.163  1.00  0.00     0.145 A 
HETATM    2  C6  UNL     1      27.336   4.815  48.966  1.00  0.00     0.008 A 
HETATM    3  C7  UNL     1      26.125   4.628  49.459  1.00  0.00     0.011 A 
HETATM    4  C17 UNL     1      25.231   5.705  49.045  1.00  0.00     0.035 A 
HETATM    5  C18 UNL     1      25.950   6.527  48.297  1.00  0.00     0.001 A 
ENDROOT
BRANCH   3   6
HETATM    6  C8  UNL     1      25.720   3.509  50.301  1.00  0.00     0.159 A 
HETATM    7  N3  UNL     1      24.416   3.102  50.303  1.00  0.00    -0.241 NA
HETATM    8  C9  UNL     1      24.021   2.063  51.078  1.00  0.00     0.121 A 
HETATM    9  C10 UNL     1      24.949   1.419  51.866  1.00  0.00     0.052 A 
HETATM   10  C11 UNL     1      26.257   1.819  51.869  1.00  0.00     0.072 A 
HETATM   11  N5  UNL     1      26.580   2.856  51.078  1.00  0.00    -0.228 NA
BRANCH  10  12
HETATM   12  C12 UNL     1      27.274   1.168  52.686  1.00  0.00     0.010 A 
HETATM   13  C13 UNL     1      28.280   1.827  53.348  1.00  0.00     0.017 A 
HETATM   14  C14 UNL     1      29.223   1.187  54.110  1.00  0.00     0.020 A 
HETATM   15  C15 UNL     1      29.161  -0.196  54.221  1.00  0.00     0.116 A 
HETATM   16  N4  UNL     1      28.178  -0.864  53.576  1.00  0.00    -0.272 NA
HETATM   17  C16 UNL     1      27.256  -0.203  52.827  1.00  0.00     0.130 A 
ENDBRANCH  10  12
ENDBRANCH   3   6
BRANCH   1  18
HETATM   18  C4  UNL     1      28.275   7.092  48.666  1.00  0.00     0.230 C 
HETATM   19  N2  UNL     1      29.687   6.930  48.556  1.00  0.00    -0.360 N 
HETATM   20  H9  UNL     1      30.019   6.034  48.099  1.00  0.00     0.162 HD
HETATM   21  O1  UNL     1      27.849   8.127  49.195  1.00  0.00    -0.272 OA
BRANCH  19  22
HETATM   22  C3  UNL     1      30.593   7.937  49.044  1.00  0.00     0.124 C 
BRANCH  22  23
HETATM   23  C2  UNL     1      31.990   7.482  49.229  1.00  0.00     0.049 C 
BRANCH  23  24
HETATM   24  C1  UNL     1      32.024   6.003  49.542  1.00  0.00     0.268 C 
BRANCH  24  25
HETATM   25  N1  UNL     1      31.626   5.755  50.914  1.00  0.00     0.078 N 
HETATM   26  H1  UNL     1      31.274   4.788  51.006  1.00  0.00     0.312 HD
HETATM   27  H2  UNL     1      32.396   6.023  51.544  1.00  0.00     0.312 HD
ENDBRANCH  24  25
ENDBRANCH  23  24
ENDBRANCH  22  23
ENDBRANCH  19  22
ENDBRANCH   1  18
BRANCH   5  28
HETATM   28  N6  UNL     1      25.539   7.733  47.650  1.00  0.00    -0.305 NA
HETATM   29  H19 UNL     1      26.029   8.616  47.349  1.00  0.00     0.124 HD
HETATM   30  H20 UNL     1      26.146   8.569  47.397  1.00  0.00     0.124 HD
ENDBRANCH   5  28
TORSDOF 8
ENDMDL
MODEL 8
REMARK VINA RESULT:      -7.4      2.140      4.847
REMARK  8 active torsions:
REMARK  status: ('A' for Active; 'I' for Inactive)
REMARK    1  A    between atoms: N1_1  and  C1_2 
REMARK    2  A    between atoms: C1_2  and  C2_3 
REMARK    3  A    between atoms: C2_3  and  C3_4 
REMARK    4  A    between atoms: C3_4  and  N2_5 
REMARK       I    between atoms: N2_5  and  C4_6 
REMARK    5  A    between atoms: C4_6  and  C5_8 
REMARK    6  A    between atoms: C7_10  and  C8_11 
REMARK    7  A    between atoms: C11_15  and  C12_16 
REMARK    8  A    between atoms: C18_24  and  N6_25 
ROOT
HETATM    1  C5  UNL     1      26.528   0.016  52.891  1.00  0.00     0.145 A 
HETATM    2  C6  UNL     1      26.067   0.838  51.755  1.00  0.00     0.008 A 
HETATM    3  C7  UNL     1      26.560   2.061  51.857  1.00  0.00     0.011 A 
HETATM    4  C17 UNL     1      27.388   2.181  53.052  1.00  0.00     0.035 A 
HETATM    5  C18 UNL     1      27.367   0.998  53.648  1.00  0.00     0.001 A 
ENDROOT
BRANCH   3   6
HETATM    6  C8  UNL     1      26.320   3.148  50.916  1.00  0.00     0.159 A 
HETATM    7  N3  UNL     1      27.198   3.361  49.893  1.00  0.00    -0.241 NA
HETATM    8  C9  UNL     1      26.992   4.366  49.008  1.00  0.00     0.121 A 
HETATM    9  C10 UNL     1      25.886   5.175  49.151  1.00  0.00     0.052 A 
HETATM   10  C11 UNL     1      25.002   4.968  50.174  1.00  0.00     0.072 A 
HETATM   11  N5  UNL     1      25.266   3.954  51.015  1.00  0.00    -0.228 NA
BRANCH  10  12
HETATM   12  C12 UNL     1      23.818   5.797  50.366  1.00  0.00     0.010 A 
HETATM   13  C13 UNL     1      23.708   7.104  49.960  1.00  0.00     0.017 A 
HETATM   14  C14 UNL     1      22.581   7.858  50.154  1.00  0.00     0.020 A 
HETATM   15  C15 UNL     1      21.493   7.277  50.793  1.00  0.00     0.116 A 
HETATM   16  N4  UNL     1      21.581   5.990  51.201  1.00  0.00    -0.272 NA
HETATM   17  C16 UNL     1      22.712   5.265  50.994  1.00  0.00     0.130 A 
ENDBRANCH  10  12
ENDBRANCH   3   6
BRANCH   1  18
HETATM   18  C4  UNL     1      25.456  -0.483  53.764  1.00  0.00     0.230 C 
HETATM   19  N2  UNL     1      24.090  -0.214  53.456  1.00  0.00    -0.360 N 
HETATM   20  H9  UNL     1      23.913   0.354  52.580  1.00  0.00     0.162 HD
HETATM   21  O1  UNL     1      25.702  -1.145  54.781  1.00  0.00    -0.272 OA
BRANCH  19  22
HETATM   22  C3  UNL     1      23.027  -0.695  54.301  1.00  0.00     0.124 C 
BRANCH  22  23
HETATM   23  C2  UNL     1      21.970  -1.458  53.598  1.00  0.00     0.049 C 
BRANCH  23  24
HETATM   24  C1  UNL     1      20.611  -0.859  53.882  1.00  0.00     0.268 C 
BRANCH  24  25
HETATM   25  N1  UNL     1      20.704   0.175  54.894  1.00  0.00     0.078 N 
HETATM   26  H1  UNL     1      20.371  -0.193  55.800  1.00  0.00     0.312 HD
HETATM   27  H2  UNL     1      21.653   0.575  54.884  1.00  0.00     0.312 HD
ENDBRANCH  24  25
ENDBRANCH  23  24
ENDBRANCH  22  23
ENDBRANCH  19  22
ENDBRANCH   1  18
BRANCH   5  28
HETATM   28  N6  UNL     1      28.021   0.596  54.854  1.00  0.00    -0.305 NA
HETATM   29  H19 UNL     1      27.734   0.040  55.701  1.00  0.00     0.124 HD
HETATM   30  H20 UNL     1      27.610   0.023  55.650  1.00  0.00     0.124 HD
ENDBRANCH   5  28
TORSDOF 8
ENDMDL
MODEL 9
REMARK VINA RESULT:      -7.3      2.697      8.166
REMARK  8 active torsions:
REMARK  status: ('A' for Active; 'I' for Inactive)
REMARK    1  A    between atoms: N1_1  and  C1_2 
REMARK    2  A    between atoms: C1_2  and  C2_3 
REMARK    3  A    between atoms: C2_3  and  C3_4 
REMARK    4  A    between atoms: C3_4  and  N2_5 
REMARK       I    between atoms: N2_5  and  C4_6 
REMARK    5  A    between atoms: C4_6  and  C5_8 
REMARK    6  A    between atoms: C7_10  and  C8_11 
REMARK    7  A    between atoms: C11_15  and  C12_16 
REMARK    8  A    between atoms: C18_24  and  N6_25 
ROOT
HETATM    1  C5  UNL     1      25.894   4.895  49.180  1.00  0.00     0.145 A 
HETATM    2  C6  UNL     1      26.407   3.860  50.100  1.00  0.00     0.008 A 
HETATM    3  C7  UNL     1      25.417   3.076  50.490  1.00  0.00     0.011 A 
HETATM    4  C17 UNL     1      24.160   3.497  49.882  1.00  0.00     0.035 A 
HETATM    5  C18 UNL     1      24.439   4.548  49.126  1.00  0.00     0.001 A 
ENDROOT
BRANCH   3   6
HETATM    6  C8  UNL     1      25.546   1.944  51.400  1.00  0.00     0.159 A 
HETATM    7  N3  UNL     1      26.784   1.448  51.690  1.00  0.00    -0.241 NA
HETATM    8  C9  UNL     1      26.924   0.397  52.533  1.00  0.00     0.121 A 
HETATM    9  C10 UNL     1      25.801  -0.170  53.097  1.00  0.00     0.052 A 
HETATM   10  C11 UNL     1      24.557   0.322  52.812  1.00  0.00     0.072 A 
HETATM   11  N5  UNL     1      24.491   1.365  51.968  1.00  0.00    -0.228 NA
BRANCH  10  12
HETATM   12  C12 UNL     1      23.341  -0.244  53.384  1.00  0.00     0.010 A 
HETATM   13  C13 UNL     1      22.090  -0.115  52.836  1.00  0.00     0.017 A 
HETATM   14  C14 UNL     1      20.964  -0.659  53.398  1.00  0.00     0.020 A 
HETATM   15  C15 UNL     1      21.091  -1.376  54.580  1.00  0.00     0.116 A 
HETATM   16  N4  UNL     1      22.316  -1.515  55.137  1.00  0.00    -0.272 NA
HETATM   17  C16 UNL     1      23.415  -0.964  54.558  1.00  0.00     0.130 A 
ENDBRANCH  10  12
ENDBRANCH   3   6
BRANCH   1  18
HETATM   18  C4  UNL     1      26.049   6.275  49.659  1.00  0.00     0.230 C 
HETATM   19  N2  UNL     1      27.144   7.074  49.218  1.00  0.00    -0.360 N 
HETATM   20  H9  UNL     1      27.815   6.613  48.542  1.00  0.00     0.162 HD
HETATM   21  O1  UNL     1      25.243   6.781  50.451  1.00  0.00    -0.272 OA
BRANCH  19  22
HETATM   22  C3  UNL     1      27.310   8.429  49.678  1.00  0.00     0.124 C 
BRANCH  22  23
HETATM   23  C2  UNL     1      28.170   9.277  48.821  1.00  0.00     0.049 C 
BRANCH  23  24
HETATM   24  C1  UNL     1      29.484   9.564  49.513  1.00  0.00     0.268 C 
BRANCH  24  25
HETATM   25  N1  UNL     1      30.337   8.392  49.509  1.00  0.00     0.078 N 
HETATM   26  H1  UNL     1      29.831   7.594  49.091  1.00  0.00     0.312 HD
HETATM   27  H2  UNL     1      31.243   8.634  49.081  1.00  0.00     0.312 HD
ENDBRANCH  24  25
ENDBRANCH  23  24
ENDBRANCH  22  23
ENDBRANCH  19  22
ENDBRANCH   1  18
BRANCH   5  28
HETATM   28  N6  UNL     1      23.551   5.327  48.320  1.00  0.00    -0.305 NA
HETATM   29  H19 UNL     1      22.544   5.231  48.025  1.00  0.00     0.124 HD
HETATM   30  H20 UNL     1      22.534   5.115  48.093  1.00  0.00     0.124 HD
ENDBRANCH   5  28
TORSDOF 8
ENDMDL
