MODEL 1
REMARK VINA RESULT:      -8.3      0.000      0.000
REMARK  3 active torsions:
REMARK  status: ('A' for Active; 'I' for Inactive)
REMARK    1  A    between atoms: O1_2  and  C2_3 
REMARK    2  A    between atoms: C6_7  and  N1_8 
REMARK    3  A    between atoms: N1_8  and  C7_9 
ROOT
HETATM    1  C2  UNL     1      20.074  -0.204  52.705  1.00  0.00     0.070 A 
HETATM    2  C3  UNL     1      21.000   0.414  51.890  1.00  0.00     0.038 A 
HETATM    3  C4  UNL     1      22.327   0.360  52.259  1.00  0.00     0.020 A 
HETATM    4  C5  UNL     1      22.833  -0.254  53.368  1.00  0.00     0.039 A 
HETATM    5  C6  UNL     1      24.158  -0.301  53.728  1.00  0.00     0.142 A 
HETATM    6  N2  UNL     1      24.493  -0.942  54.851  1.00  0.00    -0.224 NA
HETATM    7  C14 UNL     1      23.575  -1.532  55.621  1.00  0.00     0.236 A 
HETATM    8  N3  UNL     1      22.253  -1.499  55.284  1.00  0.00    -0.241 NA
HETATM    9  C15 UNL     1      21.872  -0.855  54.150  1.00  0.00     0.074 A 
HETATM   10  C16 UNL     1      20.533  -0.844  53.849  1.00  0.00     0.069 A 
ENDROOT
BRANCH   5  11
HETATM   11  N1  UNL     1      25.109   0.320  52.886  1.00  0.00    -0.340 N 
HETATM   12  H6  UNL     1      24.884   0.612  51.919  1.00  0.00     0.167 HD
BRANCH  11  13
HETATM   13  C7  UNL     1      26.464   0.660  53.139  1.00  0.00     0.034 A 
HETATM   14  C8  UNL     1      26.958   1.956  53.317  1.00  0.00     0.029 A 
HETATM   15  C9  UNL     1      28.256   2.250  53.567  1.00  0.00     0.003 A 
HETATM   16  C10 UNL     1      29.194   1.256  53.663  1.00  0.00     0.007 A 
HETATM   17  C11 UNL     1      28.781  -0.052  53.499  1.00  0.00    -0.060 A 
HETATM   18  C12 UNL     1      29.820  -1.107  53.610  1.00  0.00     0.048 C 
HETATM   19  C13 UNL     1      27.448  -0.297  53.246  1.00  0.00     0.036 A 
ENDBRANCH  11  13
ENDBRANCH   5  11
BRANCH   1  20
HETATM   20  O1  UNL     1      18.708  -0.228  52.457  1.00  0.00    -0.356 OA
HETATM   21  C1  UNL     1      17.931  -1.211  53.094  1.00  0.00     0.210 C 
ENDBRANCH   1  20
TORSDOF 3
ENDMDL
MODEL 2
REMARK VINA RESULT:      -8.1      3.780      5.696
REMARK  3 active torsions:
REMARK  status: ('A' for Active; 'I' for Inactive)
REMARK    1  A    between atoms: O1_2  and  C2_3 
REMARK    2  A    between atoms: C6_7  and  N1_8 
REMARK    3  A    between atoms: N1_8  and  C7_9 
ROOT
HETATM    1  C2  UNL     1      24.834  -0.503  54.550  1.00  0.00     0.070 A 
HETATM    2  C3  UNL     1      24.402  -0.247  53.264  1.00  0.00     0.038 A 
HETATM    3  C4  UNL     1      25.181   0.566  52.469  1.00  0.00     0.020 A 
HETATM    4  C5  UNL     1      26.358   1.157  52.825  1.00  0.00     0.039 A 
HETATM    5  C6  UNL     1      27.127   1.968  52.025  1.00  0.00     0.142 A 
HETATM    6  N2  UNL     1      28.257   2.474  52.525  1.00  0.00    -0.224 NA
HETATM    7  C14 UNL     1      28.651   2.209  53.774  1.00  0.00     0.236 A 
HETATM    8  N3  UNL     1      27.905   1.406  54.587  1.00  0.00    -0.241 NA
HETATM    9  C15 UNL     1      26.748   0.873  54.115  1.00  0.00     0.074 A 
HETATM   10  C16 UNL     1      26.027   0.073  54.967  1.00  0.00     0.069 A 
ENDROOT
BRANCH   5  11
HETATM   11  N1  UNL     1      26.692   2.219  50.703  1.00  0.00    -0.340 N 
HETATM   12  H6  UNL     1      26.705   1.490  49.969  1.00  0.00     0.167 HD
BRANCH  11  13
HETATM   13  C7  UNL     1      26.184   3.412  50.124  1.00  0.00     0.034 A 
HETATM   14  C8  UNL     1      24.855   3.842  50.182  1.00  0.00     0.029 A 
HETATM   15  C9  UNL     1      24.400   4.991  49.628  1.00  0.00     0.003 A 
HETATM   16  C10 UNL     1      25.249   5.827  48.952  1.00  0.00     0.007 A 
HETATM   17  C11 UNL     1      26.579   5.469  48.851  1.00  0.00    -0.060 A 
HETATM   18  C12 UNL     1      27.475   6.395  48.114  1.00  0.00     0.048 C 
HETATM   19  C13 UNL     1      26.991   4.289  49.434  1.00  0.00     0.036 A 
ENDBRANCH  11  13
ENDBRANCH   5  11
BRANCH   1  20
HETATM   20  O1  UNL     1      24.152  -1.301  55.457  1.00  0.00    -0.356 OA
HETATM   21  C1  UNL     1      22.762  -1.450  55.303  1.00  0.00     0.210 C 
ENDBRANCH   1  20
TORSDOF 3
ENDMDL
MODEL 3
REMARK VINA RESULT:      -7.9      1.254      2.295
REMARK  3 active torsions:
REMARK  status: ('A' for Active; 'I' for Inactive)
REMARK    1  A    between atoms: O1_2  and  C2_3 
REMARK    2  A    between atoms: C6_7  and  N1_8 
REMARK    3  A    between atoms: N1_8  and  C7_9 
ROOT
HETATM    1  C2  UNL     1      20.109  -0.563  53.368  1.00  0.00     0.070 A 
HETATM    2  C3  UNL     1      21.099  -0.898  54.270  1.00  0.00     0.038 A 
HETATM    3  C4  UNL     1      22.378  -0.445  54.027  1.00  0.00     0.020 A 
HETATM    4  C5  UNL     1      22.778   0.314  52.967  1.00  0.00     0.039 A 
HETATM    5  C6  UNL     1      24.057   0.759  52.732  1.00  0.00     0.142 A 
HETATM    6  N2  UNL     1      24.288   1.494  51.642  1.00  0.00    -0.224 NA
HETATM    7  C14 UNL     1      23.311   1.803  50.785  1.00  0.00     0.236 A 
HETATM    8  N3  UNL     1      22.034   1.374  50.997  1.00  0.00    -0.241 NA
HETATM    9  C15 UNL     1      21.758   0.622  52.095  1.00  0.00     0.074 A 
HETATM   10  C16 UNL     1      20.460   0.209  52.268  1.00  0.00     0.069 A 
ENDROOT
BRANCH   5  11
HETATM   11  N1  UNL     1      25.068   0.428  53.664  1.00  0.00    -0.340 N 
HETATM   12  H6  UNL     1      24.869  -0.097  54.533  1.00  0.00     0.167 HD
BRANCH  11  13
HETATM   13  C7  UNL     1      26.460   0.708  53.633  1.00  0.00     0.034 A 
HETATM   14  C8  UNL     1      27.034   1.983  53.638  1.00  0.00     0.029 A 
HETATM   15  C9  UNL     1      28.367   2.220  53.618  1.00  0.00     0.003 A 
HETATM   16  C10 UNL     1      29.262   1.183  53.590  1.00  0.00     0.007 A 
HETATM   17  C11 UNL     1      28.770  -0.107  53.583  1.00  0.00    -0.060 A 
HETATM   18  C12 UNL     1      29.765  -1.209  53.554  1.00  0.00     0.048 C 
HETATM   19  C13 UNL     1      27.404  -0.294  53.605  1.00  0.00     0.036 A 
ENDBRANCH  11  13
ENDBRANCH   5  11
BRANCH   1  20
HETATM   20  O1  UNL     1      18.781  -0.950  53.487  1.00  0.00    -0.356 OA
HETATM   21  C1  UNL     1      17.924  -0.739  52.392  1.00  0.00     0.210 C 
ENDBRANCH   1  20
TORSDOF 3
ENDMDL
MODEL 4
REMARK VINA RESULT:      -7.7      1.167      1.839
REMARK  3 active torsions:
REMARK  status: ('A' for Active; 'I' for Inactive)
REMARK    1  A    between atoms: O1_2  and  C2_3 
REMARK    2  A    between atoms: C6_7  and  N1_8 
REMARK    3  A    between atoms: N1_8  and  C7_9 
ROOT
HETATM    1  C2  UNL     1      19.354  -0.025  51.932  1.00  0.00     0.070 A 
HETATM    2  C3  UNL     1      20.403   0.539  51.236  1.00  0.00     0.038 A 
HETATM    3  C4  UNL     1      21.670   0.427  51.767  1.00  0.00     0.020 A 
HETATM    4  C5  UNL     1      22.004  -0.197  52.934  1.00  0.00     0.039 A 
HETATM    5  C6  UNL     1      23.270  -0.303  53.458  1.00  0.00     0.142 A 
HETATM    6  N2  UNL     1      23.431  -0.946  54.617  1.00  0.00    -0.224 NA
HETATM    7  C14 UNL     1      22.397  -1.483  55.270  1.00  0.00     0.236 A 
HETATM    8  N3  UNL     1      21.131  -1.391  54.770  1.00  0.00    -0.241 NA
HETATM    9  C15 UNL     1      20.926  -0.744  53.593  1.00  0.00     0.074 A 
HETATM   10  C16 UNL     1      19.636  -0.673  53.128  1.00  0.00     0.069 A 
ENDROOT
BRANCH   5  11
HETATM   11  N1  UNL     1      24.347   0.264  52.737  1.00  0.00    -0.340 N 
HETATM   12  H6  UNL     1      24.202   0.887  51.924  1.00  0.00     0.167 HD
BRANCH  11  13
HETATM   13  C7  UNL     1      25.746   0.127  52.937  1.00  0.00     0.034 A 
HETATM   14  C8  UNL     1      26.461  -1.073  52.893  1.00  0.00     0.029 A 
HETATM   15  C9  UNL     1      27.799  -1.173  53.077  1.00  0.00     0.003 A 
HETATM   16  C10 UNL     1      28.556  -0.059  53.329  1.00  0.00     0.007 A 
HETATM   17  C11 UNL     1      27.920   1.165  53.389  1.00  0.00    -0.060 A 
HETATM   18  C12 UNL     1      28.766   2.354  53.661  1.00  0.00     0.048 C 
HETATM   19  C13 UNL     1      26.555   1.212  53.192  1.00  0.00     0.036 A 
ENDBRANCH  11  13
ENDBRANCH   5  11
BRANCH   1  20
HETATM   20  O1  UNL     1      18.031   0.012  51.515  1.00  0.00    -0.356 OA
HETATM   21  C1  UNL     1      17.745   0.548  50.247  1.00  0.00     0.210 C 
ENDBRANCH   1  20
TORSDOF 3
ENDMDL
MODEL 5
REMARK VINA RESULT:      -7.6      4.013      5.313
REMARK  3 active torsions:
REMARK  status: ('A' for Active; 'I' for Inactive)
REMARK    1  A    between atoms: O1_2  and  C2_3 
REMARK    2  A    between atoms: C6_7  and  N1_8 
REMARK    3  A    between atoms: N1_8  and  C7_9 
ROOT
HETATM    1  C2  UNL     1      22.921   0.310  52.957  1.00  0.00     0.070 A 
HETATM    2  C3  UNL     1      22.662   0.987  51.782  1.00  0.00     0.038 A 
HETATM    3  C4  UNL     1      23.695   1.683  51.193  1.00  0.00     0.020 A 
HETATM    4  C5  UNL     1      24.974   1.777  51.659  1.00  0.00     0.039 A 
HETATM    5  C6  UNL     1      25.997   2.476  51.066  1.00  0.00     0.142 A 
HETATM    6  N2  UNL     1      27.198   2.472  51.650  1.00  0.00    -0.224 NA
HETATM    7  C14 UNL     1      27.421   1.808  52.787  1.00  0.00     0.236 A 
HETATM    8  N3  UNL     1      26.421   1.107  53.395  1.00  0.00    -0.241 NA
HETATM    9  C15 UNL     1      25.185   1.087  52.831  1.00  0.00     0.074 A 
HETATM   10  C16 UNL     1      24.207   0.371  53.477  1.00  0.00     0.069 A 
ENDROOT
BRANCH   5  11
HETATM   11  N1  UNL     1      25.736   3.158  49.854  1.00  0.00    -0.340 N 
HETATM   12  H6  UNL     1      25.120   2.766  49.121  1.00  0.00     0.167 HD
BRANCH  11  13
HETATM   13  C7  UNL     1      26.207   4.418  49.400  1.00  0.00     0.034 A 
HETATM   14  C8  UNL     1      25.490   5.617  49.441  1.00  0.00     0.029 A 
HETATM   15  C9  UNL     1      25.968   6.808  49.009  1.00  0.00     0.003 A 
HETATM   16  C10 UNL     1      27.231   6.907  48.485  1.00  0.00     0.007 A 
HETATM   17  C11 UNL     1      28.000   5.763  48.410  1.00  0.00    -0.060 A 
HETATM   18  C12 UNL     1      29.364   5.903  47.839  1.00  0.00     0.048 C 
HETATM   19  C13 UNL     1      27.466   4.576  48.865  1.00  0.00     0.036 A 
ENDBRANCH  11  13
ENDBRANCH   5  11
BRANCH   1  20
HETATM   20  O1  UNL     1      21.977  -0.430  53.656  1.00  0.00    -0.356 OA
HETATM   21  C1  UNL     1      20.871   0.244  54.203  1.00  0.00     0.210 C 
ENDBRANCH   1  20
TORSDOF 3
ENDMDL
MODEL 6
REMARK VINA RESULT:      -7.5      2.166      3.469
REMARK  3 active torsions:
REMARK  status: ('A' for Active; 'I' for Inactive)
REMARK    1  A    between atoms: O1_2  and  C2_3 
REMARK    2  A    between atoms: C6_7  and  N1_8 
REMARK    3  A    between atoms: N1_8  and  C7_9 
ROOT
HETATM    1  C2  UNL     1      21.649   0.537  52.372  1.00  0.00     0.070 A 
HETATM    2  C3  UNL     1      22.632   0.455  53.337  1.00  0.00     0.038 A 
HETATM    3  C4  UNL     1      23.829   1.094  53.100  1.00  0.00     0.020 A 
HETATM    4  C5  UNL     1      24.153   1.815  51.988  1.00  0.00     0.039 A 
HETATM    5  C6  UNL     1      25.351   2.448  51.759  1.00  0.00     0.142 A 
HETATM    6  N2  UNL     1      25.514   3.114  50.613  1.00  0.00    -0.224 NA
HETATM    7  C14 UNL     1      24.546   3.178  49.696  1.00  0.00     0.236 A 
HETATM    8  N3  UNL     1      23.347   2.558  49.901  1.00  0.00    -0.241 NA
HETATM    9  C15 UNL     1      23.143   1.869  51.054  1.00  0.00     0.074 A 
HETATM   10  C16 UNL     1      21.924   1.259  51.218  1.00  0.00     0.069 A 
ENDROOT
BRANCH   5  11
HETATM   11  N1  UNL     1      26.354   2.375  52.754  1.00  0.00    -0.340 N 
HETATM   12  H6  UNL     1      26.492   3.124  53.455  1.00  0.00     0.167 HD
BRANCH  11  13
HETATM   13  C7  UNL     1      27.314   1.361  53.006  1.00  0.00     0.034 A 
HETATM   14  C8  UNL     1      28.594   1.564  53.530  1.00  0.00     0.029 A 
HETATM   15  C9  UNL     1      29.487   0.574  53.770  1.00  0.00     0.003 A 
HETATM   16  C10 UNL     1      29.173  -0.732  53.501  1.00  0.00     0.007 A 
HETATM   17  C11 UNL     1      27.925  -1.013  52.981  1.00  0.00    -0.060 A 
HETATM   18  C12 UNL     1      27.614  -2.437  52.701  1.00  0.00     0.048 C 
HETATM   19  C13 UNL     1      27.053   0.032  52.756  1.00  0.00     0.036 A 
ENDBRANCH  11  13
ENDBRANCH   5  11
BRANCH   1  20
HETATM   20  O1  UNL     1      20.399  -0.057  52.479  1.00  0.00    -0.356 OA
HETATM   21  C1  UNL     1      20.081  -0.737  53.668  1.00  0.00     0.210 C 
ENDBRANCH   1  20
TORSDOF 3
ENDMDL
MODEL 7
REMARK VINA RESULT:      -7.5      3.940      5.965
REMARK  3 active torsions:
REMARK  status: ('A' for Active; 'I' for Inactive)
REMARK    1  A    between atoms: O1_2  and  C2_3 
REMARK    2  A    between atoms: C6_7  and  N1_8 
REMARK    3  A    between atoms: N1_8  and  C7_9 
ROOT
HETATM    1  C2  UNL     1      26.972  -0.058  53.749  1.00  0.00     0.070 A 
HETATM    2  C3  UNL     1      27.217   0.690  52.615  1.00  0.00     0.038 A 
HETATM    3  C4  UNL     1      26.136   1.176  51.913  1.00  0.00     0.020 A 
HETATM    4  C5  UNL     1      24.821   0.993  52.226  1.00  0.00     0.039 A 
HETATM    5  C6  UNL     1      23.749   1.480  51.517  1.00  0.00     0.142 A 
HETATM    6  N2  UNL     1      22.517   1.210  51.955  1.00  0.00    -0.224 NA
HETATM    7  C14 UNL     1      22.308   0.483  53.056  1.00  0.00     0.236 A 
HETATM    8  N3  UNL     1      23.356  -0.012  53.776  1.00  0.00    -0.241 NA
HETATM    9  C15 UNL     1      24.626   0.241  53.362  1.00  0.00     0.074 A 
HETATM   10  C16 UNL     1      25.651  -0.277  54.115  1.00  0.00     0.069 A 
ENDROOT
BRANCH   5  11
HETATM   11  N1  UNL     1      24.000   2.259  50.363  1.00  0.00    -0.340 N 
HETATM   12  H6  UNL     1      23.826   1.903  49.407  1.00  0.00     0.167 HD
BRANCH  11  13
HETATM   13  C7  UNL     1      24.499   3.583  50.250  1.00  0.00     0.034 A 
HETATM   14  C8  UNL     1      23.945   4.715  50.855  1.00  0.00     0.029 A 
HETATM   15  C9  UNL     1      24.448   5.967  50.738  1.00  0.00     0.003 A 
HETATM   16  C10 UNL     1      25.572   6.203  49.989  1.00  0.00     0.007 A 
HETATM   17  C11 UNL     1      26.176   5.133  49.360  1.00  0.00    -0.060 A 
HETATM   18  C12 UNL     1      27.392   5.419  48.558  1.00  0.00     0.048 C 
HETATM   19  C13 UNL     1      25.623   3.878  49.513  1.00  0.00     0.036 A 
ENDBRANCH  11  13
ENDBRANCH   5  11
BRANCH   1  20
HETATM   20  O1  UNL     1      27.963  -0.608  54.550  1.00  0.00    -0.356 OA
HETATM   21  C1  UNL     1      29.291  -0.572  54.090  1.00  0.00     0.210 C 
ENDBRANCH   1  20
TORSDOF 3
ENDMDL
MODEL 8
REMARK VINA RESULT:      -7.5      5.030      7.176
REMARK  3 active torsions:
REMARK  status: ('A' for Active; 'I' for Inactive)
REMARK    1  A    between atoms: O1_2  and  C2_3 
REMARK    2  A    between atoms: C6_7  and  N1_8 
REMARK    3  A    between atoms: N1_8  and  C7_9 
ROOT
HETATM    1  C2  UNL     1      27.119   6.105  48.578  1.00  0.00     0.070 A 
HETATM    2  C3  UNL     1      27.522   4.786  48.610  1.00  0.00     0.038 A 
HETATM    3  C4  UNL     1      26.818   3.912  49.410  1.00  0.00     0.020 A 
HETATM    4  C5  UNL     1      25.743   4.220  50.192  1.00  0.00     0.039 A 
HETATM    5  C6  UNL     1      25.049   3.342  50.989  1.00  0.00     0.142 A 
HETATM    6  N2  UNL     1      24.015   3.802  51.699  1.00  0.00    -0.224 NA
HETATM    7  C14 UNL     1      23.647   5.085  51.648  1.00  0.00     0.236 A 
HETATM    8  N3  UNL     1      24.320   5.976  50.864  1.00  0.00    -0.241 NA
HETATM    9  C15 UNL     1      25.378   5.546  50.128  1.00  0.00     0.074 A 
HETATM   10  C16 UNL     1      26.029   6.476  49.354  1.00  0.00     0.069 A 
ENDROOT
BRANCH   5  11
HETATM   11  N1  UNL     1      25.452   1.987  51.011  1.00  0.00    -0.340 N 
HETATM   12  H6  UNL     1      25.067   1.284  50.356  1.00  0.00     0.167 HD
BRANCH  11  13
HETATM   13  C7  UNL     1      26.389   1.330  51.851  1.00  0.00     0.034 A 
HETATM   14  C8  UNL     1      26.482  -0.052  52.042  1.00  0.00     0.029 A 
HETATM   15  C9  UNL     1      27.393  -0.652  52.844  1.00  0.00     0.003 A 
HETATM   16  C10 UNL     1      28.310   0.090  53.541  1.00  0.00     0.007 A 
HETATM   17  C11 UNL     1      28.280   1.464  53.404  1.00  0.00    -0.060 A 
HETATM   18  C12 UNL     1      29.287   2.241  54.171  1.00  0.00     0.048 C 
HETATM   19  C13 UNL     1      27.332   2.025  52.574  1.00  0.00     0.036 A 
ENDBRANCH  11  13
ENDBRANCH   5  11
BRANCH   1  20
HETATM   20  O1  UNL     1      27.734   7.091  47.818  1.00  0.00    -0.356 OA
HETATM   21  C1  UNL     1      26.924   8.060  47.200  1.00  0.00     0.210 C 
ENDBRANCH   1  20
TORSDOF 3
ENDMDL
MODEL 9
REMARK VINA RESULT:      -7.4      3.081      7.065
REMARK  3 active torsions:
REMARK  status: ('A' for Active; 'I' for Inactive)
REMARK    1  A    between atoms: O1_2  and  C2_3 
REMARK    2  A    between atoms: C6_7  and  N1_8 
REMARK    3  A    between atoms: N1_8  and  C7_9 
ROOT
HETATM    1  C2  UNL     1      27.746   0.266  54.097  1.00  0.00     0.070 A 
HETATM    2  C3  UNL     1      26.482   0.257  54.650  1.00  0.00     0.038 A 
HETATM    3  C4  UNL     1      25.503   1.013  54.041  1.00  0.00     0.020 A 
HETATM    4  C5  UNL     1      25.655   1.786  52.927  1.00  0.00     0.039 A 
HETATM    5  C6  UNL     1      24.674   2.539  52.329  1.00  0.00     0.142 A 
HETATM    6  N2  UNL     1      24.984   3.246  51.240  1.00  0.00    -0.224 NA
HETATM    7  C14 UNL     1      26.217   3.236  50.726  1.00  0.00     0.236 A 
HETATM    8  N3  UNL     1      27.209   2.497  51.303  1.00  0.00    -0.241 NA
HETATM    9  C15 UNL     1      26.932   1.764  52.413  1.00  0.00     0.074 A 
HETATM   10  C16 UNL     1      27.959   1.036  52.962  1.00  0.00     0.069 A 
ENDROOT
BRANCH   5  11
HETATM   11  N1  UNL     1      23.374   2.519  52.886  1.00  0.00    -0.340 N 
HETATM   12  H6  UNL     1      23.051   3.233  53.562  1.00  0.00     0.167 HD
BRANCH  11  13
HETATM   13  C7  UNL     1      22.306   1.608  52.672  1.00  0.00     0.034 A 
HETATM   14  C8  UNL     1      21.374   1.677  51.633  1.00  0.00     0.029 A 
HETATM   15  C9  UNL     1      20.370   0.787  51.447  1.00  0.00     0.003 A 
HETATM   16  C10 UNL     1      20.205  -0.271  52.302  1.00  0.00     0.007 A 
HETATM   17  C11 UNL     1      21.088  -0.406  53.355  1.00  0.00    -0.060 A 
HETATM   18  C12 UNL     1      20.884  -1.563  54.263  1.00  0.00     0.048 C 
HETATM   19  C13 UNL     1      22.093   0.527  53.498  1.00  0.00     0.036 A 
ENDBRANCH  11  13
ENDBRANCH   5  11
BRANCH   1  20
HETATM   20  O1  UNL     1      28.824  -0.447  54.604  1.00  0.00    -0.356 OA
HETATM   21  C1  UNL     1      29.626  -1.174  53.706  1.00  0.00     0.210 C 
ENDBRANCH   1  20
TORSDOF 3
ENDMDL
