MODEL 1
REMARK VINA RESULT:      -7.7      0.000      0.000
REMARK  8 active torsions:
REMARK  status: ('A' for Active; 'I' for Inactive)
REMARK    1  A    between atoms: C4_4  and  C5_5 
REMARK    2  A    between atoms: C5_5  and  C6_6 
REMARK    3  A    between atoms: C6_6  and  O2_8 
REMARK    4  A    between atoms: C7_9  and  C8_10 
REMARK    5  A    between atoms: C9_11  and  C10_12 
REMARK    6  A    between atoms: C10_12  and  N1_13 
REMARK    7  A    between atoms: C10_12  and  N2_14 
REMARK    8  A    between atoms: N2_14  and  C11_15 
ROOT
HETATM    1  C10 UNL     1      23.902   4.254  51.996  1.00  0.00     0.318 C 
ENDROOT
BRANCH   1   2
HETATM    2  C9  UNL     1      23.250   3.046  51.490  1.00  0.00     0.024 C 
HETATM    3  C8  UNL     1      23.196   1.765  51.645  1.00  0.00     0.012 C 
BRANCH   3   4
HETATM    4  C7  UNL     1      23.882   0.803  52.547  1.00  0.00    -0.024 A 
HETATM    5  C2  UNL     1      23.444  -0.153  53.541  1.00  0.00    -0.051 A 
HETATM    6  C1  UNL     1      22.287  -0.730  54.211  1.00  0.00     0.049 C 
HETATM    7  C3  UNL     1      24.748  -0.440  53.733  1.00  0.00     0.016 A 
HETATM    8  C4  UNL     1      25.166   0.526  52.732  1.00  0.00    -0.037 A 
BRANCH   8   9
HETATM    9  C5  UNL     1      26.474   0.949  52.223  1.00  0.00     0.149 C 
BRANCH   9  10
HETATM   10  C6  UNL     1      27.011   2.070  53.061  1.00  0.00     0.143 C 
HETATM   11  O1  UNL     1      26.441   2.337  54.144  1.00  0.00    -0.650 OA
BRANCH  10  12
HETATM   12  O2  UNL     1      28.140   2.772  52.579  1.00  0.00    -0.776 OA
HETATM   13  H7  UNL     1      28.286   2.700  51.562  1.00  0.00     0.167 HD
ENDBRANCH  10  12
ENDBRANCH   9  10
ENDBRANCH   8   9
ENDBRANCH   3   4
ENDBRANCH   1   2
BRANCH   1  14
HETATM   14  N1  UNL     1      22.789   5.027  52.734  1.00  0.00     0.100 N 
HETATM   15  H11 UNL     1      23.031   6.004  52.455  1.00  0.00     0.315 HD
HETATM   16  H12 UNL     1      23.076   4.923  53.728  1.00  0.00     0.315 HD
ENDBRANCH   1  14
BRANCH   1  17
HETATM   17  N2  UNL     1      24.366   5.254  51.113  1.00  0.00    -0.260 NA
HETATM   18  H13 UNL     1      25.076   4.510  51.159  1.00  0.00     0.130 HD
BRANCH  17  19
HETATM   19  C11 UNL     1      25.386   5.752  50.211  1.00  0.00     0.017 A 
HETATM   20  C12 UNL     1      25.955   6.854  49.639  1.00  0.00     0.024 A 
HETATM   21  C13 UNL     1      27.000   6.920  48.775  1.00  0.00     0.002 A 
HETATM   22  C14 UNL     1      27.478   5.663  48.501  1.00  0.00     0.008 A 
HETATM   23  C15 UNL     1      27.097   4.436  48.930  1.00  0.00    -0.045 A 
HETATM   24  C16 UNL     1      26.010   4.513  49.815  1.00  0.00    -0.026 A 
HETATM   25  C17 UNL     1      26.619   3.159  49.442  1.00  0.00     0.080 A 
ENDBRANCH  17  19
ENDBRANCH   1  17
TORSDOF 8
ENDMDL
MODEL 2
REMARK VINA RESULT:      -7.6      2.626      4.842
REMARK  8 active torsions:
REMARK  status: ('A' for Active; 'I' for Inactive)
REMARK    1  A    between atoms: C4_4  and  C5_5 
REMARK    2  A    between atoms: C5_5  and  C6_6 
REMARK    3  A    between atoms: C6_6  and  O2_8 
REMARK    4  A    between atoms: C7_9  and  C8_10 
REMARK    5  A    between atoms: C9_11  and  C10_12 
REMARK    6  A    between atoms: C10_12  and  N1_13 
REMARK    7  A    between atoms: C10_12  and  N2_14 
REMARK    8  A    between atoms: N2_14  and  C11_15 
ROOT
HETATM    1  C10 UNL     1      26.216   4.213  50.131  1.00  0.00     0.318 C 
ENDROOT
BRANCH   1   2
HETATM    2  C9  UNL     1      25.085   3.857  49.274  1.00  0.00     0.024 C 
HETATM    3  C8  UNL     1      23.945   3.251  49.276  1.00  0.00     0.012 C 
BRANCH   3   4
HETATM    4  C7  UNL     1      23.156   2.537  50.314  1.00  0.00    -0.024 A 
HETATM    5  C2  UNL     1      22.154   1.492  50.295  1.00  0.00    -0.051 A 
HETATM    6  C1  UNL     1      21.385   0.595  49.445  1.00  0.00     0.049 C 
HETATM    7  C3  UNL     1      22.113   1.608  51.639  1.00  0.00     0.016 A 
HETATM    8  C4  UNL     1      23.119   2.657  51.634  1.00  0.00    -0.037 A 
BRANCH   8   9
HETATM    9  C5  UNL     1      23.749   3.452  52.692  1.00  0.00     0.149 C 
BRANCH   9  10
HETATM   10  C6  UNL     1      23.252   4.865  52.636  1.00  0.00     0.143 C 
HETATM   11  O1  UNL     1      22.049   5.067  52.347  1.00  0.00    -0.650 OA
BRANCH  10  12
HETATM   12  O2  UNL     1      24.173   5.902  52.913  1.00  0.00    -0.776 OA
HETATM   13  H7  UNL     1      23.788   6.852  52.818  1.00  0.00     0.167 HD
ENDBRANCH  10  12
ENDBRANCH   9  10
ENDBRANCH   8   9
ENDBRANCH   3   4
ENDBRANCH   1   2
BRANCH   1  14
HETATM   14  N1  UNL     1      27.370   4.529  49.156  1.00  0.00     0.100 N 
HETATM   15  H11 UNL     1      27.975   3.691  49.313  1.00  0.00     0.315 HD
HETATM   16  H12 UNL     1      27.840   5.326  49.629  1.00  0.00     0.315 HD
ENDBRANCH   1  14
BRANCH   1  17
HETATM   17  N2  UNL     1      26.835   3.247  50.955  1.00  0.00    -0.260 NA
HETATM   18  H13 UNL     1      25.928   2.871  50.644  1.00  0.00     0.130 HD
BRANCH  17  19
HETATM   19  C11 UNL     1      26.812   1.943  51.591  1.00  0.00     0.017 A 
HETATM   20  C12 UNL     1      26.288   0.683  51.574  1.00  0.00     0.024 A 
HETATM   21  C13 UNL     1      26.550  -0.358  52.406  1.00  0.00     0.002 A 
HETATM   22  C14 UNL     1      27.473   0.004  53.354  1.00  0.00     0.008 A 
HETATM   23  C15 UNL     1      28.130   1.167  53.581  1.00  0.00    -0.045 A 
HETATM   24  C16 UNL     1      27.767   2.154  52.652  1.00  0.00    -0.026 A 
HETATM   25  C17 UNL     1      28.789   2.455  53.751  1.00  0.00     0.080 A 
ENDBRANCH  17  19
ENDBRANCH   1  17
TORSDOF 8
ENDMDL
MODEL 3
REMARK VINA RESULT:      -7.6      2.314      5.734
REMARK  8 active torsions:
REMARK  status: ('A' for Active; 'I' for Inactive)
REMARK    1  A    between atoms: C4_4  and  C5_5 
REMARK    2  A    between atoms: C5_5  and  C6_6 
REMARK    3  A    between atoms: C6_6  and  O2_8 
REMARK    4  A    between atoms: C7_9  and  C8_10 
REMARK    5  A    between atoms: C9_11  and  C10_12 
REMARK    6  A    between atoms: C10_12  and  N1_13 
REMARK    7  A    between atoms: C10_12  and  N2_14 
REMARK    8  A    between atoms: N2_14  and  C11_15 
ROOT
HETATM    1  C10 UNL     1      23.341   5.681  51.808  1.00  0.00     0.318 C 
ENDROOT
BRANCH   1   2
HETATM    2  C9  UNL     1      23.322   5.481  50.359  1.00  0.00     0.024 C 
HETATM    3  C8  UNL     1      24.081   5.219  49.348  1.00  0.00     0.012 C 
BRANCH   3   4
HETATM    4  C7  UNL     1      25.537   4.969  49.185  1.00  0.00    -0.024 A 
HETATM    5  C2  UNL     1      26.419   3.855  49.462  1.00  0.00    -0.051 A 
HETATM    6  C1  UNL     1      26.493   2.494  49.973  1.00  0.00     0.049 C 
HETATM    7  C3  UNL     1      27.422   4.627  48.996  1.00  0.00     0.016 A 
HETATM    8  C4  UNL     1      26.520   5.733  48.727  1.00  0.00    -0.037 A 
BRANCH   8   9
HETATM    9  C5  UNL     1      26.713   7.083  48.187  1.00  0.00     0.149 C 
BRANCH   9  10
HETATM   10  C6  UNL     1      27.199   8.001  49.268  1.00  0.00     0.143 C 
HETATM   11  O1  UNL     1      28.129   8.798  49.005  1.00  0.00    -0.650 OA
BRANCH  10  12
HETATM   12  O2  UNL     1      26.577   7.917  50.535  1.00  0.00    -0.776 OA
HETATM   13  H7  UNL     1      27.186   7.565  51.287  1.00  0.00     0.167 HD
ENDBRANCH  10  12
ENDBRANCH   9  10
ENDBRANCH   8   9
ENDBRANCH   3   4
ENDBRANCH   1   2
BRANCH   1  14
HETATM   14  N1  UNL     1      24.379   6.799  52.042  1.00  0.00     0.100 N 
HETATM   15  H11 UNL     1      23.763   7.639  51.953  1.00  0.00     0.315 HD
HETATM   16  H12 UNL     1      24.945   6.754  51.171  1.00  0.00     0.315 HD
ENDBRANCH   1  14
BRANCH   1  17
HETATM   17  N2  UNL     1      23.842   4.682  52.673  1.00  0.00    -0.260 NA
HETATM   18  H13 UNL     1      23.786   4.287  51.723  1.00  0.00     0.130 HD
BRANCH  17  19
HETATM   19  C11 UNL     1      24.333   3.332  52.875  1.00  0.00     0.017 A 
HETATM   20  C12 UNL     1      25.249   2.541  53.507  1.00  0.00     0.024 A 
HETATM   21  C13 UNL     1      25.392   1.192  53.447  1.00  0.00     0.002 A 
HETATM   22  C14 UNL     1      24.446   0.643  52.618  1.00  0.00     0.008 A 
HETATM   23  C15 UNL     1      23.448   1.200  51.891  1.00  0.00    -0.045 A 
HETATM   24  C16 UNL     1      23.414   2.594  52.043  1.00  0.00    -0.026 A 
HETATM   25  C17 UNL     1      22.403   1.883  51.140  1.00  0.00     0.080 A 
ENDBRANCH  17  19
ENDBRANCH   1  17
TORSDOF 8
ENDMDL
MODEL 4
REMARK VINA RESULT:      -7.6      3.971      5.966
REMARK  8 active torsions:
REMARK  status: ('A' for Active; 'I' for Inactive)
REMARK    1  A    between atoms: C4_4  and  C5_5 
REMARK    2  A    between atoms: C5_5  and  C6_6 
REMARK    3  A    between atoms: C6_6  and  O2_8 
REMARK    4  A    between atoms: C7_9  and  C8_10 
REMARK    5  A    between atoms: C9_11  and  C10_12 
REMARK    6  A    between atoms: C10_12  and  N1_13 
REMARK    7  A    between atoms: C10_12  and  N2_14 
REMARK    8  A    between atoms: N2_14  and  C11_15 
ROOT
HETATM    1  C10 UNL     1      26.091   2.130  53.022  1.00  0.00     0.318 C 
ENDROOT
BRANCH   1   2
HETATM    2  C9  UNL     1      24.787   2.792  53.064  1.00  0.00     0.024 C 
HETATM    3  C8  UNL     1      23.534   2.611  52.806  1.00  0.00     0.012 C 
BRANCH   3   4
HETATM    4  C7  UNL     1      22.742   1.475  52.269  1.00  0.00    -0.024 A 
HETATM    5  C2  UNL     1      21.912   1.270  51.101  1.00  0.00    -0.051 A 
HETATM    6  C1  UNL     1      21.386   1.886  49.891  1.00  0.00     0.049 C 
HETATM    7  C3  UNL     1      21.699   0.020  51.560  1.00  0.00     0.016 A 
HETATM    8  C4  UNL     1      22.535   0.247  52.727  1.00  0.00    -0.037 A 
BRANCH   8   9
HETATM    9  C5  UNL     1      22.916  -0.587  53.871  1.00  0.00     0.149 C 
BRANCH   9  10
HETATM   10  C6  UNL     1      21.713  -0.873  54.719  1.00  0.00     0.143 C 
HETATM   11  O1  UNL     1      21.542  -2.040  55.143  1.00  0.00    -0.650 OA
BRANCH  10  12
HETATM   12  O2  UNL     1      20.830   0.196  54.995  1.00  0.00    -0.776 OA
HETATM   13  H7  UNL     1      19.835  -0.068  55.021  1.00  0.00     0.167 HD
ENDBRANCH  10  12
ENDBRANCH   9  10
ENDBRANCH   8   9
ENDBRANCH   3   4
ENDBRANCH   1   2
BRANCH   1  14
HETATM   14  N1  UNL     1      26.792   2.712  51.777  1.00  0.00     0.100 N 
HETATM   15  H11 UNL     1      27.787   2.671  52.094  1.00  0.00     0.315 HD
HETATM   16  H12 UNL     1      26.510   3.712  51.817  1.00  0.00     0.315 HD
ENDBRANCH   1  14
BRANCH   1  17
HETATM   17  N2  UNL     1      26.195   0.747  52.753  1.00  0.00    -0.260 NA
HETATM   18  H13 UNL     1      27.066   1.053  53.211  1.00  0.00     0.130 HD
BRANCH  17  19
HETATM   19  C11 UNL     1      26.956  -0.486  52.815  1.00  0.00     0.017 A 
HETATM   20  C12 UNL     1      26.953  -1.833  52.589  1.00  0.00     0.024 A 
HETATM   21  C13 UNL     1      27.958  -2.728  52.775  1.00  0.00     0.002 A 
HETATM   22  C14 UNL     1      29.080  -2.100  53.254  1.00  0.00     0.008 A 
HETATM   23  C15 UNL     1      29.333  -0.804  53.555  1.00  0.00    -0.045 A 
HETATM   24  C16 UNL     1      28.214   0.010  53.318  1.00  0.00    -0.026 A 
HETATM   25  C17 UNL     1      29.516   0.610  53.853  1.00  0.00     0.080 A 
ENDBRANCH  17  19
ENDBRANCH   1  17
TORSDOF 8
ENDMDL
MODEL 5
REMARK VINA RESULT:      -7.6      1.802      2.413
REMARK  8 active torsions:
REMARK  status: ('A' for Active; 'I' for Inactive)
REMARK    1  A    between atoms: C4_4  and  C5_5 
REMARK    2  A    between atoms: C5_5  and  C6_6 
REMARK    3  A    between atoms: C6_6  and  O2_8 
REMARK    4  A    between atoms: C7_9  and  C8_10 
REMARK    5  A    between atoms: C9_11  and  C10_12 
REMARK    6  A    between atoms: C10_12  and  N1_13 
REMARK    7  A    between atoms: C10_12  and  N2_14 
REMARK    8  A    between atoms: N2_14  and  C11_15 
ROOT
HETATM    1  C10 UNL     1      26.112   2.500  50.826  1.00  0.00     0.318 C 
ENDROOT
BRANCH   1   2
HETATM    2  C9  UNL     1      24.840   2.887  51.436  1.00  0.00     0.024 C 
HETATM    3  C8  UNL     1      23.873   2.440  52.166  1.00  0.00     0.012 C 
BRANCH   3   4
HETATM    4  C7  UNL     1      23.581   1.132  52.808  1.00  0.00    -0.024 A 
HETATM    5  C2  UNL     1      22.381   0.466  53.268  1.00  0.00    -0.051 A 
HETATM    6  C1  UNL     1      20.935   0.572  53.396  1.00  0.00     0.049 C 
HETATM    7  C3  UNL     1      23.180  -0.551  53.651  1.00  0.00     0.016 A 
HETATM    8  C4  UNL     1      24.372   0.135  53.184  1.00  0.00    -0.037 A 
BRANCH   8   9
HETATM    9  C5  UNL     1      25.797  -0.208  53.183  1.00  0.00     0.149 C 
BRANCH   9  10
HETATM   10  C6  UNL     1      26.453   0.328  54.419  1.00  0.00     0.143 C 
HETATM   11  O1  UNL     1      26.830  -0.481  55.298  1.00  0.00    -0.650 OA
BRANCH  10  12
HETATM   12  O2  UNL     1      26.611   1.730  54.529  1.00  0.00    -0.776 OA
HETATM   13  H7  UNL     1      27.582   2.059  54.430  1.00  0.00     0.167 HD
ENDBRANCH  10  12
ENDBRANCH   9  10
ENDBRANCH   8   9
ENDBRANCH   3   4
ENDBRANCH   1   2
BRANCH   1  14
HETATM   14  N1  UNL     1      27.184   2.869  51.873  1.00  0.00     0.100 N 
HETATM   15  H11 UNL     1      26.839   3.812  52.162  1.00  0.00     0.315 HD
HETATM   16  H12 UNL     1      28.021   3.030  51.278  1.00  0.00     0.315 HD
ENDBRANCH   1  14
BRANCH   1  17
HETATM   17  N2  UNL     1      26.613   3.184  49.696  1.00  0.00    -0.260 NA
HETATM   18  H13 UNL     1      26.562   3.851  50.479  1.00  0.00     0.130 HD
BRANCH  17  19
HETATM   19  C11 UNL     1      27.108   4.405  49.089  1.00  0.00     0.017 A 
HETATM   20  C12 UNL     1      28.187   5.051  48.557  1.00  0.00     0.024 A 
HETATM   21  C13 UNL     1      28.255   6.301  48.030  1.00  0.00     0.002 A 
HETATM   22  C14 UNL     1      27.029   6.914  48.085  1.00  0.00     0.008 A 
HETATM   23  C15 UNL     1      25.828   6.497  48.553  1.00  0.00    -0.045 A 
HETATM   24  C16 UNL     1      25.899   5.193  49.068  1.00  0.00    -0.026 A 
HETATM   25  C17 UNL     1      24.579   5.966  49.081  1.00  0.00     0.080 A 
ENDBRANCH  17  19
ENDBRANCH   1  17
TORSDOF 8
ENDMDL
MODEL 6
REMARK VINA RESULT:      -7.6      3.563      5.570
REMARK  8 active torsions:
REMARK  status: ('A' for Active; 'I' for Inactive)
REMARK    1  A    between atoms: C4_4  and  C5_5 
REMARK    2  A    between atoms: C5_5  and  C6_6 
REMARK    3  A    between atoms: C6_6  and  O2_8 
REMARK    4  A    between atoms: C7_9  and  C8_10 
REMARK    5  A    between atoms: C9_11  and  C10_12 
REMARK    6  A    between atoms: C10_12  and  N1_13 
REMARK    7  A    between atoms: C10_12  and  N2_14 
REMARK    8  A    between atoms: N2_14  and  C11_15 
ROOT
HETATM    1  C10 UNL     1      25.625   2.147  52.589  1.00  0.00     0.318 C 
ENDROOT
BRANCH   1   2
HETATM    2  C9  UNL     1      24.710   1.609  51.583  1.00  0.00     0.024 C 
HETATM    3  C8  UNL     1      23.495   1.208  51.408  1.00  0.00     0.012 C 
BRANCH   3   4
HETATM    4  C7  UNL     1      22.305   1.099  52.292  1.00  0.00    -0.024 A 
HETATM    5  C2  UNL     1      21.203   1.974  52.633  1.00  0.00    -0.051 A 
HETATM    6  C1  UNL     1      20.605   3.281  52.403  1.00  0.00     0.049 C 
HETATM    7  C3  UNL     1      20.764   0.986  53.440  1.00  0.00     0.016 A 
HETATM    8  C4  UNL     1      21.879   0.125  53.084  1.00  0.00    -0.037 A 
BRANCH   8   9
HETATM    9  C5  UNL     1      22.279  -1.226  53.492  1.00  0.00     0.149 C 
BRANCH   9  10
HETATM   10  C6  UNL     1      23.214  -1.152  54.661  1.00  0.00     0.143 C 
HETATM   11  O1  UNL     1      24.271  -0.488  54.543  1.00  0.00    -0.650 OA
BRANCH  10  12
HETATM   12  O2  UNL     1      22.853  -1.841  55.841  1.00  0.00    -0.776 OA
HETATM   13  H7  UNL     1      23.367  -1.545  56.683  1.00  0.00     0.167 HD
ENDBRANCH  10  12
ENDBRANCH   9  10
ENDBRANCH   8   9
ENDBRANCH   3   4
ENDBRANCH   1   2
BRANCH   1  14
HETATM   14  N1  UNL     1      26.660   2.965  51.789  1.00  0.00     0.100 N 
HETATM   15  H11 UNL     1      27.004   3.605  52.539  1.00  0.00     0.315 HD
HETATM   16  H12 UNL     1      26.051   3.536  51.169  1.00  0.00     0.315 HD
ENDBRANCH   1  14
BRANCH   1  17
HETATM   17  N2  UNL     1      26.482   1.295  53.321  1.00  0.00    -0.260 NA
HETATM   18  H13 UNL     1      26.935   1.512  52.421  1.00  0.00     0.130 HD
BRANCH  17  19
HETATM   19  C11 UNL     1      27.729   0.560  53.422  1.00  0.00     0.017 A 
HETATM   20  C12 UNL     1      29.048   0.608  53.770  1.00  0.00     0.024 A 
HETATM   21  C13 UNL     1      29.974  -0.385  53.733  1.00  0.00     0.002 A 
HETATM   22  C14 UNL     1      29.414  -1.549  53.271  1.00  0.00     0.008 A 
HETATM   23  C15 UNL     1      28.155  -1.850  52.869  1.00  0.00    -0.045 A 
HETATM   24  C16 UNL     1      27.304  -0.738  52.958  1.00  0.00    -0.026 A 
HETATM   25  C17 UNL     1      26.779  -2.084  52.455  1.00  0.00     0.080 A 
ENDBRANCH  17  19
ENDBRANCH   1  17
TORSDOF 8
ENDMDL
MODEL 7
REMARK VINA RESULT:      -7.4      2.854      5.534
REMARK  8 active torsions:
REMARK  status: ('A' for Active; 'I' for Inactive)
REMARK    1  A    between atoms: C4_4  and  C5_5 
REMARK    2  A    between atoms: C5_5  and  C6_6 
REMARK    3  A    between atoms: C6_6  and  O2_8 
REMARK    4  A    between atoms: C7_9  and  C8_10 
REMARK    5  A    between atoms: C9_11  and  C10_12 
REMARK    6  A    between atoms: C10_12  and  N1_13 
REMARK    7  A    between atoms: C10_12  and  N2_14 
REMARK    8  A    between atoms: N2_14  and  C11_15 
ROOT
HETATM    1  C10 UNL     1      24.707  -0.027  52.938  1.00  0.00     0.318 C 
ENDROOT
BRANCH   1   2
HETATM    2  C9  UNL     1      23.947   1.219  53.038  1.00  0.00     0.024 C 
HETATM    3  C8  UNL     1      23.446   2.177  52.332  1.00  0.00     0.012 C 
BRANCH   3   4
HETATM    4  C7  UNL     1      23.417   2.484  50.878  1.00  0.00    -0.024 A 
HETATM    5  C2  UNL     1      22.639   2.015  49.751  1.00  0.00    -0.051 A 
HETATM    6  C1  UNL     1      21.569   1.121  49.332  1.00  0.00     0.049 C 
HETATM    7  C3  UNL     1      23.371   2.854  48.989  1.00  0.00     0.016 A 
HETATM    8  C4  UNL     1      24.141   3.310  50.134  1.00  0.00    -0.037 A 
BRANCH   8   9
HETATM    9  C5  UNL     1      25.238   4.270  50.293  1.00  0.00     0.149 C 
BRANCH   9  10
HETATM   10  C6  UNL     1      26.553   3.585  50.073  1.00  0.00     0.143 C 
HETATM   11  O1  UNL     1      26.719   2.437  50.547  1.00  0.00    -0.650 OA
BRANCH  10  12
HETATM   12  O2  UNL     1      27.545   4.278  49.340  1.00  0.00    -0.776 OA
HETATM   13  H7  UNL     1      27.544   4.080  48.329  1.00  0.00     0.167 HD
ENDBRANCH  10  12
ENDBRANCH   9  10
ENDBRANCH   8   9
ENDBRANCH   3   4
ENDBRANCH   1   2
BRANCH   1  14
HETATM   14  N1  UNL     1      24.743  -0.587  54.375  1.00  0.00     0.100 N 
HETATM   15  H11 UNL     1      25.621  -0.139  54.722  1.00  0.00     0.315 HD
HETATM   16  H12 UNL     1      24.966  -1.589  54.211  1.00  0.00     0.315 HD
ENDBRANCH   1  14
BRANCH   1  17
HETATM   17  N2  UNL     1      26.086  -0.014  52.633  1.00  0.00    -0.260 NA
HETATM   18  H13 UNL     1      25.958  -0.514  53.525  1.00  0.00     0.130 HD
BRANCH  17  19
HETATM   19  C11 UNL     1      27.447  -0.379  52.977  1.00  0.00     0.017 A 
HETATM   20  C12 UNL     1      28.352  -1.393  53.102  1.00  0.00     0.024 A 
HETATM   21  C13 UNL     1      29.658  -1.327  53.469  1.00  0.00     0.002 A 
HETATM   22  C14 UNL     1      30.021  -0.029  53.727  1.00  0.00     0.008 A 
HETATM   23  C15 UNL     1      29.325   1.133  53.676  1.00  0.00    -0.045 A 
HETATM   24  C16 UNL     1      27.994   0.921  53.285  1.00  0.00    -0.026 A 
HETATM   25  C17 UNL     1      28.501   2.331  53.596  1.00  0.00     0.080 A 
ENDBRANCH  17  19
ENDBRANCH   1  17
TORSDOF 8
ENDMDL
MODEL 8
REMARK VINA RESULT:      -7.4      2.206      2.966
REMARK  8 active torsions:
REMARK  status: ('A' for Active; 'I' for Inactive)
REMARK    1  A    between atoms: C4_4  and  C5_5 
REMARK    2  A    between atoms: C5_5  and  C6_6 
REMARK    3  A    between atoms: C6_6  and  O2_8 
REMARK    4  A    between atoms: C7_9  and  C8_10 
REMARK    5  A    between atoms: C9_11  and  C10_12 
REMARK    6  A    between atoms: C10_12  and  N1_13 
REMARK    7  A    between atoms: C10_12  and  N2_14 
REMARK    8  A    between atoms: N2_14  and  C11_15 
ROOT
HETATM    1  C10 UNL     1      21.940   2.058  49.678  1.00  0.00     0.318 C 
ENDROOT
BRANCH   1   2
HETATM    2  C9  UNL     1      22.049   1.122  50.797  1.00  0.00     0.024 C 
HETATM    3  C8  UNL     1      22.724   0.876  51.869  1.00  0.00     0.012 C 
BRANCH   3   4
HETATM    4  C7  UNL     1      23.870   1.540  52.544  1.00  0.00    -0.024 A 
HETATM    5  C2  UNL     1      24.184   2.902  52.920  1.00  0.00    -0.051 A 
HETATM    6  C1  UNL     1      23.710   4.279  52.914  1.00  0.00     0.049 C 
HETATM    7  C3  UNL     1      25.349   2.423  53.404  1.00  0.00     0.016 A 
HETATM    8  C4  UNL     1      25.014   1.063  53.018  1.00  0.00    -0.037 A 
BRANCH   8   9
HETATM    9  C5  UNL     1      25.715  -0.219  53.135  1.00  0.00     0.149 C 
BRANCH   9  10
HETATM   10  C6  UNL     1      25.982  -0.527  54.577  1.00  0.00     0.143 C 
HETATM   11  O1  UNL     1      25.079  -1.075  55.251  1.00  0.00    -0.650 OA
BRANCH  10  12
HETATM   12  O2  UNL     1      27.247  -0.179  55.104  1.00  0.00    -0.776 OA
HETATM   13  H7  UNL     1      27.316   0.790  55.445  1.00  0.00     0.167 HD
ENDBRANCH  10  12
ENDBRANCH   9  10
ENDBRANCH   8   9
ENDBRANCH   3   4
ENDBRANCH   1   2
BRANCH   1  14
HETATM   14  N1  UNL     1      21.573   1.183  48.462  1.00  0.00     0.100 N 
HETATM   15  H11 UNL     1      22.528   0.973  48.094  1.00  0.00     0.315 HD
HETATM   16  H12 UNL     1      21.153   1.880  47.813  1.00  0.00     0.315 HD
ENDBRANCH   1  14
BRANCH   1  17
HETATM   17  N2  UNL     1      23.080   2.727  49.177  1.00  0.00    -0.260 NA
HETATM   18  H13 UNL     1      22.525   3.401  49.724  1.00  0.00     0.130 HD
BRANCH  17  19
HETATM   19  C11 UNL     1      23.871   3.937  49.061  1.00  0.00     0.017 A 
HETATM   20  C12 UNL     1      23.873   5.264  48.739  1.00  0.00     0.024 A 
HETATM   21  C13 UNL     1      24.905   6.146  48.774  1.00  0.00     0.002 A 
HETATM   22  C14 UNL     1      26.052   5.527  49.201  1.00  0.00     0.008 A 
HETATM   23  C15 UNL     1      26.307   4.250  49.574  1.00  0.00    -0.045 A 
HETATM   24  C16 UNL     1      25.159   3.448  49.490  1.00  0.00    -0.026 A 
HETATM   25  C17 UNL     1      26.491   2.856  49.956  1.00  0.00     0.080 A 
ENDBRANCH  17  19
ENDBRANCH   1  17
TORSDOF 8
ENDMDL
MODEL 9
REMARK VINA RESULT:      -7.4      1.260      1.554
REMARK  8 active torsions:
REMARK  status: ('A' for Active; 'I' for Inactive)
REMARK    1  A    between atoms: C4_4  and  C5_5 
REMARK    2  A    between atoms: C5_5  and  C6_6 
REMARK    3  A    between atoms: C6_6  and  O2_8 
REMARK    4  A    between atoms: C7_9  and  C8_10 
REMARK    5  A    between atoms: C9_11  and  C10_12 
REMARK    6  A    between atoms: C10_12  and  N1_13 
REMARK    7  A    between atoms: C10_12  and  N2_14 
REMARK    8  A    between atoms: N2_14  and  C11_15 
ROOT
HETATM    1  C10 UNL     1      24.632   3.283  51.818  1.00  0.00     0.318 C 
ENDROOT
BRANCH   1   2
HETATM    2  C9  UNL     1      23.604   2.293  51.498  1.00  0.00     0.024 C 
HETATM    3  C8  UNL     1      23.094   1.176  51.896  1.00  0.00     0.012 C 
BRANCH   3   4
HETATM    4  C7  UNL     1      23.371   0.259  53.032  1.00  0.00    -0.024 A 
HETATM    5  C2  UNL     1      22.564  -0.383  54.047  1.00  0.00    -0.051 A 
HETATM    6  C1  UNL     1      21.212  -0.556  54.560  1.00  0.00     0.049 C 
HETATM    7  C3  UNL     1      23.709  -0.919  54.517  1.00  0.00     0.016 A 
HETATM    8  C4  UNL     1      24.502  -0.264  53.489  1.00  0.00    -0.037 A 
BRANCH   8   9
HETATM    9  C5  UNL     1      25.935  -0.245  53.182  1.00  0.00     0.149 C 
BRANCH   9  10
HETATM   10  C6  UNL     1      26.684   0.453  54.277  1.00  0.00     0.143 C 
HETATM   11  O1  UNL     1      26.431   1.659  54.503  1.00  0.00    -0.650 OA
BRANCH  10  12
HETATM   12  O2  UNL     1      27.644  -0.292  55.000  1.00  0.00    -0.776 OA
HETATM   13  H7  UNL     1      28.590  -0.278  54.594  1.00  0.00     0.167 HD
ENDBRANCH  10  12
ENDBRANCH   9  10
ENDBRANCH   8   9
ENDBRANCH   3   4
ENDBRANCH   1   2
BRANCH   1  14
HETATM   14  N1  UNL     1      24.503   3.513  53.339  1.00  0.00     0.100 N 
HETATM   15  H11 UNL     1      24.718   4.535  53.386  1.00  0.00     0.315 HD
HETATM   16  H12 UNL     1      25.341   3.018  53.704  1.00  0.00     0.315 HD
ENDBRANCH   1  14
BRANCH   1  17
HETATM   17  N2  UNL     1      24.532   4.612  51.349  1.00  0.00    -0.260 NA
HETATM   18  H13 UNL     1      25.116   4.080  50.688  1.00  0.00     0.130 HD
BRANCH  17  19
HETATM   19  C11 UNL     1      24.861   5.617  50.356  1.00  0.00     0.017 A 
HETATM   20  C12 UNL     1      24.554   6.843  49.839  1.00  0.00     0.024 A 
HETATM   21  C13 UNL     1      25.159   7.513  48.824  1.00  0.00     0.002 A 
HETATM   22  C14 UNL     1      26.203   6.780  48.318  1.00  0.00     0.008 A 
HETATM   23  C15 UNL     1      26.699   5.564  48.649  1.00  0.00    -0.045 A 
HETATM   24  C16 UNL     1      25.984   4.985  49.708  1.00  0.00    -0.026 A 
HETATM   25  C17 UNL     1      27.166   4.251  49.071  1.00  0.00     0.080 A 
ENDBRANCH  17  19
ENDBRANCH   1  17
TORSDOF 8
ENDMDL
