MODEL 1
REMARK VINA RESULT:      -7.5      0.000      0.000
REMARK  3 active torsions:
REMARK  status: ('A' for Active; 'I' for Inactive)
REMARK    1  A    between atoms: S1_2  and  N1_4 
REMARK    2  A    between atoms: S1_2  and  C10_14 
REMARK    3  A    between atoms: N1_4  and  C1_5 
ROOT
HETATM    1  N1  UNL     1      26.012   0.441  54.546  1.00  0.00    -0.206 NA
HETATM    2  H1  UNL     1      25.666   0.964  53.712  1.00  0.00     0.140 HD
ENDROOT
BRANCH   1   3
HETATM    3  S1  UNL     1      24.913  -0.847  54.925  1.00  0.00     0.242 S 
HETATM    4  O1  UNL     1      25.467  -2.164  54.487  1.00  0.00    -0.206 OA
HETATM    5  O2  UNL     1      24.619  -0.872  56.397  1.00  0.00    -0.206 OA
BRANCH   3   6
HETATM    6  C10 UNL     1      23.387  -0.532  54.114  1.00  0.00     0.074 A 
HETATM    7  C11 UNL     1      23.223   0.274  53.004  1.00  0.00     0.026 A 
HETATM    8  C12 UNL     1      21.980   0.457  52.440  1.00  0.00     0.020 A 
HETATM    9  C13 UNL     1      20.841  -0.154  52.956  1.00  0.00     0.011 A 
HETATM   10 BR1  UNL     1      19.113   0.080  52.200  1.00  0.00    -0.051 Br
HETATM   11  C14 UNL     1      20.961  -0.966  54.063  1.00  0.00     0.020 A 
HETATM   12  C15 UNL     1      22.221  -1.123  54.596  1.00  0.00     0.026 A 
ENDBRANCH   3   6
ENDBRANCH   1   3
BRANCH   1  13
HETATM   13  C1  UNL     1      27.361  -0.025  54.419  1.00  0.00     0.112 C 
HETATM   14  C2  UNL     1      27.557  -0.539  52.994  1.00  0.00    -0.057 C 
HETATM   15  C3  UNL     1      26.865  -0.055  51.974  1.00  0.00     0.004 C 
HETATM   16  C9  UNL     1      28.682  -1.564  53.016  1.00  0.00     0.062 C 
HETATM   17  C4  UNL     1      26.931   1.431  52.125  1.00  0.00    -0.003 C 
HETATM   18  C5  UNL     1      27.611   1.976  53.154  1.00  0.00    -0.016 C 
HETATM   19  C6  UNL     1      28.296   1.224  54.264  1.00  0.00     0.053 C 
HETATM   20  C7  UNL     1      29.605   0.697  53.735  1.00  0.00    -0.020 C 
HETATM   21  C8  UNL     1      29.812  -0.624  53.483  1.00  0.00    -0.026 C 
ENDBRANCH   1  13
TORSDOF 3
ENDMDL
MODEL 2
REMARK VINA RESULT:      -7.5      2.797      3.457
REMARK  3 active torsions:
REMARK  status: ('A' for Active; 'I' for Inactive)
REMARK    1  A    between atoms: S1_2  and  N1_4 
REMARK    2  A    between atoms: S1_2  and  C10_14 
REMARK    3  A    between atoms: N1_4  and  C1_5 
ROOT
HETATM    1  N1  UNL     1      24.451   1.183  53.334  1.00  0.00    -0.206 NA
HETATM    2  H1  UNL     1      24.727   1.951  52.685  1.00  0.00     0.140 HD
ENDROOT
BRANCH   1   3
HETATM    3  S1  UNL     1      22.938   0.503  52.824  1.00  0.00     0.242 S 
HETATM    4  O1  UNL     1      23.009  -0.990  52.796  1.00  0.00    -0.206 OA
HETATM    5  O2  UNL     1      21.827   0.952  53.729  1.00  0.00    -0.206 OA
BRANCH   3   6
HETATM    6  C10 UNL     1      22.563   1.121  51.224  1.00  0.00     0.074 A 
HETATM    7  C11 UNL     1      21.580   0.628  50.387  1.00  0.00     0.026 A 
HETATM    8  C12 UNL     1      21.364   1.185  49.145  1.00  0.00     0.020 A 
HETATM    9  C13 UNL     1      22.116   2.258  48.680  1.00  0.00     0.011 A 
HETATM   10 BR1  UNL     1      21.842   3.047  46.973  1.00  0.00    -0.051 Br
HETATM   11  C14 UNL     1      23.107   2.780  49.483  1.00  0.00     0.020 A 
HETATM   12  C15 UNL     1      23.291   2.196  50.717  1.00  0.00     0.026 A 
ENDBRANCH   3   6
ENDBRANCH   1   3
BRANCH   1  13
HETATM   13  C1  UNL     1      25.459   0.179  53.506  1.00  0.00     0.112 C 
HETATM   14  C2  UNL     1      26.284   0.104  52.223  1.00  0.00    -0.057 C 
HETATM   15  C3  UNL     1      26.443   1.155  51.431  1.00  0.00     0.004 C 
HETATM   16  C9  UNL     1      26.887  -1.289  52.133  1.00  0.00     0.062 C 
HETATM   17  C4  UNL     1      26.795   2.285  52.345  1.00  0.00    -0.003 C 
HETATM   18  C5  UNL     1      26.888   2.075  53.674  1.00  0.00    -0.016 C 
HETATM   19  C6  UNL     1      26.603   0.783  54.392  1.00  0.00     0.053 C 
HETATM   20  C7  UNL     1      27.791  -0.126  54.210  1.00  0.00    -0.020 C 
HETATM   21  C8  UNL     1      27.753  -1.225  53.408  1.00  0.00    -0.026 C 
ENDBRANCH   1  13
TORSDOF 3
ENDMDL
MODEL 3
REMARK VINA RESULT:      -7.4      3.442      6.738
REMARK  3 active torsions:
REMARK  status: ('A' for Active; 'I' for Inactive)
REMARK    1  A    between atoms: S1_2  and  N1_4 
REMARK    2  A    between atoms: S1_2  and  C10_14 
REMARK    3  A    between atoms: N1_4  and  C1_5 
ROOT
HETATM    1  N1  UNL     1      22.861   1.671  53.359  1.00  0.00    -0.206 NA
HETATM    2  H1  UNL     1      23.192   0.753  53.728  1.00  0.00     0.140 HD
ENDROOT
BRANCH   1   3
HETATM    3  S1  UNL     1      24.202   2.553  52.699  1.00  0.00     0.242 S 
HETATM    4  O1  UNL     1      24.003   2.808  51.240  1.00  0.00    -0.206 OA
HETATM    5  O2  UNL     1      24.390   3.850  53.432  1.00  0.00    -0.206 OA
BRANCH   3   6
HETATM    6  C10 UNL     1      25.664   1.615  52.956  1.00  0.00     0.074 A 
HETATM    7  C11 UNL     1      26.759   2.026  53.692  1.00  0.00     0.026 A 
HETATM    8  C12 UNL     1      27.862   1.213  53.834  1.00  0.00     0.020 A 
HETATM    9  C13 UNL     1      27.926  -0.047  53.249  1.00  0.00     0.011 A 
HETATM   10 BR1  UNL     1      29.433  -1.191  53.427  1.00  0.00    -0.051 Br
HETATM   11  C14 UNL     1      26.855  -0.496  52.506  1.00  0.00     0.020 A 
HETATM   12  C15 UNL     1      25.772   0.347  52.389  1.00  0.00     0.026 A 
ENDBRANCH   3   6
ENDBRANCH   1   3
BRANCH   1  13
HETATM   13  C1  UNL     1      21.779   1.563  52.425  1.00  0.00     0.112 C 
HETATM   14  C2  UNL     1      21.761   0.138  51.876  1.00  0.00    -0.057 C 
HETATM   15  C3  UNL     1      22.206  -0.890  52.582  1.00  0.00     0.004 C 
HETATM   16  C9  UNL     1      21.097   0.172  50.507  1.00  0.00     0.062 C 
HETATM   17  C4  UNL     1      21.596  -0.727  53.938  1.00  0.00    -0.003 C 
HETATM   18  C5  UNL     1      20.781   0.317  54.191  1.00  0.00    -0.016 C 
HETATM   19  C6  UNL     1      20.445   1.433  53.239  1.00  0.00     0.053 C 
HETATM   20  C7  UNL     1      19.415   0.923  52.264  1.00  0.00    -0.020 C 
HETATM   21  C8  UNL     1      19.707   0.664  50.961  1.00  0.00    -0.026 C 
ENDBRANCH   1  13
TORSDOF 3
ENDMDL
MODEL 4
REMARK VINA RESULT:      -7.4      5.366      7.041
REMARK  3 active torsions:
REMARK  status: ('A' for Active; 'I' for Inactive)
REMARK    1  A    between atoms: S1_2  and  N1_4 
REMARK    2  A    between atoms: S1_2  and  C10_14 
REMARK    3  A    between atoms: N1_4  and  C1_5 
ROOT
HETATM    1  N1  UNL     1      26.390   2.913  51.322  1.00  0.00    -0.206 NA
HETATM    2  H1  UNL     1      27.332   2.881  50.874  1.00  0.00     0.140 HD
ENDROOT
BRANCH   1   3
HETATM    3  S1  UNL     1      25.300   3.824  50.326  1.00  0.00     0.242 S 
HETATM    4  O1  UNL     1      24.522   2.921  49.426  1.00  0.00    -0.206 OA
HETATM    5  O2  UNL     1      24.367   4.639  51.176  1.00  0.00    -0.206 OA
BRANCH   3   6
HETATM    6  C10 UNL     1      26.238   4.965  49.375  1.00  0.00     0.074 A 
HETATM    7  C11 UNL     1      25.799   6.203  48.951  1.00  0.00     0.026 A 
HETATM    8  C12 UNL     1      26.614   7.027  48.206  1.00  0.00     0.020 A 
HETATM    9  C13 UNL     1      27.906   6.654  47.850  1.00  0.00     0.011 A 
HETATM   10 BR1  UNL     1      29.055   7.768  46.824  1.00  0.00    -0.051 Br
HETATM   11  C14 UNL     1      28.384   5.426  48.253  1.00  0.00     0.020 A 
HETATM   12  C15 UNL     1      27.538   4.633  48.996  1.00  0.00     0.026 A 
ENDBRANCH   3   6
ENDBRANCH   1   3
BRANCH   1  13
HETATM   13  C1  UNL     1      25.862   1.623  51.654  1.00  0.00     0.112 C 
HETATM   14  C2  UNL     1      26.982   0.792  52.277  1.00  0.00    -0.057 C 
HETATM   15  C3  UNL     1      27.981   1.353  52.942  1.00  0.00     0.004 C 
HETATM   16  C9  UNL     1      26.658  -0.677  52.051  1.00  0.00     0.062 C 
HETATM   17  C4  UNL     1      27.335   2.337  53.864  1.00  0.00    -0.003 C 
HETATM   18  C5  UNL     1      25.993   2.476  53.872  1.00  0.00    -0.016 C 
HETATM   19  C6  UNL     1      25.021   1.764  52.970  1.00  0.00     0.053 C 
HETATM   20  C7  UNL     1      24.836   0.362  53.493  1.00  0.00    -0.020 C 
HETATM   21  C8  UNL     1      25.344  -0.728  52.858  1.00  0.00    -0.026 C 
ENDBRANCH   1  13
TORSDOF 3
ENDMDL
MODEL 5
REMARK VINA RESULT:      -7.4      3.602      6.444
REMARK  3 active torsions:
REMARK  status: ('A' for Active; 'I' for Inactive)
REMARK    1  A    between atoms: S1_2  and  N1_4 
REMARK    2  A    between atoms: S1_2  and  C10_14 
REMARK    3  A    between atoms: N1_4  and  C1_5 
ROOT
HETATM    1  N1  UNL     1      22.464   2.334  52.123  1.00  0.00    -0.206 NA
HETATM    2  H1  UNL     1      21.638   2.970  52.149  1.00  0.00     0.140 HD
ENDROOT
BRANCH   1   3
HETATM    3  S1  UNL     1      23.922   3.260  52.291  1.00  0.00     0.242 S 
HETATM    4  O1  UNL     1      24.171   4.086  51.071  1.00  0.00    -0.206 OA
HETATM    5  O2  UNL     1      23.849   4.138  53.507  1.00  0.00    -0.206 OA
BRANCH   3   6
HETATM    6  C10 UNL     1      25.258   2.150  52.553  1.00  0.00     0.074 A 
HETATM    7  C11 UNL     1      25.799   1.311  51.598  1.00  0.00     0.026 A 
HETATM    8  C12 UNL     1      26.850   0.475  51.905  1.00  0.00     0.020 A 
HETATM    9  C13 UNL     1      27.410   0.435  53.177  1.00  0.00     0.011 A 
HETATM   10 BR1  UNL     1      28.859  -0.708  53.631  1.00  0.00    -0.051 Br
HETATM   11  C14 UNL     1      26.899   1.255  54.160  1.00  0.00     0.020 A 
HETATM   12  C15 UNL     1      25.849   2.076  53.813  1.00  0.00     0.026 A 
ENDBRANCH   3   6
ENDBRANCH   1   3
BRANCH   1  13
HETATM   13  C1  UNL     1      22.398   1.261  53.070  1.00  0.00     0.112 C 
HETATM   14  C2  UNL     1      20.930   1.011  53.409  1.00  0.00    -0.057 C 
HETATM   15  C3  UNL     1      19.959   1.268  52.546  1.00  0.00     0.004 C 
HETATM   16  C9  UNL     1      20.869   0.379  54.792  1.00  0.00     0.062 C 
HETATM   17  C4  UNL     1      20.419   0.678  51.251  1.00  0.00    -0.003 C 
HETATM   18  C5  UNL     1      21.608   0.046  51.181  1.00  0.00    -0.016 C 
HETATM   19  C6  UNL     1      22.611  -0.087  52.296  1.00  0.00     0.053 C 
HETATM   20  C7  UNL     1      22.137  -1.175  53.225  1.00  0.00    -0.020 C 
HETATM   21  C8  UNL     1      21.644  -0.914  54.466  1.00  0.00    -0.026 C 
ENDBRANCH   1  13
TORSDOF 3
ENDMDL
MODEL 6
REMARK VINA RESULT:      -7.3      9.412     10.668
REMARK  3 active torsions:
REMARK  status: ('A' for Active; 'I' for Inactive)
REMARK    1  A    between atoms: S1_2  and  N1_4 
REMARK    2  A    between atoms: S1_2  and  C10_14 
REMARK    3  A    between atoms: N1_4  and  C1_5 
ROOT
HETATM    1  N1  UNL     1      32.386   4.420  48.642  1.00  0.00    -0.206 NA
HETATM    2  H1  UNL     1      32.678   3.765  49.399  1.00  0.00     0.140 HD
ENDROOT
BRANCH   1   3
HETATM    3  S1  UNL     1      31.989   5.964  49.327  1.00  0.00     0.242 S 
HETATM    4  O1  UNL     1      31.940   5.888  50.818  1.00  0.00    -0.206 OA
HETATM    5  O2  UNL     1      32.982   7.004  48.893  1.00  0.00    -0.206 OA
BRANCH   3   6
HETATM    6  C10 UNL     1      30.428   6.466  48.696  1.00  0.00     0.074 A 
HETATM    7  C11 UNL     1      29.368   5.624  48.422  1.00  0.00     0.026 A 
HETATM    8  C12 UNL     1      28.181   6.118  47.928  1.00  0.00     0.020 A 
HETATM    9  C13 UNL     1      27.995   7.475  47.683  1.00  0.00     0.011 A 
HETATM   10 BR1  UNL     1      26.370   8.187  47.001  1.00  0.00    -0.051 Br
HETATM   11  C14 UNL     1      29.028   8.350  47.942  1.00  0.00     0.020 A 
HETATM   12  C15 UNL     1      30.197   7.816  48.436  1.00  0.00     0.026 A 
ENDBRANCH   3   6
ENDBRANCH   1   3
BRANCH   1  13
HETATM   13  C1  UNL     1      33.337   4.535  47.576  1.00  0.00     0.112 C 
HETATM   14  C2  UNL     1      33.904   3.146  47.288  1.00  0.00    -0.057 C 
HETATM   15  C3  UNL     1      33.202   2.045  47.511  1.00  0.00     0.004 C 
HETATM   16  C9  UNL     1      35.281   3.321  46.668  1.00  0.00     0.062 C 
HETATM   17  C4  UNL     1      31.854   2.313  46.921  1.00  0.00    -0.003 C 
HETATM   18  C5  UNL     1      31.601   3.494  46.323  1.00  0.00    -0.016 C 
HETATM   19  C6  UNL     1      32.545   4.663  46.229  1.00  0.00     0.053 C 
HETATM   20  C7  UNL     1      33.542   4.373  45.135  1.00  0.00    -0.020 C 
HETATM   21  C8  UNL     1      34.844   4.074  45.394  1.00  0.00    -0.026 C 
ENDBRANCH   1  13
TORSDOF 3
ENDMDL
MODEL 7
REMARK VINA RESULT:      -7.1      3.901      7.116
REMARK  3 active torsions:
REMARK  status: ('A' for Active; 'I' for Inactive)
REMARK    1  A    between atoms: S1_2  and  N1_4 
REMARK    2  A    between atoms: S1_2  and  C10_14 
REMARK    3  A    between atoms: N1_4  and  C1_5 
ROOT
HETATM    1  N1  UNL     1      23.581   1.680  51.027  1.00  0.00    -0.206 NA
HETATM    2  H1  UNL     1      23.528   2.006  50.037  1.00  0.00     0.140 HD
ENDROOT
BRANCH   1   3
HETATM    3  S1  UNL     1      24.768   2.609  51.886  1.00  0.00     0.242 S 
HETATM    4  O1  UNL     1      25.284   3.726  51.037  1.00  0.00    -0.206 OA
HETATM    5  O2  UNL     1      24.189   3.152  53.161  1.00  0.00    -0.206 OA
BRANCH   3   6
HETATM    6  C10 UNL     1      26.083   1.541  52.346  1.00  0.00     0.074 A 
HETATM    7  C11 UNL     1      26.066   0.163  52.247  1.00  0.00     0.026 A 
HETATM    8  C12 UNL     1      27.153  -0.588  52.636  1.00  0.00     0.020 A 
HETATM    9  C13 UNL     1      28.308  -0.002  53.143  1.00  0.00     0.011 A 
HETATM   10 BR1  UNL     1      29.824  -1.011  53.688  1.00  0.00    -0.051 Br
HETATM   11  C14 UNL     1      28.367   1.370  53.259  1.00  0.00     0.020 A 
HETATM   12  C15 UNL     1      27.260   2.085  52.859  1.00  0.00     0.026 A 
ENDBRANCH   3   6
ENDBRANCH   1   3
BRANCH   1  13
HETATM   13  C1  UNL     1      22.317   1.669  51.702  1.00  0.00     0.112 C 
HETATM   14  C2  UNL     1      21.469   2.812  51.148  1.00  0.00    -0.057 C 
HETATM   15  C3  UNL     1      21.619   3.258  49.909  1.00  0.00     0.004 C 
HETATM   16  C9  UNL     1      20.460   3.208  52.215  1.00  0.00     0.062 C 
HETATM   17  C4  UNL     1      21.665   2.032  49.054  1.00  0.00    -0.003 C 
HETATM   18  C5  UNL     1      21.554   0.811  49.617  1.00  0.00    -0.016 C 
HETATM   19  C6  UNL     1      21.446   0.518  51.089  1.00  0.00     0.053 C 
HETATM   20  C7  UNL     1      20.029   0.797  51.521  1.00  0.00    -0.020 C 
HETATM   21  C8  UNL     1      19.698   1.869  52.291  1.00  0.00    -0.026 C 
ENDBRANCH   1  13
TORSDOF 3
ENDMDL
MODEL 8
REMARK VINA RESULT:      -7.1      3.574      5.867
REMARK  3 active torsions:
REMARK  status: ('A' for Active; 'I' for Inactive)
REMARK    1  A    between atoms: S1_2  and  N1_4 
REMARK    2  A    between atoms: S1_2  and  C10_14 
REMARK    3  A    between atoms: N1_4  and  C1_5 
ROOT
HETATM    1  N1  UNL     1      22.977   1.353  53.090  1.00  0.00    -0.206 NA
HETATM    2  H1  UNL     1      22.055   1.612  53.504  1.00  0.00     0.140 HD
ENDROOT
BRANCH   1   3
HETATM    3  S1  UNL     1      23.403  -0.258  53.574  1.00  0.00     0.242 S 
HETATM    4  O1  UNL     1      22.906  -0.548  54.953  1.00  0.00    -0.206 OA
HETATM    5  O2  UNL     1      22.854  -1.262  52.602  1.00  0.00    -0.206 OA
BRANCH   3   6
HETATM    6  C10 UNL     1      25.152  -0.410  53.517  1.00  0.00     0.074 A 
HETATM    7  C11 UNL     1      25.861  -1.145  52.587  1.00  0.00     0.026 A 
HETATM    8  C12 UNL     1      27.237  -1.201  52.629  1.00  0.00     0.020 A 
HETATM    9  C13 UNL     1      27.971  -0.527  53.599  1.00  0.00     0.011 A 
HETATM   10 BR1  UNL     1      29.869  -0.585  53.683  1.00  0.00    -0.051 Br
HETATM   11  C14 UNL     1      27.303   0.218  54.547  1.00  0.00     0.020 A 
HETATM   12  C15 UNL     1      25.928   0.248  54.470  1.00  0.00     0.026 A 
ENDBRANCH   3   6
ENDBRANCH   1   3
BRANCH   1  13
HETATM   13  C1  UNL     1      23.042   1.520  51.668  1.00  0.00     0.112 C 
HETATM   14  C2  UNL     1      22.038   2.599  51.267  1.00  0.00    -0.057 C 
HETATM   15  C3  UNL     1      21.696   3.578  52.092  1.00  0.00     0.004 C 
HETATM   16  C9  UNL     1      21.640   2.355  49.819  1.00  0.00     0.062 C 
HETATM   17  C4  UNL     1      22.985   4.090  52.649  1.00  0.00    -0.003 C 
HETATM   18  C5  UNL     1      24.154   3.539  52.263  1.00  0.00    -0.016 C 
HETATM   19  C6  UNL     1      24.320   2.365  51.335  1.00  0.00     0.053 C 
HETATM   20  C7  UNL     1      24.134   2.855  49.921  1.00  0.00    -0.020 C 
HETATM   21  C8  UNL     1      23.031   2.554  49.183  1.00  0.00    -0.026 C 
ENDBRANCH   1  13
TORSDOF 3
ENDMDL
MODEL 9
REMARK VINA RESULT:      -7.0      2.517      3.332
REMARK  3 active torsions:
REMARK  status: ('A' for Active; 'I' for Inactive)
REMARK    1  A    between atoms: S1_2  and  N1_4 
REMARK    2  A    between atoms: S1_2  and  C10_14 
REMARK    3  A    between atoms: N1_4  and  C1_5 
ROOT
HETATM    1  N1  UNL     1      25.465   1.684  53.442  1.00  0.00    -0.206 NA
HETATM    2  H1  UNL     1      25.684   2.426  54.141  1.00  0.00     0.140 HD
ENDROOT
BRANCH   1   3
HETATM    3  S1  UNL     1      24.756   2.403  52.030  1.00  0.00     0.242 S 
HETATM    4  O1  UNL     1      24.677   3.888  52.173  1.00  0.00    -0.206 OA
HETATM    5  O2  UNL     1      25.542   2.041  50.803  1.00  0.00    -0.206 OA
BRANCH   3   6
HETATM    6  C10 UNL     1      23.148   1.730  51.813  1.00  0.00     0.074 A 
HETATM    7  C11 UNL     1      22.531   1.511  50.596  1.00  0.00     0.026 A 
HETATM    8  C12 UNL     1      21.262   0.977  50.532  1.00  0.00     0.020 A 
HETATM    9  C13 UNL     1      20.550   0.636  51.677  1.00  0.00     0.011 A 
HETATM   10 BR1  UNL     1      18.800  -0.103  51.621  1.00  0.00    -0.051 Br
HETATM   11  C14 UNL     1      21.129   0.838  52.911  1.00  0.00     0.020 A 
HETATM   12  C15 UNL     1      22.398   1.374  52.932  1.00  0.00     0.026 A 
ENDBRANCH   3   6
ENDBRANCH   1   3
BRANCH   1  13
HETATM   13  C1  UNL     1      26.582   0.849  53.114  1.00  0.00     0.112 C 
HETATM   14  C2  UNL     1      27.170   0.303  54.413  1.00  0.00    -0.057 C 
HETATM   15  C3  UNL     1      26.426   0.118  55.494  1.00  0.00     0.004 C 
HETATM   16  C9  UNL     1      28.634  -0.024  54.165  1.00  0.00     0.062 C 
HETATM   17  C4  UNL     1      25.199  -0.587  55.008  1.00  0.00    -0.003 C 
HETATM   18  C5  UNL     1      25.066  -0.890  53.701  1.00  0.00    -0.016 C 
HETATM   19  C6  UNL     1      26.030  -0.526  52.602  1.00  0.00     0.053 C 
HETATM   20  C7  UNL     1      27.191  -1.486  52.661  1.00  0.00    -0.020 C 
HETATM   21  C8  UNL     1      28.427  -1.111  53.090  1.00  0.00    -0.026 C 
ENDBRANCH   1  13
TORSDOF 3
ENDMDL
