MODEL 1
REMARK VINA RESULT:      -8.7      0.000      0.000
REMARK  5 active torsions:
REMARK  status: ('A' for Active; 'I' for Inactive)
REMARK    1  A    between atoms: C2_2  and  C5_5 
REMARK    2  A    between atoms: C7_7  and  C8_8 
REMARK    3  A    between atoms: C9_9  and  C11_12 
REMARK       I    between atoms: C11_12  and  N2_13 
REMARK    4  A    between atoms: C13_16  and  C14_17 
REMARK    5  A    between atoms: C14_17  and  O2_20 
ROOT
HETATM    1  C8  UNL     1      27.152  -0.826  52.931  1.00  0.00     0.039 C 
HETATM    2  C9  UNL     1      28.303  -0.789  53.546  1.00  0.00     0.112 C 
HETATM    3  C10 UNL     1      28.544   0.428  54.288  1.00  0.00     0.105 C 
HETATM    4  N1  UNL     1      28.744   1.434  54.880  1.00  0.00    -0.191 NA
ENDROOT
BRANCH   2   5
HETATM    5  C11 UNL     1      29.256  -1.885  53.476  1.00  0.00     0.260 C 
HETATM    6  N2  UNL     1      28.684  -3.158  53.110  1.00  0.00    -0.365 N 
HETATM    7  H12 UNL     1      29.400  -3.624  52.492  1.00  0.00     0.159 HD
HETATM    8  H13 UNL     1      27.728  -3.397  53.483  1.00  0.00     0.159 HD
HETATM    9  O1  UNL     1      30.459  -1.629  53.738  1.00  0.00    -0.267 OA
ENDBRANCH   2   5
BRANCH   1  10
HETATM   10  C7  UNL     1      25.963  -0.037  52.718  1.00  0.00    -0.033 A 
HETATM   11  C6  UNL     1      24.784  -0.527  53.274  1.00  0.00     0.019 A 
HETATM   12  C5  UNL     1      23.576   0.126  53.111  1.00  0.00    -0.049 A 
HETATM   13  C17 UNL     1      23.553   1.284  52.382  1.00  0.00     0.018 A 
HETATM   14  C13 UNL     1      24.705   1.792  51.820  1.00  0.00    -0.024 A 
HETATM   15  C12 UNL     1      25.924   1.128  51.987  1.00  0.00     0.021 A 
BRANCH  12  16
HETATM   16  C2  UNL     1      22.294  -0.334  53.688  1.00  0.00    -0.024 C 
HETATM   17  C1  UNL     1      21.839  -1.543  52.907  1.00  0.00     0.019 C 
HETATM   18  C3  UNL     1      22.501  -0.811  55.122  1.00  0.00     0.019 C 
HETATM   19  C4  UNL     1      21.230   0.724  53.721  1.00  0.00     0.019 C 
ENDBRANCH  12  16
BRANCH  14  20
HETATM   20  C14 UNL     1      24.876   3.023  50.983  1.00  0.00     0.077 C 
HETATM   21  C15 UNL     1      23.858   2.952  49.856  1.00  0.00     0.051 C 
HETATM   22  C16 UNL     1      26.233   3.001  50.301  1.00  0.00     0.051 C 
BRANCH  20  23
HETATM   23  O2  UNL     1      24.691   4.166  51.718  1.00  0.00    -0.386 OA
HETATM   24  H21 UNL     1      23.806   4.210  52.130  1.00  0.00     0.211 HD
ENDBRANCH  20  23
ENDBRANCH  14  20
ENDBRANCH   1  10
TORSDOF 5
ENDMDL
MODEL 2
REMARK VINA RESULT:      -8.7      1.713      3.871
REMARK  5 active torsions:
REMARK  status: ('A' for Active; 'I' for Inactive)
REMARK    1  A    between atoms: C2_2  and  C5_5 
REMARK    2  A    between atoms: C7_7  and  C8_8 
REMARK    3  A    between atoms: C9_9  and  C11_12 
REMARK       I    between atoms: C11_12  and  N2_13 
REMARK    4  A    between atoms: C13_16  and  C14_17 
REMARK    5  A    between atoms: C14_17  and  O2_20 
ROOT
HETATM    1  C8  UNL     1      26.813  -0.979  53.117  1.00  0.00     0.039 C 
HETATM    2  C9  UNL     1      28.028  -0.735  53.528  1.00  0.00     0.112 C 
HETATM    3  C10 UNL     1      28.205   0.567  54.131  1.00  0.00     0.105 C 
HETATM    4  N1  UNL     1      28.347   1.642  54.608  1.00  0.00    -0.191 NA
ENDROOT
BRANCH   2   5
HETATM    5  C11 UNL     1      29.105  -1.700  53.381  1.00  0.00     0.260 C 
HETATM    6  N2  UNL     1      28.672  -3.052  53.124  1.00  0.00    -0.365 N 
HETATM    7  H12 UNL     1      29.369  -3.449  52.441  1.00  0.00     0.159 HD
HETATM    8  H13 UNL     1      27.805  -3.396  53.614  1.00  0.00     0.159 HD
HETATM    9  O1  UNL     1      30.285  -1.278  53.491  1.00  0.00    -0.267 OA
ENDBRANCH   2   5
BRANCH   1  10
HETATM   10  C7  UNL     1      25.505  -0.373  53.048  1.00  0.00    -0.033 A 
HETATM   11  C6  UNL     1      25.384   0.750  52.234  1.00  0.00     0.019 A 
HETATM   12  C5  UNL     1      24.187   1.434  52.111  1.00  0.00    -0.049 A 
HETATM   13  C17 UNL     1      23.103   0.984  52.815  1.00  0.00     0.018 A 
HETATM   14  C13 UNL     1      23.196  -0.125  53.628  1.00  0.00    -0.024 A 
HETATM   15  C12 UNL     1      24.407  -0.813  53.748  1.00  0.00     0.021 A 
BRANCH  12  16
HETATM   16  C2  UNL     1      23.989   2.623  51.253  1.00  0.00    -0.024 C 
HETATM   17  C1  UNL     1      25.304   2.938  50.582  1.00  0.00     0.019 C 
HETATM   18  C3  UNL     1      23.007   2.305  50.130  1.00  0.00     0.019 C 
HETATM   19  C4  UNL     1      23.454   3.817  51.987  1.00  0.00     0.019 C 
ENDBRANCH  12  16
BRANCH  14  20
HETATM   20  C14 UNL     1      22.135  -0.753  54.481  1.00  0.00     0.077 C 
HETATM   21  C15 UNL     1      21.499  -1.869  53.669  1.00  0.00     0.051 C 
HETATM   22  C16 UNL     1      21.018   0.246  54.736  1.00  0.00     0.051 C 
BRANCH  20  23
HETATM   23  O2  UNL     1      22.653  -1.250  55.649  1.00  0.00    -0.386 OA
HETATM   24  H21 UNL     1      23.266  -0.626  56.085  1.00  0.00     0.211 HD
ENDBRANCH  20  23
ENDBRANCH  14  20
ENDBRANCH   1  10
TORSDOF 5
ENDMDL
MODEL 3
REMARK VINA RESULT:      -8.4      1.240      1.741
REMARK  5 active torsions:
REMARK  status: ('A' for Active; 'I' for Inactive)
REMARK    1  A    between atoms: C2_2  and  C5_5 
REMARK    2  A    between atoms: C7_7  and  C8_8 
REMARK    3  A    between atoms: C9_9  and  C11_12 
REMARK       I    between atoms: C11_12  and  N2_13 
REMARK    4  A    between atoms: C13_16  and  C14_17 
REMARK    5  A    between atoms: C14_17  and  O2_20 
ROOT
HETATM    1  C8  UNL     1      26.975   0.109  52.545  1.00  0.00     0.039 C 
HETATM    2  C9  UNL     1      28.089   0.121  53.225  1.00  0.00     0.112 C 
HETATM    3  C10 UNL     1      28.453   1.417  53.753  1.00  0.00     0.105 C 
HETATM    4  N1  UNL     1      28.754   2.484  54.169  1.00  0.00    -0.191 NA
ENDROOT
BRANCH   2   5
HETATM    5  C11 UNL     1      28.891  -1.076  53.422  1.00  0.00     0.260 C 
HETATM    6  N2  UNL     1      28.189  -2.316  53.194  1.00  0.00    -0.365 N 
HETATM    7  H12 UNL     1      28.886  -2.956  52.732  1.00  0.00     0.159 HD
HETATM    8  H13 UNL     1      27.181  -2.377  53.496  1.00  0.00     0.159 HD
HETATM    9  O1  UNL     1      30.090  -0.923  53.767  1.00  0.00    -0.267 OA
ENDBRANCH   2   5
BRANCH   1  10
HETATM   10  C7  UNL     1      25.912   0.983  52.109  1.00  0.00    -0.033 A 
HETATM   11  C6  UNL     1      24.619   0.617  52.473  1.00  0.00     0.019 A 
HETATM   12  C5  UNL     1      23.517   1.359  52.087  1.00  0.00    -0.049 A 
HETATM   13  C17 UNL     1      23.718   2.480  51.329  1.00  0.00     0.018 A 
HETATM   14  C13 UNL     1      24.988   2.865  50.955  1.00  0.00    -0.024 A 
HETATM   15  C12 UNL     1      26.098   2.112  51.346  1.00  0.00     0.021 A 
BRANCH  12  16
HETATM   16  C2  UNL     1      22.121   1.033  52.452  1.00  0.00    -0.024 C 
HETATM   17  C1  UNL     1      21.342   2.323  52.519  1.00  0.00     0.019 C 
HETATM   18  C3  UNL     1      21.468   0.202  51.351  1.00  0.00     0.019 C 
HETATM   19  C4  UNL     1      21.995   0.256  53.730  1.00  0.00     0.019 C 
ENDBRANCH  12  16
BRANCH  14  20
HETATM   20  C14 UNL     1      25.404   4.039  50.120  1.00  0.00     0.077 C 
HETATM   21  C15 UNL     1      24.354   4.220  49.035  1.00  0.00     0.051 C 
HETATM   22  C16 UNL     1      26.693   3.718  49.382  1.00  0.00     0.051 C 
BRANCH  20  23
HETATM   23  O2  UNL     1      25.515   5.181  50.870  1.00  0.00    -0.386 OA
HETATM   24  H21 UNL     1      25.105   5.956  50.438  1.00  0.00     0.211 HD
ENDBRANCH  20  23
ENDBRANCH  14  20
ENDBRANCH   1  10
TORSDOF 5
ENDMDL
MODEL 4
REMARK VINA RESULT:      -8.1      2.242      4.286
REMARK  5 active torsions:
REMARK  status: ('A' for Active; 'I' for Inactive)
REMARK    1  A    between atoms: C2_2  and  C5_5 
REMARK    2  A    between atoms: C7_7  and  C8_8 
REMARK    3  A    between atoms: C9_9  and  C11_12 
REMARK       I    between atoms: C11_12  and  N2_13 
REMARK    4  A    between atoms: C13_16  and  C14_17 
REMARK    5  A    between atoms: C14_17  and  O2_20 
ROOT
HETATM    1  C8  UNL     1      26.516   1.290  53.231  1.00  0.00     0.039 C 
HETATM    2  C9  UNL     1      27.658   0.675  53.381  1.00  0.00     0.112 C 
HETATM    3  C10 UNL     1      27.598  -0.755  53.176  1.00  0.00     0.105 C 
HETATM    4  N1  UNL     1      27.540  -1.928  53.024  1.00  0.00    -0.191 NA
ENDROOT
BRANCH   2   5
HETATM    5  C11 UNL     1      28.879   1.382  53.731  1.00  0.00     0.260 C 
HETATM    6  N2  UNL     1      30.095   0.652  53.466  1.00  0.00    -0.365 N 
HETATM    7  H12 UNL     1      30.789   1.369  53.128  1.00  0.00     0.159 HD
HETATM    8  H13 UNL     1      30.096  -0.388  53.638  1.00  0.00     0.159 HD
HETATM    9  O1  UNL     1      28.765   2.534  54.223  1.00  0.00    -0.267 OA
ENDBRANCH   2   5
BRANCH   1  10
HETATM   10  C7  UNL     1      25.133   1.033  52.912  1.00  0.00    -0.033 A 
HETATM   11  C6  UNL     1      24.614   1.706  51.808  1.00  0.00     0.019 A 
HETATM   12  C5  UNL     1      23.293   1.563  51.424  1.00  0.00    -0.049 A 
HETATM   13  C17 UNL     1      22.486   0.736  52.156  1.00  0.00     0.018 A 
HETATM   14  C13 UNL     1      22.973   0.058  53.253  1.00  0.00    -0.024 A 
HETATM   15  C12 UNL     1      24.308   0.205  53.638  1.00  0.00     0.021 A 
BRANCH  12  16
HETATM   16  C2  UNL     1      22.687   2.238  50.255  1.00  0.00    -0.024 C 
HETATM   17  C1  UNL     1      21.864   1.220  49.504  1.00  0.00     0.019 C 
HETATM   18  C3  UNL     1      21.709   3.314  50.716  1.00  0.00     0.019 C 
HETATM   19  C4  UNL     1      23.686   2.901  49.353  1.00  0.00     0.019 C 
ENDBRANCH  12  16
BRANCH  14  20
HETATM   20  C14 UNL     1      22.246  -0.869  54.180  1.00  0.00     0.077 C 
HETATM   21  C15 UNL     1      21.095  -0.089  54.793  1.00  0.00     0.051 C 
HETATM   22  C16 UNL     1      23.145  -1.243  55.347  1.00  0.00     0.051 C 
BRANCH  20  23
HETATM   23  O2  UNL     1      21.774  -1.976  53.523  1.00  0.00    -0.386 OA
HETATM   24  H21 UNL     1      21.014  -1.774  52.942  1.00  0.00     0.211 HD
ENDBRANCH  20  23
ENDBRANCH  14  20
ENDBRANCH   1  10
TORSDOF 5
ENDMDL
MODEL 5
REMARK VINA RESULT:      -7.9      3.046      5.772
REMARK  5 active torsions:
REMARK  status: ('A' for Active; 'I' for Inactive)
REMARK    1  A    between atoms: C2_2  and  C5_5 
REMARK    2  A    between atoms: C7_7  and  C8_8 
REMARK    3  A    between atoms: C9_9  and  C11_12 
REMARK       I    between atoms: C11_12  and  N2_13 
REMARK    4  A    between atoms: C13_16  and  C14_17 
REMARK    5  A    between atoms: C14_17  and  O2_20 
ROOT
HETATM    1  C8  UNL     1      24.066   3.706  52.165  1.00  0.00     0.039 C 
HETATM    2  C9  UNL     1      23.891   4.418  51.084  1.00  0.00     0.112 C 
HETATM    3  C10 UNL     1      23.660   3.641  49.888  1.00  0.00     0.105 C 
HETATM    4  N1  UNL     1      23.488   2.999  48.907  1.00  0.00    -0.191 NA
ENDROOT
BRANCH   2   5
HETATM    5  C11 UNL     1      23.935   5.871  51.098  1.00  0.00     0.260 C 
HETATM    6  N2  UNL     1      24.275   6.452  52.374  1.00  0.00    -0.365 N 
HETATM    7  H12 UNL     1      24.880   7.286  52.155  1.00  0.00     0.159 HD
HETATM    8  H13 UNL     1      23.899   5.991  53.244  1.00  0.00     0.159 HD
HETATM    9  O1  UNL     1      23.675   6.472  50.024  1.00  0.00    -0.267 OA
ENDBRANCH   2   5
BRANCH   1  10
HETATM   10  C7  UNL     1      24.111   2.336  52.614  1.00  0.00    -0.033 A 
HETATM   11  C6  UNL     1      22.886   1.727  52.874  1.00  0.00     0.019 A 
HETATM   12  C5  UNL     1      22.803   0.427  53.339  1.00  0.00    -0.049 A 
HETATM   13  C17 UNL     1      23.964  -0.268  53.545  1.00  0.00     0.018 A 
HETATM   14  C13 UNL     1      25.191   0.311  53.296  1.00  0.00    -0.024 A 
HETATM   15  C12 UNL     1      25.269   1.625  52.827  1.00  0.00     0.021 A 
BRANCH  12  16
HETATM   16  C2  UNL     1      21.535  -0.280  53.619  1.00  0.00    -0.024 C 
HETATM   17  C1  UNL     1      20.845   0.432  54.756  1.00  0.00     0.019 C 
HETATM   18  C3  UNL     1      20.595  -0.173  52.422  1.00  0.00     0.019 C 
HETATM   19  C4  UNL     1      21.708  -1.740  53.919  1.00  0.00     0.019 C 
ENDBRANCH  12  16
BRANCH  14  20
HETATM   20  C14 UNL     1      26.558  -0.278  53.476  1.00  0.00     0.077 C 
HETATM   21  C15 UNL     1      27.559   0.722  52.921  1.00  0.00     0.051 C 
HETATM   22  C16 UNL     1      26.705  -1.518  52.610  1.00  0.00     0.051 C 
BRANCH  20  23
HETATM   23  O2  UNL     1      26.828  -0.539  54.794  1.00  0.00    -0.386 OA
HETATM   24  H21 UNL     1      27.310   0.189  55.232  1.00  0.00     0.211 HD
ENDBRANCH  20  23
ENDBRANCH  14  20
ENDBRANCH   1  10
TORSDOF 5
ENDMDL
MODEL 6
REMARK VINA RESULT:      -7.8      3.358      6.323
REMARK  5 active torsions:
REMARK  status: ('A' for Active; 'I' for Inactive)
REMARK    1  A    between atoms: C2_2  and  C5_5 
REMARK    2  A    between atoms: C7_7  and  C8_8 
REMARK    3  A    between atoms: C9_9  and  C11_12 
REMARK       I    between atoms: C11_12  and  N2_13 
REMARK    4  A    between atoms: C13_16  and  C14_17 
REMARK    5  A    between atoms: C14_17  and  O2_20 
ROOT
HETATM    1  C8  UNL     1      21.679   0.139  52.669  1.00  0.00     0.039 C 
HETATM    2  C9  UNL     1      20.949  -0.583  53.475  1.00  0.00     0.112 C 
HETATM    3  C10 UNL     1      21.690  -1.231  54.533  1.00  0.00     0.105 C 
HETATM    4  N1  UNL     1      22.304  -1.772  55.389  1.00  0.00    -0.191 NA
ENDROOT
BRANCH   2   5
HETATM    5  C11 UNL     1      19.511  -0.720  53.305  1.00  0.00     0.260 C 
HETATM    6  N2  UNL     1      18.921  -1.820  54.029  1.00  0.00    -0.365 N 
HETATM    7  H12 UNL     1      17.988  -1.468  54.369  1.00  0.00     0.159 HD
HETATM    8  H13 UNL     1      19.468  -2.718  54.096  1.00  0.00     0.159 HD
HETATM    9  O1  UNL     1      18.931   0.111  52.560  1.00  0.00    -0.267 OA
ENDBRANCH   2   5
BRANCH   1  10
HETATM   10  C7  UNL     1      23.046   0.545  52.448  1.00  0.00    -0.033 A 
HETATM   11  C6  UNL     1      23.244   1.605  51.567  1.00  0.00     0.019 A 
HETATM   12  C5  UNL     1      24.511   2.064  51.253  1.00  0.00    -0.049 A 
HETATM   13  C17 UNL     1      25.589   1.450  51.831  1.00  0.00     0.018 A 
HETATM   14  C13 UNL     1      25.421   0.399  52.707  1.00  0.00    -0.024 A 
HETATM   15  C12 UNL     1      24.140  -0.061  53.020  1.00  0.00     0.021 A 
BRANCH  12  16
HETATM   16  C2  UNL     1      24.787   3.193  50.338  1.00  0.00    -0.024 C 
HETATM   17  C1  UNL     1      23.818   3.106  49.184  1.00  0.00     0.019 C 
HETATM   18  C3  UNL     1      24.498   4.519  51.034  1.00  0.00     0.019 C 
HETATM   19  C4  UNL     1      26.206   3.245  49.852  1.00  0.00     0.019 C 
ENDBRANCH  12  16
BRANCH  14  20
HETATM   20  C14 UNL     1      26.469  -0.404  53.419  1.00  0.00     0.077 C 
HETATM   21  C15 UNL     1      27.748   0.417  53.420  1.00  0.00     0.051 C 
HETATM   22  C16 UNL     1      26.794  -1.655  52.620  1.00  0.00     0.051 C 
BRANCH  20  23
HETATM   23  O2  UNL     1      26.093  -0.701  54.703  1.00  0.00    -0.386 OA
HETATM   24  H21 UNL     1      26.200   0.057  55.311  1.00  0.00     0.211 HD
ENDBRANCH  20  23
ENDBRANCH  14  20
ENDBRANCH   1  10
TORSDOF 5
ENDMDL
MODEL 7
REMARK VINA RESULT:      -7.8      1.550      2.225
REMARK  5 active torsions:
REMARK  status: ('A' for Active; 'I' for Inactive)
REMARK    1  A    between atoms: C2_2  and  C5_5 
REMARK    2  A    between atoms: C7_7  and  C8_8 
REMARK    3  A    between atoms: C9_9  and  C11_12 
REMARK       I    between atoms: C11_12  and  N2_13 
REMARK    4  A    between atoms: C13_16  and  C14_17 
REMARK    5  A    between atoms: C14_17  and  O2_20 
ROOT
HETATM    1  C8  UNL     1      26.797   1.108  53.398  1.00  0.00     0.039 C 
HETATM    2  C9  UNL     1      27.829   0.317  53.519  1.00  0.00     0.112 C 
HETATM    3  C10 UNL     1      27.577  -1.055  53.143  1.00  0.00     0.105 C 
HETATM    4  N1  UNL     1      27.361  -2.182  52.849  1.00  0.00    -0.191 NA
ENDROOT
BRANCH   2   5
HETATM    5  C11 UNL     1      29.117   0.791  53.998  1.00  0.00     0.260 C 
HETATM    6  N2  UNL     1      30.259   0.153  53.390  1.00  0.00    -0.365 N 
HETATM    7  H12 UNL     1      30.982   0.911  53.276  1.00  0.00     0.159 HD
HETATM    8  H13 UNL     1      30.195  -0.877  53.175  1.00  0.00     0.159 HD
HETATM    9  O1  UNL     1      29.116   1.689  54.879  1.00  0.00    -0.267 OA
ENDBRANCH   2   5
BRANCH   1  10
HETATM   10  C7  UNL     1      25.411   1.096  52.997  1.00  0.00    -0.033 A 
HETATM   11  C6  UNL     1      24.556   0.290  53.744  1.00  0.00     0.019 A 
HETATM   12  C5  UNL     1      23.212   0.174  53.436  1.00  0.00    -0.049 A 
HETATM   13  C17 UNL     1      22.724   0.876  52.367  1.00  0.00     0.018 A 
HETATM   14  C13 UNL     1      23.549   1.681  51.611  1.00  0.00    -0.024 A 
HETATM   15  C12 UNL     1      24.906   1.795  51.925  1.00  0.00     0.021 A 
BRANCH  12  16
HETATM   16  C2  UNL     1      22.250  -0.652  54.197  1.00  0.00    -0.024 C 
HETATM   17  C1  UNL     1      21.789  -1.776  53.301  1.00  0.00     0.019 C 
HETATM   18  C3  UNL     1      22.945  -1.315  55.382  1.00  0.00     0.019 C 
HETATM   19  C4  UNL     1      21.085   0.121  54.741  1.00  0.00     0.019 C 
ENDBRANCH  12  16
BRANCH  14  20
HETATM   20  C14 UNL     1      23.207   2.504  50.405  1.00  0.00     0.077 C 
HETATM   21  C15 UNL     1      22.397   3.697  50.884  1.00  0.00     0.051 C 
HETATM   22  C16 UNL     1      22.274   1.724  49.494  1.00  0.00     0.051 C 
BRANCH  20  23
HETATM   23  O2  UNL     1      24.331   2.926  49.744  1.00  0.00    -0.386 OA
HETATM   24  H21 UNL     1      24.698   2.243  49.149  1.00  0.00     0.211 HD
ENDBRANCH  20  23
ENDBRANCH  14  20
ENDBRANCH   1  10
TORSDOF 5
ENDMDL
MODEL 8
REMARK VINA RESULT:      -7.8      3.372      5.529
REMARK  5 active torsions:
REMARK  status: ('A' for Active; 'I' for Inactive)
REMARK    1  A    between atoms: C2_2  and  C5_5 
REMARK    2  A    between atoms: C7_7  and  C8_8 
REMARK    3  A    between atoms: C9_9  and  C11_12 
REMARK       I    between atoms: C11_12  and  N2_13 
REMARK    4  A    between atoms: C13_16  and  C14_17 
REMARK    5  A    between atoms: C14_17  and  O2_20 
ROOT
HETATM    1  C8  UNL     1      23.056  -0.049  53.539  1.00  0.00     0.039 C 
HETATM    2  C9  UNL     1      21.837  -0.357  53.189  1.00  0.00     0.112 C 
HETATM    3  C10 UNL     1      21.484   0.034  51.843  1.00  0.00     0.105 C 
HETATM    4  N1  UNL     1      21.195   0.372  50.745  1.00  0.00    -0.191 NA
ENDROOT
BRANCH   2   5
HETATM    5  C11 UNL     1      20.918  -1.031  54.092  1.00  0.00     0.260 C 
HETATM    6  N2  UNL     1      19.524  -0.738  53.864  1.00  0.00    -0.365 N 
HETATM    7  H12 UNL     1      19.012  -1.643  54.035  1.00  0.00     0.159 HD
HETATM    8  H13 UNL     1      19.264   0.245  53.587  1.00  0.00     0.159 HD
HETATM    9  O1  UNL     1      21.412  -1.786  54.968  1.00  0.00    -0.267 OA
ENDBRANCH   2   5
BRANCH   1  10
HETATM   10  C7  UNL     1      24.249   0.580  53.025  1.00  0.00    -0.033 A 
HETATM   11  C6  UNL     1      25.459   0.145  53.561  1.00  0.00     0.019 A 
HETATM   12  C5  UNL     1      26.667   0.695  53.169  1.00  0.00    -0.049 A 
HETATM   13  C17 UNL     1      26.658   1.691  52.231  1.00  0.00     0.018 A 
HETATM   14  C13 UNL     1      25.475   2.140  51.685  1.00  0.00    -0.024 A 
HETATM   15  C12 UNL     1      24.257   1.582  52.084  1.00  0.00     0.021 A 
BRANCH  12  16
HETATM   16  C2  UNL     1      27.985   0.268  53.687  1.00  0.00    -0.024 C 
HETATM   17  C1  UNL     1      27.855   0.056  55.176  1.00  0.00     0.019 C 
HETATM   18  C3  UNL     1      28.369  -1.087  53.101  1.00  0.00     0.019 C 
HETATM   19  C4  UNL     1      29.099   1.222  53.370  1.00  0.00     0.019 C 
ENDBRANCH  12  16
BRANCH  14  20
HETATM   20  C14 UNL     1      25.262   3.222  50.670  1.00  0.00     0.077 C 
HETATM   21  C15 UNL     1      24.002   2.877  49.894  1.00  0.00     0.051 C 
HETATM   22  C16 UNL     1      26.384   3.197  49.645  1.00  0.00     0.051 C 
BRANCH  20  23
HETATM   23  O2  UNL     1      25.136   4.453  51.259  1.00  0.00    -0.386 OA
HETATM   24  H21 UNL     1      24.433   4.996  50.851  1.00  0.00     0.211 HD
ENDBRANCH  20  23
ENDBRANCH  14  20
ENDBRANCH   1  10
TORSDOF 5
ENDMDL
MODEL 9
REMARK VINA RESULT:      -7.7      3.577      6.567
REMARK  5 active torsions:
REMARK  status: ('A' for Active; 'I' for Inactive)
REMARK    1  A    between atoms: C2_2  and  C5_5 
REMARK    2  A    between atoms: C7_7  and  C8_8 
REMARK    3  A    between atoms: C9_9  and  C11_12 
REMARK       I    between atoms: C11_12  and  N2_13 
REMARK    4  A    between atoms: C13_16  and  C14_17 
REMARK    5  A    between atoms: C14_17  and  O2_20 
ROOT
HETATM    1  C8  UNL     1      23.724   4.134  52.227  1.00  0.00     0.039 C 
HETATM    2  C9  UNL     1      23.550   4.864  51.159  1.00  0.00     0.112 C 
HETATM    3  C10 UNL     1      23.483   4.112  49.926  1.00  0.00     0.105 C 
HETATM    4  N1  UNL     1      23.446   3.493  48.917  1.00  0.00    -0.191 NA
ENDROOT
BRANCH   2   5
HETATM    5  C11 UNL     1      23.440   6.313  51.219  1.00  0.00     0.260 C 
HETATM    6  N2  UNL     1      24.454   6.962  52.014  1.00  0.00    -0.365 N 
HETATM    7  H12 UNL     1      24.688   7.854  51.504  1.00  0.00     0.159 HD
HETATM    8  H13 UNL     1      24.771   6.484  52.898  1.00  0.00     0.159 HD
HETATM    9  O1  UNL     1      22.493   6.852  50.590  1.00  0.00    -0.267 OA
ENDBRANCH   2   5
BRANCH   1  10
HETATM   10  C7  UNL     1      23.882   2.760  52.638  1.00  0.00    -0.033 A 
HETATM   11  C6  UNL     1      25.187   2.317  52.835  1.00  0.00     0.019 A 
HETATM   12  C5  UNL     1      25.465   1.012  53.200  1.00  0.00    -0.049 A 
HETATM   13  C17 UNL     1      24.420   0.144  53.369  1.00  0.00     0.018 A 
HETATM   14  C13 UNL     1      23.118   0.557  53.181  1.00  0.00    -0.024 A 
HETATM   15  C12 UNL     1      22.842   1.877  52.811  1.00  0.00     0.021 A 
BRANCH  12  16
HETATM   16  C2  UNL     1      26.826   0.483  53.438  1.00  0.00    -0.024 C 
HETATM   17  C1  UNL     1      27.009  -0.740  52.573  1.00  0.00     0.019 C 
HETATM   18  C3  UNL     1      27.872   1.491  52.971  1.00  0.00     0.019 C 
HETATM   19  C4  UNL     1      27.114   0.178  54.878  1.00  0.00     0.019 C 
ENDBRANCH  12  16
BRANCH  14  20
HETATM   20  C14 UNL     1      21.855  -0.242  53.300  1.00  0.00     0.077 C 
HETATM   21  C15 UNL     1      20.996   0.082  52.089  1.00  0.00     0.051 C 
HETATM   22  C16 UNL     1      21.054   0.234  54.501  1.00  0.00     0.051 C 
BRANCH  20  23
HETATM   23  O2  UNL     1      22.110  -1.587  53.356  1.00  0.00    -0.386 OA
HETATM   24  H21 UNL     1      22.406  -1.878  54.241  1.00  0.00     0.211 HD
ENDBRANCH  20  23
ENDBRANCH  14  20
ENDBRANCH   1  10
TORSDOF 5
ENDMDL
