MODEL 1
REMARK VINA RESULT:      -8.0      0.000      0.000
REMARK  4 active torsions:
REMARK  status: ('A' for Active; 'I' for Inactive)
REMARK    1  A    between atoms: O1_2  and  C2_3 
REMARK    2  A    between atoms: C4_5  and  C5_6 
REMARK    3  A    between atoms: C8_10  and  N2_11 
REMARK    4  A    between atoms: N2_11  and  C9_12 
ROOT
HETATM    1  C5  UNL     1      23.115   0.361  53.294  1.00  0.00     0.053 C 
HETATM    2  C6  UNL     1      23.343   0.734  51.885  1.00  0.00     0.131 C 
HETATM    3  N1  UNL     1      24.626   1.238  51.537  1.00  0.00    -0.383 N 
HETATM    4  C7  UNL     1      25.814   1.510  52.273  1.00  0.00     0.128 A 
HETATM    5  C8  UNL     1      26.724   2.256  51.556  1.00  0.00     0.160 A 
HETATM    6  N3  UNL     1      27.887   2.553  52.204  1.00  0.00    -0.222 NA
HETATM    7  C15 UNL     1      28.145   2.153  53.459  1.00  0.00     0.238 A 
HETATM    8  N4  UNL     1      27.215   1.423  54.118  1.00  0.00    -0.216 NA
HETATM    9  C16 UNL     1      26.042   1.079  53.569  1.00  0.00     0.196 A 
HETATM   10  O2  UNL     1      25.243   0.330  54.428  1.00  0.00    -0.332 OA
HETATM   11  C17 UNL     1      24.161  -0.462  53.963  1.00  0.00     0.187 C 
HETATM   12  H11 UNL     1      24.696   1.450  50.518  1.00  0.00     0.160 HD
ENDROOT
BRANCH   5  13
HETATM   13  N2  UNL     1      26.452   2.680  50.223  1.00  0.00    -0.339 N 
HETATM   14  H12 UNL     1      26.347   1.901  49.542  1.00  0.00     0.167 HD
BRANCH  13  15
HETATM   15  C9  UNL     1      26.337   4.053  49.865  1.00  0.00     0.035 A 
HETATM   16  C10 UNL     1      27.237   4.559  48.950  1.00  0.00     0.032 A 
HETATM   17  C11 UNL     1      27.140   5.895  48.588  1.00  0.00     0.046 A 
HETATM   18  C12 UNL     1      26.139   6.689  49.158  1.00  0.00     0.138 A 
HETATM   19  F1  UNL     1      26.026   7.998  48.818  1.00  0.00    -0.204 F 
HETATM   20  C13 UNL     1      25.275   6.112  50.065  1.00  0.00     0.074 A 
HETATM   21 CL1  UNL     1      24.020   7.109  50.779  1.00  0.00    -0.081 Cl
HETATM   22  C14 UNL     1      25.327   4.778  50.464  1.00  0.00     0.056 A 
ENDBRANCH  13  15
ENDBRANCH   5  13
BRANCH   1  23
HETATM   23  C4  UNL     1      21.855  -0.429  53.348  1.00  0.00     0.013 C 
HETATM   24  C2  UNL     1      20.665   0.111  53.414  1.00  0.00     0.038 C 
HETATM   25  C3  UNL     1      19.484  -0.782  53.462  1.00  0.00     0.076 C 
BRANCH  24  26
HETATM   26  O1  UNL     1      20.542   1.493  53.438  1.00  0.00    -0.361 OA
HETATM   27  C1  UNL     1      19.948   2.179  52.330  1.00  0.00     0.209 C 
ENDBRANCH  24  26
ENDBRANCH   1  23
TORSDOF 4
ENDMDL
MODEL 2
REMARK VINA RESULT:      -7.8      4.426      8.352
REMARK  4 active torsions:
REMARK  status: ('A' for Active; 'I' for Inactive)
REMARK    1  A    between atoms: O1_2  and  C2_3 
REMARK    2  A    between atoms: C4_5  and  C5_6 
REMARK    3  A    between atoms: C8_10  and  N2_11 
REMARK    4  A    between atoms: N2_11  and  C9_12 
ROOT
HETATM    1  C5  UNL     1      27.769   6.497  48.480  1.00  0.00     0.053 C 
HETATM    2  C6  UNL     1      27.946   5.032  48.512  1.00  0.00     0.131 C 
HETATM    3  N1  UNL     1      26.995   4.271  49.246  1.00  0.00    -0.383 N 
HETATM    4  C7  UNL     1      25.853   4.604  50.028  1.00  0.00     0.128 A 
HETATM    5  C8  UNL     1      25.397   3.544  50.780  1.00  0.00     0.160 A 
HETATM    6  N3  UNL     1      24.303   3.797  51.554  1.00  0.00    -0.222 NA
HETATM    7  C15 UNL     1      23.697   4.993  51.593  1.00  0.00     0.238 A 
HETATM    8  N4  UNL     1      24.187   6.000  50.834  1.00  0.00    -0.216 NA
HETATM    9  C16 UNL     1      25.257   5.854  50.040  1.00  0.00     0.196 A 
HETATM   10  O2  UNL     1      25.583   7.020  49.353  1.00  0.00    -0.332 OA
HETATM   11  C17 UNL     1      26.403   7.016  48.195  1.00  0.00     0.187 C 
HETATM   12  H11 UNL     1      27.191   3.247  49.189  1.00  0.00     0.160 HD
ENDROOT
BRANCH   5  13
HETATM   13  N2  UNL     1      26.038   2.273  50.739  1.00  0.00    -0.339 N 
HETATM   14  H12 UNL     1      26.089   1.853  49.788  1.00  0.00     0.167 HD
BRANCH  13  15
HETATM   15  C9  UNL     1      26.559   1.639  51.903  1.00  0.00     0.035 A 
HETATM   16  C10 UNL     1      25.934   0.492  52.347  1.00  0.00     0.032 A 
HETATM   17  C11 UNL     1      26.427  -0.139  53.480  1.00  0.00     0.046 A 
HETATM   18  C12 UNL     1      27.538   0.402  54.138  1.00  0.00     0.138 A 
HETATM   19  F1  UNL     1      28.037  -0.200  55.248  1.00  0.00    -0.204 F 
HETATM   20  C13 UNL     1      28.109   1.551  53.634  1.00  0.00     0.074 A 
HETATM   21 CL1  UNL     1      29.501   2.228  54.460  1.00  0.00    -0.081 Cl
HETATM   22  C14 UNL     1      27.655   2.226  52.501  1.00  0.00     0.056 A 
ENDBRANCH  13  15
ENDBRANCH   5  13
BRANCH   1  23
HETATM   23  C4  UNL     1      28.658   7.030  47.411  1.00  0.00     0.013 C 
HETATM   24  C2  UNL     1      29.651   7.850  47.639  1.00  0.00     0.038 C 
HETATM   25  C3  UNL     1      30.466   8.311  46.490  1.00  0.00     0.076 C 
BRANCH  24  26
HETATM   26  O1  UNL     1      29.913   8.264  48.938  1.00  0.00    -0.361 OA
HETATM   27  C1  UNL     1      29.775   9.644  49.292  1.00  0.00     0.209 C 
ENDBRANCH  24  26
ENDBRANCH   1  23
TORSDOF 4
ENDMDL
MODEL 3
REMARK VINA RESULT:      -7.8      3.447      6.051
REMARK  4 active torsions:
REMARK  status: ('A' for Active; 'I' for Inactive)
REMARK    1  A    between atoms: O1_2  and  C2_3 
REMARK    2  A    between atoms: C4_5  and  C5_6 
REMARK    3  A    between atoms: C8_10  and  N2_11 
REMARK    4  A    between atoms: N2_11  and  C9_12 
ROOT
HETATM    1  C5  UNL     1      25.815   0.028  53.668  1.00  0.00     0.053 C 
HETATM    2  C6  UNL     1      25.130   1.216  53.124  1.00  0.00     0.131 C 
HETATM    3  N1  UNL     1      23.708   1.228  53.157  1.00  0.00    -0.383 N 
HETATM    4  C7  UNL     1      22.721   0.300  53.594  1.00  0.00     0.128 A 
HETATM    5  C8  UNL     1      21.453   0.635  53.173  1.00  0.00     0.160 A 
HETATM    6  N3  UNL     1      20.459  -0.215  53.559  1.00  0.00    -0.222 NA
HETATM    7  C15 UNL     1      20.682  -1.310  54.301  1.00  0.00     0.238 A 
HETATM    8  N4  UNL     1      21.948  -1.593  54.687  1.00  0.00    -0.216 NA
HETATM    9  C16 UNL     1      22.994  -0.821  54.360  1.00  0.00     0.196 A 
HETATM   10  O2  UNL     1      24.198  -1.303  54.864  1.00  0.00    -0.332 OA
HETATM   11  C17 UNL     1      25.353  -0.486  54.987  1.00  0.00     0.187 C 
HETATM   12  H11 UNL     1      23.319   2.117  52.773  1.00  0.00     0.160 HD
ENDROOT
BRANCH   5  13
HETATM   13  N2  UNL     1      21.214   1.799  52.387  1.00  0.00    -0.339 N 
HETATM   14  H12 UNL     1      20.760   2.577  52.907  1.00  0.00     0.167 HD
BRANCH  13  15
HETATM   15  C9  UNL     1      21.568   1.879  51.010  1.00  0.00     0.035 A 
HETATM   16  C10 UNL     1      21.194   0.837  50.186  1.00  0.00     0.032 A 
HETATM   17  C11 UNL     1      21.531   0.897  48.842  1.00  0.00     0.046 A 
HETATM   18  C12 UNL     1      22.237   2.006  48.360  1.00  0.00     0.138 A 
HETATM   19  F1  UNL     1      22.576   2.086  47.048  1.00  0.00    -0.204 F 
HETATM   20  C13 UNL     1      22.575   3.008  49.244  1.00  0.00     0.074 A 
HETATM   21 CL1  UNL     1      23.460   4.397  48.639  1.00  0.00    -0.081 Cl
HETATM   22  C14 UNL     1      22.263   2.999  50.603  1.00  0.00     0.056 A 
ENDBRANCH  13  15
ENDBRANCH   5  13
BRANCH   1  23
HETATM   23  C4  UNL     1      27.253   0.376  53.829  1.00  0.00     0.013 C 
HETATM   24  C2  UNL     1      28.230  -0.468  53.620  1.00  0.00     0.038 C 
HETATM   25  C3  UNL     1      29.622  -0.001  53.813  1.00  0.00     0.076 C 
BRANCH  24  26
HETATM   26  O1  UNL     1      27.939  -1.767  53.228  1.00  0.00    -0.361 OA
HETATM   27  C1  UNL     1      28.978  -2.751  53.177  1.00  0.00     0.209 C 
ENDBRANCH  24  26
ENDBRANCH   1  23
TORSDOF 4
ENDMDL
MODEL 4
REMARK VINA RESULT:      -7.5      2.071      4.883
REMARK  4 active torsions:
REMARK  status: ('A' for Active; 'I' for Inactive)
REMARK    1  A    between atoms: O1_2  and  C2_3 
REMARK    2  A    between atoms: C4_5  and  C5_6 
REMARK    3  A    between atoms: C8_10  and  N2_11 
REMARK    4  A    between atoms: N2_11  and  C9_12 
ROOT
HETATM    1  C5  UNL     1      26.385  -0.671  52.808  1.00  0.00     0.053 C 
HETATM    2  C6  UNL     1      26.380   0.398  51.792  1.00  0.00     0.131 C 
HETATM    3  N1  UNL     1      25.173   1.128  51.610  1.00  0.00    -0.383 N 
HETATM    4  C7  UNL     1      23.877   1.055  52.193  1.00  0.00     0.128 A 
HETATM    5  C8  UNL     1      22.941   1.792  51.502  1.00  0.00     0.160 A 
HETATM    6  N3  UNL     1      21.675   1.765  52.009  1.00  0.00    -0.222 NA
HETATM    7  C15 UNL     1      21.345   1.072  53.109  1.00  0.00     0.238 A 
HETATM    8  N4  UNL     1      22.304   0.365  53.750  1.00  0.00    -0.216 NA
HETATM    9  C16 UNL     1      23.577   0.326  53.332  1.00  0.00     0.196 A 
HETATM   10  O2  UNL     1      24.387  -0.463  54.142  1.00  0.00    -0.332 OA
HETATM   11  C17 UNL     1      25.803  -0.352  54.141  1.00  0.00     0.187 C 
HETATM   12  H11 UNL     1      25.277   1.875  50.888  1.00  0.00     0.160 HD
ENDROOT
BRANCH   5  13
HETATM   13  N2  UNL     1      23.291   2.530  50.334  1.00  0.00    -0.339 N 
HETATM   14  H12 UNL     1      23.060   2.048  49.442  1.00  0.00     0.167 HD
BRANCH  13  15
HETATM   15  C9  UNL     1      23.903   3.814  50.394  1.00  0.00     0.035 A 
HETATM   16  C10 UNL     1      23.358   4.749  51.251  1.00  0.00     0.032 A 
HETATM   17  C11 UNL     1      23.941   6.006  51.322  1.00  0.00     0.046 A 
HETATM   18  C12 UNL     1      25.058   6.290  50.529  1.00  0.00     0.138 A 
HETATM   19  F1  UNL     1      25.645   7.513  50.584  1.00  0.00    -0.204 F 
HETATM   20  C13 UNL     1      25.546   5.305  49.698  1.00  0.00     0.074 A 
HETATM   21 CL1  UNL     1      26.947   5.663  48.704  1.00  0.00    -0.081 Cl
HETATM   22  C14 UNL     1      25.001   4.027  49.585  1.00  0.00     0.056 A 
ENDBRANCH  13  15
ENDBRANCH   5  13
BRANCH   1  23
HETATM   23  C4  UNL     1      27.804  -1.054  53.046  1.00  0.00     0.013 C 
HETATM   24  C2  UNL     1      28.661  -0.298  53.683  1.00  0.00     0.038 C 
HETATM   25  C3  UNL     1      30.047  -0.790  53.857  1.00  0.00     0.076 C 
BRANCH  24  26
HETATM   26  O1  UNL     1      28.251   0.934  54.173  1.00  0.00    -0.361 OA
HETATM   27  C1  UNL     1      28.922   2.130  53.758  1.00  0.00     0.209 C 
ENDBRANCH  24  26
ENDBRANCH   1  23
TORSDOF 4
ENDMDL
MODEL 5
REMARK VINA RESULT:      -7.5      3.896      5.886
REMARK  4 active torsions:
REMARK  status: ('A' for Active; 'I' for Inactive)
REMARK    1  A    between atoms: O1_2  and  C2_3 
REMARK    2  A    between atoms: C4_5  and  C5_6 
REMARK    3  A    between atoms: C8_10  and  N2_11 
REMARK    4  A    between atoms: N2_11  and  C9_12 
ROOT
HETATM    1  C5  UNL     1      21.137   3.130  51.701  1.00  0.00     0.053 C 
HETATM    2  C6  UNL     1      22.379   2.656  51.061  1.00  0.00     0.131 C 
HETATM    3  N1  UNL     1      23.039   1.543  51.649  1.00  0.00    -0.383 N 
HETATM    4  C7  UNL     1      22.789   0.738  52.796  1.00  0.00     0.128 A 
HETATM    5  C8  UNL     1      23.861  -0.060  53.130  1.00  0.00     0.160 A 
HETATM    6  N3  UNL     1      23.687  -0.858  54.222  1.00  0.00    -0.222 NA
HETATM    7  C15 UNL     1      22.552  -0.878  54.937  1.00  0.00     0.238 A 
HETATM    8  N4  UNL     1      21.530  -0.073  54.566  1.00  0.00    -0.216 NA
HETATM    9  C16 UNL     1      21.601   0.747  53.508  1.00  0.00     0.196 A 
HETATM   10  O2  UNL     1      20.434   1.481  53.314  1.00  0.00    -0.332 OA
HETATM   11  C17 UNL     1      20.125   2.104  52.077  1.00  0.00     0.187 C 
HETATM   12  H11 UNL     1      23.891   1.269  51.112  1.00  0.00     0.160 HD
ENDROOT
BRANCH   5  13
HETATM   13  N2  UNL     1      25.066  -0.042  52.370  1.00  0.00    -0.339 N 
HETATM   14  H12 UNL     1      24.963  -0.400  51.399  1.00  0.00     0.167 HD
BRANCH  13  15
HETATM   15  C9  UNL     1      26.300   0.427  52.903  1.00  0.00     0.035 A 
HETATM   16  C10 UNL     1      26.397   1.766  53.225  1.00  0.00     0.032 A 
HETATM   17  C11 UNL     1      27.592   2.241  53.745  1.00  0.00     0.046 A 
HETATM   18  C12 UNL     1      28.661   1.357  53.929  1.00  0.00     0.138 A 
HETATM   19  F1  UNL     1      29.839   1.801  54.437  1.00  0.00    -0.204 F 
HETATM   20  C13 UNL     1      28.489   0.033  53.584  1.00  0.00     0.074 A 
HETATM   21 CL1  UNL     1      29.829  -1.075  53.815  1.00  0.00    -0.081 Cl
HETATM   22  C14 UNL     1      27.312  -0.498  53.058  1.00  0.00     0.056 A 
ENDBRANCH  13  15
ENDBRANCH   5  13
BRANCH   1  23
HETATM   23  C4  UNL     1      20.468   4.057  50.748  1.00  0.00     0.013 C 
HETATM   24  C2  UNL     1      20.772   5.325  50.637  1.00  0.00     0.038 C 
HETATM   25  C3  UNL     1      20.035   6.145  49.649  1.00  0.00     0.076 C 
BRANCH  24  26
HETATM   26  O1  UNL     1      21.767   5.861  51.442  1.00  0.00    -0.361 OA
HETATM   27  C1  UNL     1      22.765   6.717  50.874  1.00  0.00     0.209 C 
ENDBRANCH  24  26
ENDBRANCH   1  23
TORSDOF 4
ENDMDL
MODEL 6
REMARK VINA RESULT:      -7.4      4.790      8.029
REMARK  4 active torsions:
REMARK  status: ('A' for Active; 'I' for Inactive)
REMARK    1  A    between atoms: O1_2  and  C2_3 
REMARK    2  A    between atoms: C4_5  and  C5_6 
REMARK    3  A    between atoms: C8_10  and  N2_11 
REMARK    4  A    between atoms: N2_11  and  C9_12 
ROOT
HETATM    1  C5  UNL     1      25.345   0.477  53.163  1.00  0.00     0.053 C 
HETATM    2  C6  UNL     1      24.259  -0.511  53.314  1.00  0.00     0.131 C 
HETATM    3  N1  UNL     1      22.924  -0.054  53.137  1.00  0.00    -0.383 N 
HETATM    4  C7  UNL     1      22.342   1.214  52.853  1.00  0.00     0.128 A 
HETATM    5  C8  UNL     1      20.978   1.228  53.046  1.00  0.00     0.160 A 
HETATM    6  N3  UNL     1      20.358   2.415  52.791  1.00  0.00    -0.222 NA
HETATM    7  C15 UNL     1      21.017   3.509  52.380  1.00  0.00     0.238 A 
HETATM    8  N4  UNL     1      22.357   3.440  52.207  1.00  0.00    -0.216 NA
HETATM    9  C16 UNL     1      23.059   2.321  52.430  1.00  0.00     0.196 A 
HETATM   10  O2  UNL     1      24.421   2.480  52.189  1.00  0.00    -0.332 OA
HETATM   11  C17 UNL     1      25.290   1.378  51.979  1.00  0.00     0.187 C 
HETATM   12  H11 UNL     1      22.232  -0.829  53.240  1.00  0.00     0.160 HD
ENDROOT
BRANCH   5  13
HETATM   13  N2  UNL     1      20.277   0.067  53.481  1.00  0.00    -0.339 N 
HETATM   14  H12 UNL     1      20.731  -0.433  54.273  1.00  0.00     0.167 HD
BRANCH  13  15
HETATM   15  C9  UNL     1      19.062  -0.365  52.879  1.00  0.00     0.035 A 
HETATM   16  C10 UNL     1      18.296  -1.288  53.561  1.00  0.00     0.032 A 
HETATM   17  C11 UNL     1      17.108  -1.721  52.989  1.00  0.00     0.046 A 
HETATM   18  C12 UNL     1      16.722  -1.214  51.743  1.00  0.00     0.138 A 
HETATM   19  F1  UNL     1      15.563  -1.624  51.166  1.00  0.00    -0.204 F 
HETATM   20  C13 UNL     1      17.539  -0.295  51.122  1.00  0.00     0.074 A 
HETATM   21 CL1  UNL     1      17.054   0.340  49.560  1.00  0.00    -0.081 Cl
HETATM   22  C14 UNL     1      18.741   0.175  51.650  1.00  0.00     0.056 A 
ENDBRANCH  13  15
ENDBRANCH   5  13
BRANCH   1  23
HETATM   23  C4  UNL     1      26.623  -0.278  53.064  1.00  0.00     0.013 C 
HETATM   24  C2  UNL     1      27.758   0.155  53.552  1.00  0.00     0.038 C 
HETATM   25  C3  UNL     1      28.965  -0.689  53.390  1.00  0.00     0.076 C 
BRANCH  24  26
HETATM   26  O1  UNL     1      27.800   1.381  54.200  1.00  0.00    -0.361 OA
HETATM   27  C1  UNL     1      28.646   2.425  53.705  1.00  0.00     0.209 C 
ENDBRANCH  24  26
ENDBRANCH   1  23
TORSDOF 4
ENDMDL
MODEL 7
REMARK VINA RESULT:      -7.2      2.701      4.616
REMARK  4 active torsions:
REMARK  status: ('A' for Active; 'I' for Inactive)
REMARK    1  A    between atoms: O1_2  and  C2_3 
REMARK    2  A    between atoms: C4_5  and  C5_6 
REMARK    3  A    between atoms: C8_10  and  N2_11 
REMARK    4  A    between atoms: N2_11  and  C9_12 
ROOT
HETATM    1  C5  UNL     1      24.133   1.395  52.187  1.00  0.00     0.053 C 
HETATM    2  C6  UNL     1      24.793   2.698  52.397  1.00  0.00     0.131 C 
HETATM    3  N1  UNL     1      24.568   3.714  51.429  1.00  0.00    -0.383 N 
HETATM    4  C7  UNL     1      23.830   3.775  50.213  1.00  0.00     0.128 A 
HETATM    5  C8  UNL     1      24.128   4.892  49.465  1.00  0.00     0.160 A 
HETATM    6  N3  UNL     1      23.455   5.012  48.285  1.00  0.00    -0.222 NA
HETATM    7  C15 UNL     1      22.557   4.109  47.864  1.00  0.00     0.238 A 
HETATM    8  N4  UNL     1      22.302   3.028  48.637  1.00  0.00    -0.216 NA
HETATM    9  C16 UNL     1      22.910   2.819  49.813  1.00  0.00     0.196 A 
HETATM   10  O2  UNL     1      22.494   1.646  50.435  1.00  0.00    -0.332 OA
HETATM   11  C17 UNL     1      22.689   1.410  51.822  1.00  0.00     0.187 C 
HETATM   12  H11 UNL     1      25.056   4.602  51.677  1.00  0.00     0.160 HD
ENDROOT
BRANCH   5  13
HETATM   13  N2  UNL     1      25.081   5.853  49.912  1.00  0.00    -0.339 N 
HETATM   14  H12 UNL     1      24.778   6.396  50.746  1.00  0.00     0.167 HD
BRANCH  13  15
HETATM   15  C9  UNL     1      26.335   6.045  49.266  1.00  0.00     0.035 A 
HETATM   16  C10 UNL     1      27.084   4.927  48.965  1.00  0.00     0.032 A 
HETATM   17  C11 UNL     1      28.309   5.094  48.337  1.00  0.00     0.046 A 
HETATM   18  C12 UNL     1      28.751   6.386  48.027  1.00  0.00     0.138 A 
HETATM   19  F1  UNL     1      29.946   6.573  47.411  1.00  0.00    -0.204 F 
HETATM   20  C13 UNL     1      27.946   7.455  48.359  1.00  0.00     0.074 A 
HETATM   21 CL1  UNL     1      28.501   9.074  47.970  1.00  0.00    -0.081 Cl
HETATM   22  C14 UNL     1      26.709   7.345  48.990  1.00  0.00     0.056 A 
ENDBRANCH  13  15
ENDBRANCH   5  13
BRANCH   1  23
HETATM   23  C4  UNL     1      24.241   0.630  53.459  1.00  0.00     0.013 C 
HETATM   24  C2  UNL     1      25.128  -0.311  53.664  1.00  0.00     0.038 C 
HETATM   25  C3  UNL     1      25.136  -1.001  54.975  1.00  0.00     0.076 C 
BRANCH  24  26
HETATM   26  O1  UNL     1      26.028  -0.632  52.658  1.00  0.00    -0.361 OA
HETATM   27  C1  UNL     1      27.409  -0.279  52.792  1.00  0.00     0.209 C 
ENDBRANCH  24  26
ENDBRANCH   1  23
TORSDOF 4
ENDMDL
MODEL 8
REMARK VINA RESULT:      -7.1      4.323      7.239
REMARK  4 active torsions:
REMARK  status: ('A' for Active; 'I' for Inactive)
REMARK    1  A    between atoms: O1_2  and  C2_3 
REMARK    2  A    between atoms: C4_5  and  C5_6 
REMARK    3  A    between atoms: C8_10  and  N2_11 
REMARK    4  A    between atoms: N2_11  and  C9_12 
ROOT
HETATM    1  C5  UNL     1      26.142   0.982  52.597  1.00  0.00     0.053 C 
HETATM    2  C6  UNL     1      24.843   0.338  52.873  1.00  0.00     0.131 C 
HETATM    3  N1  UNL     1      23.666   1.080  52.582  1.00  0.00    -0.383 N 
HETATM    4  C7  UNL     1      23.420   2.388  52.077  1.00  0.00     0.128 A 
HETATM    5  C8  UNL     1      22.107   2.776  52.221  1.00  0.00     0.160 A 
HETATM    6  N3  UNL     1      21.804   4.022  51.757  1.00  0.00    -0.222 NA
HETATM    7  C15 UNL     1      22.713   4.831  51.193  1.00  0.00     0.238 A 
HETATM    8  N4  UNL     1      23.991   4.400  51.076  1.00  0.00    -0.216 NA
HETATM    9  C16 UNL     1      24.390   3.193  51.501  1.00  0.00     0.196 A 
HETATM   10  O2  UNL     1      25.744   2.963  51.280  1.00  0.00    -0.332 OA
HETATM   11  C17 UNL     1      26.304   1.659  51.280  1.00  0.00     0.187 C 
HETATM   12  H11 UNL     1      22.801   0.532  52.789  1.00  0.00     0.160 HD
ENDROOT
BRANCH   5  13
HETATM   13  N2  UNL     1      21.139   1.917  52.818  1.00  0.00    -0.339 N 
HETATM   14  H12 UNL     1      21.248   1.804  53.847  1.00  0.00     0.167 HD
BRANCH  13  15
HETATM   15  C9  UNL     1      20.118   1.273  52.065  1.00  0.00     0.035 A 
HETATM   16  C10 UNL     1      19.903   1.702  50.771  1.00  0.00     0.032 A 
HETATM   17  C11 UNL     1      18.912   1.087  50.021  1.00  0.00     0.046 A 
HETATM   18  C12 UNL     1      18.159   0.054  50.593  1.00  0.00     0.138 A 
HETATM   19  F1  UNL     1      17.185  -0.562  49.877  1.00  0.00    -0.204 F 
HETATM   20  C13 UNL     1      18.432  -0.319  51.892  1.00  0.00     0.074 A 
HETATM   21 CL1  UNL     1      17.488  -1.613  52.608  1.00  0.00    -0.081 Cl
HETATM   22  C14 UNL     1      19.415   0.264  52.690  1.00  0.00     0.056 A 
ENDBRANCH  13  15
ENDBRANCH   5  13
BRANCH   1  23
HETATM   23  C4  UNL     1      27.187  -0.075  52.662  1.00  0.00     0.013 C 
HETATM   24  C2  UNL     1      28.186  -0.054  53.508  1.00  0.00     0.038 C 
HETATM   25  C3  UNL     1      29.163  -1.166  53.476  1.00  0.00     0.076 C 
BRANCH  24  26
HETATM   26  O1  UNL     1      28.302   1.001  54.402  1.00  0.00    -0.361 OA
HETATM   27  C1  UNL     1      29.232   2.060  54.145  1.00  0.00     0.209 C 
ENDBRANCH  24  26
ENDBRANCH   1  23
TORSDOF 4
ENDMDL
MODEL 9
REMARK VINA RESULT:      -7.0      4.601      8.709
REMARK  4 active torsions:
REMARK  status: ('A' for Active; 'I' for Inactive)
REMARK    1  A    between atoms: O1_2  and  C2_3 
REMARK    2  A    between atoms: C4_5  and  C5_6 
REMARK    3  A    between atoms: C8_10  and  N2_11 
REMARK    4  A    between atoms: N2_11  and  C9_12 
ROOT
HETATM    1  C5  UNL     1      27.724   7.203  48.152  1.00  0.00     0.053 C 
HETATM    2  C6  UNL     1      27.600   5.813  48.632  1.00  0.00     0.131 C 
HETATM    3  N1  UNL     1      26.429   5.470  49.361  1.00  0.00    -0.383 N 
HETATM    4  C7  UNL     1      25.281   6.197  49.788  1.00  0.00     0.128 A 
HETATM    5  C8  UNL     1      24.528   5.507  50.712  1.00  0.00     0.160 A 
HETATM    6  N3  UNL     1      23.413   6.149  51.163  1.00  0.00    -0.222 NA
HETATM    7  C15 UNL     1      23.056   7.373  50.746  1.00  0.00     0.238 A 
HETATM    8  N4  UNL     1      23.833   8.007  49.837  1.00  0.00    -0.216 NA
HETATM    9  C16 UNL     1      24.949   7.462  49.332  1.00  0.00     0.196 A 
HETATM   10  O2  UNL     1      25.588   8.292  48.416  1.00  0.00    -0.332 OA
HETATM   11  C17 UNL     1      26.538   7.803  47.481  1.00  0.00     0.187 C 
HETATM   12  H11 UNL     1      26.424   4.463  49.636  1.00  0.00     0.160 HD
ENDROOT
BRANCH   5  13
HETATM   13  N2  UNL     1      24.904   4.206  51.155  1.00  0.00    -0.339 N 
HETATM   14  H12 UNL     1      25.901   4.126  51.442  1.00  0.00     0.167 HD
BRANCH  13  15
HETATM   15  C9  UNL     1      23.988   3.117  51.197  1.00  0.00     0.035 A 
HETATM   16  C10 UNL     1      23.783   2.493  52.410  1.00  0.00     0.032 A 
HETATM   17  C11 UNL     1      22.894   1.429  52.470  1.00  0.00     0.046 A 
HETATM   18  C12 UNL     1      22.235   1.019  51.306  1.00  0.00     0.138 A 
HETATM   19  F1  UNL     1      21.361  -0.019  51.342  1.00  0.00    -0.204 F 
HETATM   20  C13 UNL     1      22.492   1.692  50.130  1.00  0.00     0.074 A 
HETATM   21 CL1  UNL     1      21.665   1.177  48.671  1.00  0.00    -0.081 Cl
HETATM   22  C14 UNL     1      23.373   2.765  50.012  1.00  0.00     0.056 A 
ENDBRANCH  13  15
ENDBRANCH   5  13
BRANCH   1  23
HETATM   23  C4  UNL     1      28.834   7.236  47.162  1.00  0.00     0.013 C 
HETATM   24  C2  UNL     1      30.060   7.582  47.460  1.00  0.00     0.038 C 
HETATM   25  C3  UNL     1      31.079   7.574  46.386  1.00  0.00     0.076 C 
BRANCH  24  26
HETATM   26  O1  UNL     1      30.369   7.944  48.764  1.00  0.00    -0.361 OA
HETATM   27  C1  UNL     1      31.622   7.554  49.338  1.00  0.00     0.209 C 
ENDBRANCH  24  26
ENDBRANCH   1  23
TORSDOF 4
ENDMDL
