MODEL 1
REMARK VINA RESULT:      -8.2      0.000      0.000
REMARK  9 active torsions:
REMARK  status: ('A' for Active; 'I' for Inactive)
REMARK       I    between atoms: C2_3  and  N2_4 
REMARK       I    between atoms: C2_3  and  N3_5 
REMARK    1  A    between atoms: C3_6  and  N4_7 
REMARK    2  A    between atoms: C3_6  and  C4_8 
REMARK    3  A    between atoms: C4_8  and  C5_9 
REMARK    4  A    between atoms: C5_9  and  C6_10 
REMARK    5  A    between atoms: C9_13  and  O1_14 
REMARK    6  A    between atoms: O1_14  and  C10_15 
REMARK    7  A    between atoms: C10_15  and  C11_16 
REMARK    8  A    between atoms: C14_19  and  O2_20 
REMARK    9  A    between atoms: C18_24  and  O3_25 
ROOT
HETATM    1  C6  UNL     1      26.583   5.278  48.918  1.00  0.00    -0.055 A 
HETATM    2  C7  UNL     1      26.817   3.986  49.342  1.00  0.00     0.010 A 
HETATM    3  C8  UNL     1      25.897   3.141  49.916  1.00  0.00     0.040 A 
HETATM    4  C9  UNL     1      24.615   3.671  50.072  1.00  0.00     0.102 A 
HETATM    5  C18 UNL     1      24.334   4.955  49.666  1.00  0.00     0.102 A 
HETATM    6  C20 UNL     1      25.290   5.784  49.088  1.00  0.00     0.046 A 
ENDROOT
BRANCH   1   7
HETATM    7  C5  UNL     1      27.690   6.055  48.313  1.00  0.00     0.045 C 
BRANCH   7   8
HETATM    8  C4  UNL     1      28.972   5.306  48.175  1.00  0.00     0.077 C 
BRANCH   8   9
HETATM    9  C3  UNL     1      30.128   6.101  48.648  1.00  0.00     0.097 C 
HETATM   10  N3  UNL     1      30.467   7.234  48.132  1.00  0.00    -0.056 NA
HETATM   11  C2  UNL     1      31.596   7.923  48.658  1.00  0.00     0.716 C 
HETATM   12  N1  UNL     1      32.532   8.199  47.797  1.00  0.00    -0.111 NA
HETATM   13  N2  UNL     1      31.417   8.152  50.054  1.00  0.00    -0.231 N 
HETATM   14  C1  UNL     1      32.479   7.855  46.401  1.00  0.00     0.198 C 
HETATM   15  H4  UNL     1      31.772   7.625  50.901  1.00  0.00     0.174 HD
HETATM   16  H5  UNL     1      30.849   8.958  50.447  1.00  0.00     0.174 HD
BRANCH   9  17
HETATM   17  N4  UNL     1      30.967   5.683  49.718  1.00  0.00    -0.290 NA
HETATM   18  H6  UNL     1      31.614   5.662  50.537  1.00  0.00     0.125 HD
HETATM   19  H7  UNL     1      31.524   6.233  50.413  1.00  0.00     0.125 HD
ENDBRANCH   9  17
ENDBRANCH   8   9
ENDBRANCH   7   8
ENDBRANCH   1   7
BRANCH   5  20
HETATM   20  O3  UNL     1      23.040   5.418  49.851  1.00  0.00    -0.353 OA
HETATM   21  C19 UNL     1      22.720   6.349  50.878  1.00  0.00     0.210 C 
ENDBRANCH   5  20
BRANCH   4  22
HETATM   22  O1  UNL     1      23.647   2.856  50.649  1.00  0.00    -0.344 OA
BRANCH  22  23
HETATM   23  C10 UNL     1      23.369   2.835  52.019  1.00  0.00     0.214 C 
BRANCH  23  24
HETATM   24  C11 UNL     1      24.282   1.897  52.723  1.00  0.00    -0.034 A 
HETATM   25  C12 UNL     1      25.358   2.396  53.429  1.00  0.00     0.012 A 
HETATM   26  C13 UNL     1      26.261   1.618  54.110  1.00  0.00     0.037 A 
HETATM   27  C14 UNL     1      26.103   0.250  54.101  1.00  0.00     0.068 A 
HETATM   28  C16 UNL     1      25.025  -0.300  53.398  1.00  0.00     0.037 A 
HETATM   29  C17 UNL     1      24.144   0.525  52.729  1.00  0.00     0.012 A 
BRANCH  27  30
HETATM   30  O2  UNL     1      27.052  -0.461  54.809  1.00  0.00    -0.356 OA
HETATM   31  C15 UNL     1      28.357   0.084  54.892  1.00  0.00     0.210 C 
ENDBRANCH  27  30
ENDBRANCH  23  24
ENDBRANCH  22  23
ENDBRANCH   4  22
TORSDOF 9
ENDMDL
MODEL 2
REMARK VINA RESULT:      -8.0      1.966      2.684
REMARK  9 active torsions:
REMARK  status: ('A' for Active; 'I' for Inactive)
REMARK       I    between atoms: C2_3  and  N2_4 
REMARK       I    between atoms: C2_3  and  N3_5 
REMARK    1  A    between atoms: C3_6  and  N4_7 
REMARK    2  A    between atoms: C3_6  and  C4_8 
REMARK    3  A    between atoms: C4_8  and  C5_9 
REMARK    4  A    between atoms: C5_9  and  C6_10 
REMARK    5  A    between atoms: C9_13  and  O1_14 
REMARK    6  A    between atoms: O1_14  and  C10_15 
REMARK    7  A    between atoms: C10_15  and  C11_16 
REMARK    8  A    between atoms: C14_19  and  O2_20 
REMARK    9  A    between atoms: C18_24  and  O3_25 
ROOT
HETATM    1  C6  UNL     1      27.566   5.784  48.437  1.00  0.00    -0.055 A 
HETATM    2  C7  UNL     1      27.533   4.463  48.836  1.00  0.00     0.010 A 
HETATM    3  C8  UNL     1      26.494   3.836  49.481  1.00  0.00     0.040 A 
HETATM    4  C9  UNL     1      25.382   4.639  49.743  1.00  0.00     0.102 A 
HETATM    5  C18 UNL     1      25.369   5.962  49.366  1.00  0.00     0.102 A 
HETATM    6  C20 UNL     1      26.440   6.565  48.714  1.00  0.00     0.046 A 
ENDROOT
BRANCH   1   7
HETATM    7  C5  UNL     1      28.770   6.302  47.746  1.00  0.00     0.045 C 
BRANCH   7   8
HETATM    8  C4  UNL     1      29.782   6.928  48.643  1.00  0.00     0.077 C 
BRANCH   8   9
HETATM    9  C3  UNL     1      30.954   6.047  48.851  1.00  0.00     0.097 C 
HETATM   10  N3  UNL     1      31.712   5.638  47.891  1.00  0.00    -0.056 NA
HETATM   11  C2  UNL     1      32.815   4.791  48.193  1.00  0.00     0.716 C 
HETATM   12  N1  UNL     1      32.829   3.648  47.572  1.00  0.00    -0.111 NA
HETATM   13  N2  UNL     1      33.670   5.429  49.140  1.00  0.00    -0.231 N 
HETATM   14  C1  UNL     1      31.824   3.221  46.634  1.00  0.00     0.198 C 
HETATM   15  H4  UNL     1      33.745   5.333  50.192  1.00  0.00     0.174 HD
HETATM   16  H5  UNL     1      34.404   6.148  48.875  1.00  0.00     0.174 HD
BRANCH   9  17
HETATM   17  N4  UNL     1      31.346   5.573  50.134  1.00  0.00    -0.290 NA
HETATM   18  H6  UNL     1      31.378   5.337  51.151  1.00  0.00     0.125 HD
HETATM   19  H7  UNL     1      30.864   5.613  51.061  1.00  0.00     0.125 HD
ENDBRANCH   9  17
ENDBRANCH   8   9
ENDBRANCH   7   8
ENDBRANCH   1   7
BRANCH   5  20
HETATM   20  O3  UNL     1      24.233   6.702  49.657  1.00  0.00    -0.353 OA
HETATM   21  C19 UNL     1      24.201   7.625  50.740  1.00  0.00     0.210 C 
ENDBRANCH   5  20
BRANCH   4  22
HETATM   22  O1  UNL     1      24.303   4.052  50.395  1.00  0.00    -0.344 OA
BRANCH  22  23
HETATM   23  C10 UNL     1      23.638   2.916  49.923  1.00  0.00     0.214 C 
BRANCH  23  24
HETATM   24  C11 UNL     1      23.451   1.928  51.018  1.00  0.00    -0.034 A 
HETATM   25  C12 UNL     1      24.484   1.687  51.901  1.00  0.00     0.012 A 
HETATM   26  C13 UNL     1      24.416   0.797  52.943  1.00  0.00     0.037 A 
HETATM   27  C14 UNL     1      23.252   0.087  53.138  1.00  0.00     0.068 A 
HETATM   28  C16 UNL     1      22.178   0.300  52.268  1.00  0.00     0.037 A 
HETATM   29  C17 UNL     1      22.296   1.207  51.235  1.00  0.00     0.012 A 
BRANCH  27  30
HETATM   30  O2  UNL     1      23.264  -0.789  54.206  1.00  0.00    -0.356 OA
HETATM   31  C15 UNL     1      22.024  -1.100  54.818  1.00  0.00     0.210 C 
ENDBRANCH  27  30
ENDBRANCH  23  24
ENDBRANCH  22  23
ENDBRANCH   4  22
TORSDOF 9
ENDMDL
MODEL 3
REMARK VINA RESULT:      -7.9      1.683      2.179
REMARK  9 active torsions:
REMARK  status: ('A' for Active; 'I' for Inactive)
REMARK       I    between atoms: C2_3  and  N2_4 
REMARK       I    between atoms: C2_3  and  N3_5 
REMARK    1  A    between atoms: C3_6  and  N4_7 
REMARK    2  A    between atoms: C3_6  and  C4_8 
REMARK    3  A    between atoms: C4_8  and  C5_9 
REMARK    4  A    between atoms: C5_9  and  C6_10 
REMARK    5  A    between atoms: C9_13  and  O1_14 
REMARK    6  A    between atoms: O1_14  and  C10_15 
REMARK    7  A    between atoms: C10_15  and  C11_16 
REMARK    8  A    between atoms: C14_19  and  O2_20 
REMARK    9  A    between atoms: C18_24  and  O3_25 
ROOT
HETATM    1  C6  UNL     1      27.481   5.632  48.583  1.00  0.00    -0.055 A 
HETATM    2  C7  UNL     1      27.542   4.302  48.945  1.00  0.00     0.010 A 
HETATM    3  C8  UNL     1      26.583   3.607  49.642  1.00  0.00     0.040 A 
HETATM    4  C9  UNL     1      25.454   4.345  50.004  1.00  0.00     0.102 A 
HETATM    5  C18 UNL     1      25.349   5.674  49.666  1.00  0.00     0.102 A 
HETATM    6  C20 UNL     1      26.340   6.348  48.959  1.00  0.00     0.046 A 
ENDROOT
BRANCH   1   7
HETATM    7  C5  UNL     1      28.606   6.229  47.825  1.00  0.00     0.045 C 
BRANCH   7   8
HETATM    8  C4  UNL     1      29.645   6.888  48.667  1.00  0.00     0.077 C 
BRANCH   8   9
HETATM    9  C3  UNL     1      30.839   6.031  48.841  1.00  0.00     0.097 C 
HETATM   10  N3  UNL     1      31.575   5.634  47.859  1.00  0.00    -0.056 NA
HETATM   11  C2  UNL     1      32.703   4.810  48.130  1.00  0.00     0.716 C 
HETATM   12  N1  UNL     1      32.720   3.665  47.512  1.00  0.00    -0.111 NA
HETATM   13  N2  UNL     1      33.574   5.468  49.048  1.00  0.00    -0.231 N 
HETATM   14  C1  UNL     1      31.695   3.215  46.607  1.00  0.00     0.198 C 
HETATM   15  H4  UNL     1      33.684   5.377  50.097  1.00  0.00     0.174 HD
HETATM   16  H5  UNL     1      34.286   6.200  48.757  1.00  0.00     0.174 HD
BRANCH   9  17
HETATM   17  N4  UNL     1      31.280   5.570  50.113  1.00  0.00    -0.290 NA
HETATM   18  H6  UNL     1      31.577   5.512  51.112  1.00  0.00     0.125 HD
HETATM   19  H7  UNL     1      31.454   6.080  51.009  1.00  0.00     0.125 HD
ENDBRANCH   9  17
ENDBRANCH   8   9
ENDBRANCH   7   8
ENDBRANCH   1   7
BRANCH   5  20
HETATM   20  O3  UNL     1      24.202   6.348  50.056  1.00  0.00    -0.353 OA
HETATM   21  C19 UNL     1      24.263   7.538  50.834  1.00  0.00     0.210 C 
ENDBRANCH   5  20
BRANCH   4  22
HETATM   22  O1  UNL     1      24.454   3.687  50.712  1.00  0.00    -0.344 OA
BRANCH  22  23
HETATM   23  C10 UNL     1      24.397   3.640  52.108  1.00  0.00     0.214 C 
BRANCH  23  24
HETATM   24  C11 UNL     1      25.060   2.410  52.616  1.00  0.00    -0.034 A 
HETATM   25  C12 UNL     1      24.881   1.216  51.948  1.00  0.00     0.012 A 
HETATM   26  C13 UNL     1      25.444   0.025  52.333  1.00  0.00     0.037 A 
HETATM   27  C14 UNL     1      26.242  -0.003  53.455  1.00  0.00     0.068 A 
HETATM   28  C16 UNL     1      26.452   1.185  54.164  1.00  0.00     0.037 A 
HETATM   29  C17 UNL     1      25.863   2.357  53.736  1.00  0.00     0.012 A 
BRANCH  27  30
HETATM   30  O2  UNL     1      26.770  -1.238  53.776  1.00  0.00    -0.356 OA
HETATM   31  C15 UNL     1      27.141  -2.095  52.710  1.00  0.00     0.210 C 
ENDBRANCH  27  30
ENDBRANCH  23  24
ENDBRANCH  22  23
ENDBRANCH   4  22
TORSDOF 9
ENDMDL
MODEL 4
REMARK VINA RESULT:      -7.9      1.715      2.337
REMARK  9 active torsions:
REMARK  status: ('A' for Active; 'I' for Inactive)
REMARK       I    between atoms: C2_3  and  N2_4 
REMARK       I    between atoms: C2_3  and  N3_5 
REMARK    1  A    between atoms: C3_6  and  N4_7 
REMARK    2  A    between atoms: C3_6  and  C4_8 
REMARK    3  A    between atoms: C4_8  and  C5_9 
REMARK    4  A    between atoms: C5_9  and  C6_10 
REMARK    5  A    between atoms: C9_13  and  O1_14 
REMARK    6  A    between atoms: O1_14  and  C10_15 
REMARK    7  A    between atoms: C10_15  and  C11_16 
REMARK    8  A    between atoms: C14_19  and  O2_20 
REMARK    9  A    between atoms: C18_24  and  O3_25 
ROOT
HETATM    1  C6  UNL     1      27.224   5.721  48.716  1.00  0.00    -0.055 A 
HETATM    2  C7  UNL     1      27.257   4.368  48.986  1.00  0.00     0.010 A 
HETATM    3  C8  UNL     1      26.319   3.661  49.700  1.00  0.00     0.040 A 
HETATM    4  C9  UNL     1      25.246   4.410  50.184  1.00  0.00     0.102 A 
HETATM    5  C18 UNL     1      25.171   5.762  49.942  1.00  0.00     0.102 A 
HETATM    6  C20 UNL     1      26.139   6.448  49.215  1.00  0.00     0.046 A 
ENDROOT
BRANCH   1   7
HETATM    7  C5  UNL     1      28.319   6.329  47.924  1.00  0.00     0.045 C 
BRANCH   7   8
HETATM    8  C4  UNL     1      29.591   5.551  47.921  1.00  0.00     0.077 C 
BRANCH   8   9
HETATM    9  C3  UNL     1      30.655   6.233  48.691  1.00  0.00     0.097 C 
HETATM   10  N3  UNL     1      31.269   7.287  48.271  1.00  0.00    -0.056 NA
HETATM   11  C2  UNL     1      32.280   7.870  49.086  1.00  0.00     0.716 C 
HETATM   12  N1  UNL     1      33.449   7.986  48.529  1.00  0.00    -0.111 NA
HETATM   13  N2  UNL     1      31.740   8.199  50.365  1.00  0.00    -0.231 N 
HETATM   14  C1  UNL     1      33.754   7.569  47.185  1.00  0.00     0.198 C 
HETATM   15  H4  UNL     1      31.768   7.685  51.291  1.00  0.00     0.174 HD
HETATM   16  H5  UNL     1      31.192   9.087  50.558  1.00  0.00     0.174 HD
BRANCH   9  17
HETATM   17  N4  UNL     1      31.094   5.784  49.968  1.00  0.00    -0.290 NA
HETATM   18  H6  UNL     1      31.212   5.639  50.996  1.00  0.00     0.125 HD
HETATM   19  H7  UNL     1      30.782   6.039  50.933  1.00  0.00     0.125 HD
ENDBRANCH   9  17
ENDBRANCH   8   9
ENDBRANCH   7   8
ENDBRANCH   1   7
BRANCH   5  20
HETATM   20  O3  UNL     1      24.078   6.447  50.452  1.00  0.00    -0.353 OA
HETATM   21  C19 UNL     1      24.097   7.859  50.627  1.00  0.00     0.210 C 
ENDBRANCH   5  20
BRANCH   4  22
HETATM   22  O1  UNL     1      24.270   3.741  50.915  1.00  0.00    -0.344 OA
BRANCH  22  23
HETATM   23  C10 UNL     1      23.614   2.593  50.459  1.00  0.00     0.214 C 
BRANCH  23  24
HETATM   24  C11 UNL     1      23.416   1.629  51.573  1.00  0.00    -0.034 A 
HETATM   25  C12 UNL     1      22.135   1.273  51.945  1.00  0.00     0.012 A 
HETATM   26  C13 UNL     1      21.843   0.395  52.958  1.00  0.00     0.037 A 
HETATM   27  C14 UNL     1      22.878  -0.179  53.663  1.00  0.00     0.068 A 
HETATM   28  C16 UNL     1      24.193   0.153  53.319  1.00  0.00     0.037 A 
HETATM   29  C17 UNL     1      24.435   1.041  52.292  1.00  0.00     0.012 A 
BRANCH  27  30
HETATM   30  O2  UNL     1      22.501  -1.049  54.666  1.00  0.00    -0.356 OA
HETATM   31  C15 UNL     1      21.319  -1.808  54.473  1.00  0.00     0.210 C 
ENDBRANCH  27  30
ENDBRANCH  23  24
ENDBRANCH  22  23
ENDBRANCH   4  22
TORSDOF 9
ENDMDL
MODEL 5
REMARK VINA RESULT:      -7.9      2.122      2.432
REMARK  9 active torsions:
REMARK  status: ('A' for Active; 'I' for Inactive)
REMARK       I    between atoms: C2_3  and  N2_4 
REMARK       I    between atoms: C2_3  and  N3_5 
REMARK    1  A    between atoms: C3_6  and  N4_7 
REMARK    2  A    between atoms: C3_6  and  C4_8 
REMARK    3  A    between atoms: C4_8  and  C5_9 
REMARK    4  A    between atoms: C5_9  and  C6_10 
REMARK    5  A    between atoms: C9_13  and  O1_14 
REMARK    6  A    between atoms: O1_14  and  C10_15 
REMARK    7  A    between atoms: C10_15  and  C11_16 
REMARK    8  A    between atoms: C14_19  and  O2_20 
REMARK    9  A    between atoms: C18_24  and  O3_25 
ROOT
HETATM    1  C6  UNL     1      26.849   4.972  49.100  1.00  0.00    -0.055 A 
HETATM    2  C7  UNL     1      26.832   3.635  49.443  1.00  0.00     0.010 A 
HETATM    3  C8  UNL     1      25.843   2.991  50.148  1.00  0.00     0.040 A 
HETATM    4  C9  UNL     1      24.770   3.793  50.540  1.00  0.00     0.102 A 
HETATM    5  C18 UNL     1      24.743   5.132  50.223  1.00  0.00     0.102 A 
HETATM    6  C20 UNL     1      25.762   5.752  49.507  1.00  0.00     0.046 A 
ENDROOT
BRANCH   1   7
HETATM    7  C5  UNL     1      27.996   5.508  48.329  1.00  0.00     0.045 C 
BRANCH   7   8
HETATM    8  C4  UNL     1      27.745   6.823  47.674  1.00  0.00     0.077 C 
BRANCH   8   9
HETATM    9  C3  UNL     1      28.032   7.955  48.585  1.00  0.00     0.097 C 
HETATM   10  N3  UNL     1      27.228   8.950  48.753  1.00  0.00    -0.056 NA
HETATM   11  C2  UNL     1      27.595   9.991  49.651  1.00  0.00     0.716 C 
HETATM   12  N1  UNL     1      27.630  11.186  49.137  1.00  0.00    -0.111 NA
HETATM   13  N2  UNL     1      27.842   9.448  50.947  1.00  0.00    -0.231 N 
HETATM   14  C1  UNL     1      27.329  11.489  47.763  1.00  0.00     0.198 C 
HETATM   15  H4  UNL     1      28.743   9.176  51.432  1.00  0.00     0.174 HD
HETATM   16  H5  UNL     1      27.074   9.230  51.646  1.00  0.00     0.174 HD
BRANCH   9  17
HETATM   17  N4  UNL     1      29.223   8.042  49.358  1.00  0.00    -0.290 NA
HETATM   18  H6  UNL     1      30.188   8.256  49.695  1.00  0.00     0.125 HD
HETATM   19  H7  UNL     1      30.141   8.502  49.160  1.00  0.00     0.125 HD
ENDBRANCH   9  17
ENDBRANCH   8   9
ENDBRANCH   7   8
ENDBRANCH   1   7
BRANCH   5  20
HETATM   20  O3  UNL     1      23.648   5.870  50.644  1.00  0.00    -0.353 OA
HETATM   21  C19 UNL     1      23.756   7.255  50.953  1.00  0.00     0.210 C 
ENDBRANCH   5  20
BRANCH   4  22
HETATM   22  O1  UNL     1      23.743   3.189  51.257  1.00  0.00    -0.344 OA
BRANCH  22  23
HETATM   23  C10 UNL     1      23.766   3.015  52.644  1.00  0.00     0.214 C 
BRANCH  23  24
HETATM   24  C11 UNL     1      24.718   1.937  53.019  1.00  0.00    -0.034 A 
HETATM   25  C12 UNL     1      25.849   2.250  53.745  1.00  0.00     0.012 A 
HETATM   26  C13 UNL     1      26.791   1.333  54.138  1.00  0.00     0.037 A 
HETATM   27  C14 UNL     1      26.617   0.010  53.798  1.00  0.00     0.068 A 
HETATM   28  C16 UNL     1      25.484  -0.354  53.062  1.00  0.00     0.037 A 
HETATM   29  C17 UNL     1      24.565   0.606  52.690  1.00  0.00     0.012 A 
BRANCH  27  30
HETATM   30  O2  UNL     1      27.608  -0.849  54.231  1.00  0.00    -0.356 OA
HETATM   31  C15 UNL     1      28.758  -0.993  53.415  1.00  0.00     0.210 C 
ENDBRANCH  27  30
ENDBRANCH  23  24
ENDBRANCH  22  23
ENDBRANCH   4  22
TORSDOF 9
ENDMDL
MODEL 6
REMARK VINA RESULT:      -7.7      1.870      2.642
REMARK  9 active torsions:
REMARK  status: ('A' for Active; 'I' for Inactive)
REMARK       I    between atoms: C2_3  and  N2_4 
REMARK       I    between atoms: C2_3  and  N3_5 
REMARK    1  A    between atoms: C3_6  and  N4_7 
REMARK    2  A    between atoms: C3_6  and  C4_8 
REMARK    3  A    between atoms: C4_8  and  C5_9 
REMARK    4  A    between atoms: C5_9  and  C6_10 
REMARK    5  A    between atoms: C9_13  and  O1_14 
REMARK    6  A    between atoms: O1_14  and  C10_15 
REMARK    7  A    between atoms: C10_15  and  C11_16 
REMARK    8  A    between atoms: C14_19  and  O2_20 
REMARK    9  A    between atoms: C18_24  and  O3_25 
ROOT
HETATM    1  C6  UNL     1      26.638   6.273  48.590  1.00  0.00    -0.055 A 
HETATM    2  C7  UNL     1      27.257   5.039  48.617  1.00  0.00     0.010 A 
HETATM    3  C8  UNL     1      26.868   3.953  49.364  1.00  0.00     0.040 A 
HETATM    4  C9  UNL     1      25.738   4.149  50.160  1.00  0.00     0.102 A 
HETATM    5  C18 UNL     1      25.088   5.361  50.167  1.00  0.00     0.102 A 
HETATM    6  C20 UNL     1      25.509   6.441  49.398  1.00  0.00     0.046 A 
ENDROOT
BRANCH   1   7
HETATM    7  C5  UNL     1      27.187   7.340  47.720  1.00  0.00     0.045 C 
BRANCH   7   8
HETATM    8  C4  UNL     1      27.175   8.703  48.325  1.00  0.00     0.077 C 
BRANCH   8   9
HETATM    9  C3  UNL     1      28.387   8.955  49.137  1.00  0.00     0.097 C 
HETATM   10  N3  UNL     1      29.586   8.827  48.679  1.00  0.00    -0.056 NA
HETATM   11  C2  UNL     1      30.688   9.093  49.541  1.00  0.00     0.716 C 
HETATM   12  N1  UNL     1      31.533   8.114  49.684  1.00  0.00    -0.111 NA
HETATM   13  N2  UNL     1      30.591  10.420  50.054  1.00  0.00    -0.231 N 
HETATM   14  C1  UNL     1      31.410   6.833  49.041  1.00  0.00     0.198 C 
HETATM   15  H4  UNL     1      30.220  10.789  50.975  1.00  0.00     0.174 HD
HETATM   16  H5  UNL     1      30.911  11.279  49.520  1.00  0.00     0.174 HD
BRANCH   9  17
HETATM   17  N4  UNL     1      28.333   9.365  50.498  1.00  0.00    -0.290 NA
HETATM   18  H6  UNL     1      28.570   9.735  51.446  1.00  0.00     0.125 HD
HETATM   19  H7  UNL     1      29.061   9.785  51.122  1.00  0.00     0.125 HD
ENDBRANCH   9  17
ENDBRANCH   8   9
ENDBRANCH   7   8
ENDBRANCH   1   7
BRANCH   5  20
HETATM   20  O3  UNL     1      23.972   5.488  50.980  1.00  0.00    -0.353 OA
HETATM   21  C19 UNL     1      22.854   6.280  50.596  1.00  0.00     0.210 C 
ENDBRANCH   5  20
BRANCH   4  22
HETATM   22  O1  UNL     1      25.304   3.080  50.936  1.00  0.00    -0.344 OA
BRANCH  22  23
HETATM   23  C10 UNL     1      26.167   2.220  51.622  1.00  0.00     0.214 C 
BRANCH  23  24
HETATM   24  C11 UNL     1      25.395   1.249  52.440  1.00  0.00    -0.034 A 
HETATM   25  C12 UNL     1      24.031   1.406  52.574  1.00  0.00     0.012 A 
HETATM   26  C13 UNL     1      23.227   0.569  53.307  1.00  0.00     0.037 A 
HETATM   27  C14 UNL     1      23.797  -0.502  53.958  1.00  0.00     0.068 A 
HETATM   28  C16 UNL     1      25.178  -0.701  53.849  1.00  0.00     0.037 A 
HETATM   29  C17 UNL     1      25.943   0.169  53.101  1.00  0.00     0.012 A 
BRANCH  27  30
HETATM   30  O2  UNL     1      22.921  -1.295  54.674  1.00  0.00    -0.356 OA
HETATM   31  C15 UNL     1      21.543  -0.967  54.625  1.00  0.00     0.210 C 
ENDBRANCH  27  30
ENDBRANCH  23  24
ENDBRANCH  22  23
ENDBRANCH   4  22
TORSDOF 9
ENDMDL
MODEL 7
REMARK VINA RESULT:      -7.6      2.625      3.616
REMARK  9 active torsions:
REMARK  status: ('A' for Active; 'I' for Inactive)
REMARK       I    between atoms: C2_3  and  N2_4 
REMARK       I    between atoms: C2_3  and  N3_5 
REMARK    1  A    between atoms: C3_6  and  N4_7 
REMARK    2  A    between atoms: C3_6  and  C4_8 
REMARK    3  A    between atoms: C4_8  and  C5_9 
REMARK    4  A    between atoms: C5_9  and  C6_10 
REMARK    5  A    between atoms: C9_13  and  O1_14 
REMARK    6  A    between atoms: O1_14  and  C10_15 
REMARK    7  A    between atoms: C10_15  and  C11_16 
REMARK    8  A    between atoms: C14_19  and  O2_20 
REMARK    9  A    between atoms: C18_24  and  O3_25 
ROOT
HETATM    1  C6  UNL     1      25.872   5.456  49.442  1.00  0.00    -0.055 A 
HETATM    2  C7  UNL     1      26.617   4.295  49.432  1.00  0.00     0.010 A 
HETATM    3  C8  UNL     1      26.203   3.061  49.875  1.00  0.00     0.040 A 
HETATM    4  C9  UNL     1      24.902   3.013  50.377  1.00  0.00     0.102 A 
HETATM    5  C18 UNL     1      24.121   4.145  50.410  1.00  0.00     0.102 A 
HETATM    6  C20 UNL     1      24.573   5.379  49.952  1.00  0.00     0.046 A 
ENDROOT
BRANCH   1   7
HETATM    7  C5  UNL     1      26.472   6.707  48.920  1.00  0.00     0.045 C 
BRANCH   7   8
HETATM    8  C4  UNL     1      26.188   7.921  49.736  1.00  0.00     0.077 C 
BRANCH   8   9
HETATM    9  C3  UNL     1      27.394   8.763  49.909  1.00  0.00     0.097 C 
HETATM   10  N3  UNL     1      28.329   8.851  49.025  1.00  0.00    -0.056 NA
HETATM   11  C2  UNL     1      29.450   9.688  49.286  1.00  0.00     0.716 C 
HETATM   12  N1  UNL     1      30.609   9.099  49.239  1.00  0.00    -0.111 NA
HETATM   13  N2  UNL     1      29.010  11.020  49.543  1.00  0.00    -0.231 N 
HETATM   14  C1  UNL     1      30.801   7.703  48.949  1.00  0.00     0.198 C 
HETATM   15  H4  UNL     1      28.842  11.540  50.450  1.00  0.00     0.174 HD
HETATM   16  H5  UNL     1      28.775  11.717  48.777  1.00  0.00     0.174 HD
BRANCH   9  17
HETATM   17  N4  UNL     1      27.625   9.552  51.070  1.00  0.00    -0.290 NA
HETATM   18  H6  UNL     1      28.068  10.052  51.873  1.00  0.00     0.125 HD
HETATM   19  H7  UNL     1      28.506   9.777  51.587  1.00  0.00     0.125 HD
ENDBRANCH   9  17
ENDBRANCH   8   9
ENDBRANCH   7   8
ENDBRANCH   1   7
BRANCH   5  20
HETATM   20  O3  UNL     1      22.838   4.027  50.922  1.00  0.00    -0.353 OA
HETATM   21  C19 UNL     1      21.690   4.312  50.132  1.00  0.00     0.210 C 
ENDBRANCH   5  20
BRANCH   4  22
HETATM   22  O1  UNL     1      24.435   1.787  50.840  1.00  0.00    -0.344 OA
BRANCH  22  23
HETATM   23  C10 UNL     1      24.744   1.266  52.100  1.00  0.00     0.214 C 
BRANCH  23  24
HETATM   24  C11 UNL     1      23.579   0.532  52.660  1.00  0.00    -0.034 A 
HETATM   25  C12 UNL     1      22.342   0.660  52.062  1.00  0.00     0.012 A 
HETATM   26  C13 UNL     1      21.205   0.028  52.500  1.00  0.00     0.037 A 
HETATM   27  C14 UNL     1      21.280  -0.790  53.605  1.00  0.00     0.068 A 
HETATM   28  C16 UNL     1      22.515  -0.949  54.244  1.00  0.00     0.037 A 
HETATM   29  C17 UNL     1      23.630  -0.293  53.765  1.00  0.00     0.012 A 
BRANCH  27  30
HETATM   30  O2  UNL     1      20.093  -1.387  53.982  1.00  0.00    -0.356 OA
HETATM   31  C15 UNL     1      18.913  -0.998  53.300  1.00  0.00     0.210 C 
ENDBRANCH  27  30
ENDBRANCH  23  24
ENDBRANCH  22  23
ENDBRANCH   4  22
TORSDOF 9
ENDMDL
MODEL 8
REMARK VINA RESULT:      -7.5      4.091      7.823
REMARK  9 active torsions:
REMARK  status: ('A' for Active; 'I' for Inactive)
REMARK       I    between atoms: C2_3  and  N2_4 
REMARK       I    between atoms: C2_3  and  N3_5 
REMARK    1  A    between atoms: C3_6  and  N4_7 
REMARK    2  A    between atoms: C3_6  and  C4_8 
REMARK    3  A    between atoms: C4_8  and  C5_9 
REMARK    4  A    between atoms: C5_9  and  C6_10 
REMARK    5  A    between atoms: C9_13  and  O1_14 
REMARK    6  A    between atoms: O1_14  and  C10_15 
REMARK    7  A    between atoms: C10_15  and  C11_16 
REMARK    8  A    between atoms: C14_19  and  O2_20 
REMARK    9  A    between atoms: C18_24  and  O3_25 
ROOT
HETATM    1  C6  UNL     1      24.418   1.541  52.048  1.00  0.00    -0.055 A 
HETATM    2  C7  UNL     1      25.684   1.944  51.675  1.00  0.00     0.010 A 
HETATM    3  C8  UNL     1      25.990   2.838  50.677  1.00  0.00     0.040 A 
HETATM    4  C9  UNL     1      24.894   3.371  49.996  1.00  0.00     0.102 A 
HETATM    5  C18 UNL     1      23.613   2.999  50.330  1.00  0.00     0.102 A 
HETATM    6  C20 UNL     1      23.339   2.089  51.347  1.00  0.00     0.046 A 
ENDROOT
BRANCH   1   7
HETATM    7  C5  UNL     1      24.263   0.567  53.154  1.00  0.00     0.045 C 
BRANCH   7   8
HETATM    8  C4  UNL     1      25.156  -0.624  53.063  1.00  0.00     0.077 C 
BRANCH   8   9
HETATM    9  C3  UNL     1      26.377  -0.459  53.884  1.00  0.00     0.097 C 
HETATM   10  N3  UNL     1      27.566  -0.417  53.384  1.00  0.00    -0.056 NA
HETATM   11  C2  UNL     1      28.678  -0.257  54.258  1.00  0.00     0.716 C 
HETATM   12  N1  UNL     1      29.584  -1.187  54.185  1.00  0.00    -0.111 NA
HETATM   13  N2  UNL     1      28.520   0.934  55.028  1.00  0.00    -0.231 N 
HETATM   14  C1  UNL     1      29.516  -2.321  53.301  1.00  0.00     0.198 C 
HETATM   15  H4  UNL     1      28.160   1.089  56.012  1.00  0.00     0.174 HD
HETATM   16  H5  UNL     1      28.771   1.900  54.669  1.00  0.00     0.174 HD
BRANCH   9  17
HETATM   17  N4  UNL     1      26.345  -0.332  55.300  1.00  0.00    -0.290 NA
HETATM   18  H6  UNL     1      26.338  -0.526  56.326  1.00  0.00     0.125 HD
HETATM   19  H7  UNL     1      26.372  -1.052  56.058  1.00  0.00     0.125 HD
ENDBRANCH   9  17
ENDBRANCH   8   9
ENDBRANCH   7   8
ENDBRANCH   1   7
BRANCH   5  20
HETATM   20  O3  UNL     1      22.571   3.566  49.613  1.00  0.00    -0.353 OA
HETATM   21  C19 UNL     1      21.695   4.523  50.198  1.00  0.00     0.210 C 
ENDBRANCH   5  20
BRANCH   4  22
HETATM   22  O1  UNL     1      25.151   4.281  48.975  1.00  0.00    -0.344 OA
BRANCH  22  23
HETATM   23  C10 UNL     1      25.438   5.631  49.197  1.00  0.00     0.214 C 
BRANCH  23  24
HETATM   24  C11 UNL     1      26.759   5.986  48.616  1.00  0.00    -0.034 A 
HETATM   25  C12 UNL     1      26.934   7.220  48.025  1.00  0.00     0.012 A 
HETATM   26  C13 UNL     1      28.110   7.644  47.458  1.00  0.00     0.037 A 
HETATM   27  C14 UNL     1      29.198   6.800  47.469  1.00  0.00     0.068 A 
HETATM   28  C16 UNL     1      29.067   5.538  48.059  1.00  0.00     0.037 A 
HETATM   29  C17 UNL     1      27.863   5.158  48.616  1.00  0.00     0.012 A 
BRANCH  27  30
HETATM   30  O2  UNL     1      30.342   7.301  46.879  1.00  0.00    -0.356 OA
HETATM   31  C15 UNL     1      31.585   6.748  47.277  1.00  0.00     0.210 C 
ENDBRANCH  27  30
ENDBRANCH  23  24
ENDBRANCH  22  23
ENDBRANCH   4  22
TORSDOF 9
ENDMDL
MODEL 9
REMARK VINA RESULT:      -7.5      1.983      3.015
REMARK  9 active torsions:
REMARK  status: ('A' for Active; 'I' for Inactive)
REMARK       I    between atoms: C2_3  and  N2_4 
REMARK       I    between atoms: C2_3  and  N3_5 
REMARK    1  A    between atoms: C3_6  and  N4_7 
REMARK    2  A    between atoms: C3_6  and  C4_8 
REMARK    3  A    between atoms: C4_8  and  C5_9 
REMARK    4  A    between atoms: C5_9  and  C6_10 
REMARK    5  A    between atoms: C9_13  and  O1_14 
REMARK    6  A    between atoms: O1_14  and  C10_15 
REMARK    7  A    between atoms: C10_15  and  C11_16 
REMARK    8  A    between atoms: C14_19  and  O2_20 
REMARK    9  A    between atoms: C18_24  and  O3_25 
ROOT
HETATM    1  C6  UNL     1      26.696   5.471  48.987  1.00  0.00    -0.055 A 
HETATM    2  C7  UNL     1      27.148   4.177  49.151  1.00  0.00     0.010 A 
HETATM    3  C8  UNL     1      26.432   3.129  49.678  1.00  0.00     0.040 A 
HETATM    4  C9  UNL     1      25.129   3.434  50.075  1.00  0.00     0.102 A 
HETATM    5  C18 UNL     1      24.635   4.710  49.933  1.00  0.00     0.102 A 
HETATM    6  C20 UNL     1      25.387   5.749  49.395  1.00  0.00     0.046 A 
ENDROOT
BRANCH   1   7
HETATM    7  C5  UNL     1      27.600   6.485  48.396  1.00  0.00     0.045 C 
BRANCH   7   8
HETATM    8  C4  UNL     1      28.849   5.932  47.797  1.00  0.00     0.077 C 
BRANCH   8   9
HETATM    9  C3  UNL     1      30.060   6.470  48.457  1.00  0.00     0.097 C 
HETATM   10  N3  UNL     1      30.653   7.551  48.077  1.00  0.00    -0.056 NA
HETATM   11  C2  UNL     1      31.814   7.986  48.776  1.00  0.00     0.716 C 
HETATM   12  N1  UNL     1      32.881   8.138  48.048  1.00  0.00    -0.111 NA
HETATM   13  N2  UNL     1      31.509   8.157  50.159  1.00  0.00    -0.231 N 
HETATM   14  C1  UNL     1      32.938   7.897  46.630  1.00  0.00     0.198 C 
HETATM   15  H4  UNL     1      31.661   7.522  50.993  1.00  0.00     0.174 HD
HETATM   16  H5  UNL     1      31.049   9.028  50.554  1.00  0.00     0.174 HD
BRANCH   9  17
HETATM   17  N4  UNL     1      30.677   5.839  49.573  1.00  0.00    -0.290 NA
HETATM   18  H6  UNL     1      30.863   5.397  50.500  1.00  0.00     0.125 HD
HETATM   19  H7  UNL     1      30.290   5.541  50.497  1.00  0.00     0.125 HD
ENDBRANCH   9  17
ENDBRANCH   8   9
ENDBRANCH   7   8
ENDBRANCH   1   7
BRANCH   5  20
HETATM   20  O3  UNL     1      23.333   4.945  50.348  1.00  0.00    -0.353 OA
HETATM   21  C19 UNL     1      23.047   5.522  51.616  1.00  0.00     0.210 C 
ENDBRANCH   5  20
BRANCH   4  22
HETATM   22  O1  UNL     1      24.363   2.407  50.615  1.00  0.00    -0.344 OA
BRANCH  22  23
HETATM   23  C10 UNL     1      24.507   1.941  51.926  1.00  0.00     0.214 C 
BRANCH  23  24
HETATM   24  C11 UNL     1      23.242   1.321  52.401  1.00  0.00    -0.034 A 
HETATM   25  C12 UNL     1      23.275   0.075  52.993  1.00  0.00     0.012 A 
HETATM   26  C13 UNL     1      22.168  -0.585  53.462  1.00  0.00     0.037 A 
HETATM   27  C14 UNL     1      20.934   0.016  53.345  1.00  0.00     0.068 A 
HETATM   28  C16 UNL     1      20.853   1.280  52.752  1.00  0.00     0.037 A 
HETATM   29  C17 UNL     1      21.996   1.903  52.296  1.00  0.00     0.012 A 
BRANCH  27  30
HETATM   30  O2  UNL     1      19.870  -0.713  53.841  1.00  0.00    -0.356 OA
HETATM   31  C15 UNL     1      18.704  -0.804  53.041  1.00  0.00     0.210 C 
ENDBRANCH  27  30
ENDBRANCH  23  24
ENDBRANCH  22  23
ENDBRANCH   4  22
TORSDOF 9
ENDMDL
