MODEL 1
REMARK VINA RESULT:      -8.4      0.000      0.000
REMARK  1 active torsions:
REMARK  status: ('A' for Active; 'I' for Inactive)
REMARK    1  A    between atoms: C5_5  and  O1_6 
ROOT
HETATM    1  C1  UNL     1      21.875   4.594  47.806  1.00  0.00     0.020 C 
HETATM    2  C2  UNL     1      22.392   3.988  48.841  1.00  0.00    -0.048 C 
HETATM    3  C3  UNL     1      23.846   4.105  48.873  1.00  0.00     0.007 C 
HETATM    4  C4  UNL     1      24.901   3.758  49.585  1.00  0.00     0.009 C 
HETATM    5  C5  UNL     1      26.341   3.683  49.920  1.00  0.00     0.165 C 
HETATM    6  C6  UNL     1      26.529   3.017  51.268  1.00  0.00     0.025 C 
HETATM    7  C7  UNL     1      26.046   2.108  52.066  1.00  0.00     0.086 C 
HETATM    8  N1  UNL     1      26.185   1.458  53.320  1.00  0.00    -0.375 N 
HETATM    9  C8  UNL     1      27.365   0.614  53.300  1.00  0.00     0.099 C 
HETATM   10  C9  UNL     1      26.974  -0.401  52.535  1.00  0.00    -0.009 C 
HETATM   11  C10 UNL     1      25.991  -1.116  52.999  1.00  0.00     0.013 C 
HETATM   12  C11 UNL     1      25.013  -0.651  53.970  1.00  0.00    -0.003 C 
HETATM   13  C12 UNL     1      23.692  -0.684  54.057  1.00  0.00    -0.025 C 
HETATM   14  C13 UNL     1      22.646  -1.216  53.193  1.00  0.00     0.051 C 
HETATM   15  C14 UNL     1      21.670  -0.197  52.765  1.00  0.00     0.080 C 
HETATM   16  C15 UNL     1      21.015   0.372  54.034  1.00  0.00     0.032 C 
HETATM   17  N2  UNL     1      22.192   0.899  51.983  1.00  0.00    -0.393 N 
HETATM   18  C16 UNL     1      21.044   1.722  51.619  1.00  0.00     0.098 C 
HETATM   19  C17 UNL     1      20.590   1.073  50.547  1.00  0.00     0.024 C 
HETATM   20  C18 UNL     1      21.485   1.014  49.591  1.00  0.00     0.093 C 
HETATM   21  N3  UNL     1      22.413   1.911  49.777  1.00  0.00    -0.282 NA
HETATM   22  C19 UNL     1      21.803   3.227  49.986  1.00  0.00     0.187 C 
HETATM   23  H9  UNL     1      25.317   1.895  53.763  1.00  0.00     0.164 HD
HETATM   24  H20 UNL     1      23.222   0.854  51.863  1.00  0.00     0.159 HD
ENDROOT
BRANCH   5  25
HETATM   25  O1  UNL     1      27.104   2.957  49.020  1.00  0.00    -0.388 OA
HETATM   26  H6  UNL     1      27.863   3.472  48.705  1.00  0.00     0.210 HD
ENDBRANCH   5  25
TORSDOF 1
ENDMDL
MODEL 2
REMARK VINA RESULT:      -8.3      1.679      5.287
REMARK  1 active torsions:
REMARK  status: ('A' for Active; 'I' for Inactive)
REMARK    1  A    between atoms: C5_5  and  O1_6 
ROOT
HETATM    1  C1  UNL     1      23.512  -1.353  55.221  1.00  0.00     0.020 C 
HETATM    2  C2  UNL     1      23.694  -0.634  54.146  1.00  0.00    -0.048 C 
HETATM    3  C3  UNL     1      24.993   0.029  54.144  1.00  0.00     0.007 C 
HETATM    4  C4  UNL     1      25.749   0.831  53.421  1.00  0.00     0.009 C 
HETATM    5  C5  UNL     1      26.954   1.631  53.101  1.00  0.00     0.165 C 
HETATM    6  C6  UNL     1      26.842   2.207  51.704  1.00  0.00     0.025 C 
HETATM    7  C7  UNL     1      26.001   2.672  50.826  1.00  0.00     0.086 C 
HETATM    8  N1  UNL     1      25.850   3.215  49.522  1.00  0.00    -0.375 N 
HETATM    9  C8  UNL     1      26.411   4.553  49.488  1.00  0.00     0.099 C 
HETATM   10  C9  UNL     1      25.504   5.258  50.158  1.00  0.00    -0.009 C 
HETATM   11  C10 UNL     1      24.320   5.317  49.621  1.00  0.00     0.013 C 
HETATM   12  C11 UNL     1      23.787   4.346  48.679  1.00  0.00    -0.003 C 
HETATM   13  C12 UNL     1      22.651   3.674  48.571  1.00  0.00    -0.025 C 
HETATM   14  C13 UNL     1      21.434   3.631  49.372  1.00  0.00     0.051 C 
HETATM   15  C14 UNL     1      21.113   2.281  49.871  1.00  0.00     0.080 C 
HETATM   16  C15 UNL     1      20.925   1.372  48.646  1.00  0.00     0.032 C 
HETATM   17  N2  UNL     1      22.086   1.676  50.751  1.00  0.00    -0.393 N 
HETATM   18  C16 UNL     1      21.519   0.398  51.167  1.00  0.00     0.098 C 
HETATM   19  C17 UNL     1      20.734   0.780  52.174  1.00  0.00     0.024 C 
HETATM   20  C18 UNL     1      21.410   1.362  53.134  1.00  0.00     0.093 C 
HETATM   21  N3  UNL     1      22.678   1.077  53.038  1.00  0.00    -0.282 NA
HETATM   22  C19 UNL     1      22.860  -0.373  52.933  1.00  0.00     0.187 C 
HETATM   23  H9  UNL     1      25.365   2.359  49.106  1.00  0.00     0.164 HD
HETATM   24  H20 UNL     1      22.932   2.264  50.881  1.00  0.00     0.159 HD
ENDROOT
BRANCH   5  25
HETATM   25  O1  UNL     1      27.172   2.706  53.947  1.00  0.00    -0.388 OA
HETATM   26  H6  UNL     1      27.834   2.494  54.623  1.00  0.00     0.210 HD
ENDBRANCH   5  25
TORSDOF 1
ENDMDL
MODEL 3
REMARK VINA RESULT:      -8.0      1.691      4.795
REMARK  1 active torsions:
REMARK  status: ('A' for Active; 'I' for Inactive)
REMARK    1  A    between atoms: C5_5  and  O1_6 
ROOT
HETATM    1  C1  UNL     1      27.005   4.786  49.017  1.00  0.00     0.020 C 
HETATM    2  C2  UNL     1      26.233   3.853  49.508  1.00  0.00    -0.048 C 
HETATM    3  C3  UNL     1      24.820   4.128  49.265  1.00  0.00     0.007 C 
HETATM    4  C4  UNL     1      23.615   3.634  49.473  1.00  0.00     0.009 C 
HETATM    5  C5  UNL     1      22.136   3.602  49.403  1.00  0.00     0.165 C 
HETATM    6  C6  UNL     1      21.616   2.292  49.961  1.00  0.00     0.025 C 
HETATM    7  C7  UNL     1      21.838   1.371  50.854  1.00  0.00     0.086 C 
HETATM    8  N1  UNL     1      21.387   0.144  51.408  1.00  0.00    -0.375 N 
HETATM    9  C8  UNL     1      20.159   0.369  52.147  1.00  0.00     0.099 C 
HETATM   10  C9  UNL     1      20.596   0.989  53.239  1.00  0.00    -0.009 C 
HETATM   11  C10 UNL     1      21.391   0.299  54.004  1.00  0.00     0.013 C 
HETATM   12  C11 UNL     1      22.193  -0.831  53.563  1.00  0.00    -0.003 C 
HETATM   13  C12 UNL     1      23.459  -1.191  53.703  1.00  0.00    -0.025 C 
HETATM   14  C13 UNL     1      24.602  -0.587  54.378  1.00  0.00     0.051 C 
HETATM   15  C14 UNL     1      25.739  -0.324  53.475  1.00  0.00     0.080 C 
HETATM   16  C15 UNL     1      26.176  -1.673  52.884  1.00  0.00     0.032 C 
HETATM   17  N2  UNL     1      25.494   0.600  52.392  1.00  0.00    -0.393 N 
HETATM   18  C16 UNL     1      26.767   0.755  51.696  1.00  0.00     0.098 C 
HETATM   19  C17 UNL     1      27.361   1.679  52.450  1.00  0.00     0.024 C 
HETATM   20  C18 UNL     1      26.677   2.796  52.493  1.00  0.00     0.093 C 
HETATM   21  N3  UNL     1      25.822   2.847  51.510  1.00  0.00    -0.282 NA
HETATM   22  C19 UNL     1      26.502   2.578  50.240  1.00  0.00     0.187 C 
HETATM   23  H9  UNL     1      22.186  -0.448  51.018  1.00  0.00     0.164 HD
HETATM   24  H20 UNL     1      24.510   0.927  52.356  1.00  0.00     0.159 HD
ENDROOT
BRANCH   5  25
HETATM   25  O1  UNL     1      21.504   4.605  50.118  1.00  0.00    -0.388 OA
HETATM   26  H6  UNL     1      21.287   4.314  51.017  1.00  0.00     0.210 HD
ENDBRANCH   5  25
TORSDOF 1
ENDMDL
MODEL 4
REMARK VINA RESULT:      -7.8      2.814      5.547
REMARK  1 active torsions:
REMARK  status: ('A' for Active; 'I' for Inactive)
REMARK    1  A    between atoms: C5_5  and  O1_6 
ROOT
HETATM    1  C1  UNL     1      16.723  -0.409  51.729  1.00  0.00     0.020 C 
HETATM    2  C2  UNL     1      17.988  -0.122  51.575  1.00  0.00    -0.048 C 
HETATM    3  C3  UNL     1      18.776  -0.473  52.752  1.00  0.00     0.007 C 
HETATM    4  C4  UNL     1      20.009  -0.455  53.221  1.00  0.00     0.009 C 
HETATM    5  C5  UNL     1      21.080  -0.682  54.218  1.00  0.00     0.165 C 
HETATM    6  C6  UNL     1      22.431  -0.350  53.616  1.00  0.00     0.025 C 
HETATM    7  C7  UNL     1      23.041   0.438  52.778  1.00  0.00     0.086 C 
HETATM    8  N1  UNL     1      24.285   0.783  52.188  1.00  0.00    -0.375 N 
HETATM    9  C8  UNL     1      25.133   1.413  53.182  1.00  0.00     0.099 C 
HETATM   10  C9  UNL     1      24.577   2.614  53.308  1.00  0.00    -0.009 C 
HETATM   11  C10 UNL     1      24.598   3.365  52.245  1.00  0.00     0.013 C 
HETATM   12  C11 UNL     1      24.717   2.870  50.883  1.00  0.00    -0.003 C 
HETATM   13  C12 UNL     1      24.075   3.094  49.747  1.00  0.00    -0.025 C 
HETATM   14  C13 UNL     1      22.955   3.954  49.383  1.00  0.00     0.051 C 
HETATM   15  C14 UNL     1      21.815   3.215  48.810  1.00  0.00     0.080 C 
HETATM   16  C15 UNL     1      22.320   2.506  47.542  1.00  0.00     0.032 C 
HETATM   17  N2  UNL     1      21.190   2.237  49.669  1.00  0.00    -0.393 N 
HETATM   18  C16 UNL     1      20.059   1.701  48.919  1.00  0.00     0.098 C 
HETATM   19  C17 UNL     1      19.128   2.623  49.163  1.00  0.00     0.024 C 
HETATM   20  C18 UNL     1      18.869   2.736  50.443  1.00  0.00     0.093 C 
HETATM   21  N3  UNL     1      19.289   1.685  51.089  1.00  0.00    -0.282 NA
HETATM   22  C19 UNL     1      18.778   0.468  50.451  1.00  0.00     0.187 C 
HETATM   23  H9  UNL     1      24.050   0.407  51.216  1.00  0.00     0.164 HD
HETATM   24  H20 UNL     1      21.668   2.141  50.585  1.00  0.00     0.159 HD
ENDROOT
BRANCH   5  25
HETATM   25  O1  UNL     1      20.970   0.085  55.366  1.00  0.00    -0.388 OA
HETATM   26  H6  UNL     1      20.871   1.026  55.153  1.00  0.00     0.210 HD
ENDBRANCH   5  25
TORSDOF 1
ENDMDL
MODEL 5
REMARK VINA RESULT:      -7.6      1.687      3.990
REMARK  1 active torsions:
REMARK  status: ('A' for Active; 'I' for Inactive)
REMARK    1  A    between atoms: C5_5  and  O1_6 
ROOT
HETATM    1  C1  UNL     1      27.167   4.412  48.958  1.00  0.00     0.020 C 
HETATM    2  C2  UNL     1      26.251   3.916  49.745  1.00  0.00    -0.048 C 
HETATM    3  C3  UNL     1      26.775   2.848  50.589  1.00  0.00     0.007 C 
HETATM    4  C4  UNL     1      26.416   1.996  51.531  1.00  0.00     0.009 C 
HETATM    5  C5  UNL     1      26.609   0.904  52.511  1.00  0.00     0.165 C 
HETATM    6  C6  UNL     1      25.349   0.709  53.331  1.00  0.00     0.025 C 
HETATM    7  C7  UNL     1      24.050   0.769  53.286  1.00  0.00     0.086 C 
HETATM    8  N1  UNL     1      22.844   0.600  54.016  1.00  0.00    -0.375 N 
HETATM    9  C8  UNL     1      22.630  -0.811  54.276  1.00  0.00     0.099 C 
HETATM   10  C9  UNL     1      22.265  -1.267  53.082  1.00  0.00    -0.009 C 
HETATM   11  C10 UNL     1      21.153  -0.787  52.606  1.00  0.00     0.013 C 
HETATM   12  C11 UNL     1      20.564   0.484  52.998  1.00  0.00    -0.003 C 
HETATM   13  C12 UNL     1      20.068   1.525  52.348  1.00  0.00    -0.025 C 
HETATM   14  C13 UNL     1      19.900   1.834  50.933  1.00  0.00     0.051 C 
HETATM   15  C14 UNL     1      20.584   3.074  50.523  1.00  0.00     0.080 C 
HETATM   16  C15 UNL     1      19.984   4.223  51.349  1.00  0.00     0.032 C 
HETATM   17  N2  UNL     1      22.020   3.093  50.677  1.00  0.00    -0.393 N 
HETATM   18  C16 UNL     1      22.469   4.373  50.141  1.00  0.00     0.098 C 
HETATM   19  C17 UNL     1      22.537   4.098  48.838  1.00  0.00     0.024 C 
HETATM   20  C18 UNL     1      23.379   3.127  48.582  1.00  0.00     0.093 C 
HETATM   21  N3  UNL     1      24.193   2.951  49.585  1.00  0.00    -0.282 NA
HETATM   22  C19 UNL     1      24.805   4.228  49.962  1.00  0.00     0.187 C 
HETATM   23  H9  UNL     1      22.602   1.639  54.064  1.00  0.00     0.164 HD
HETATM   24  H20 UNL     1      22.389   2.228  51.116  1.00  0.00     0.159 HD
ENDROOT
BRANCH   5  25
HETATM   25  O1  UNL     1      26.899  -0.329  51.950  1.00  0.00    -0.388 OA
HETATM   26  H6  UNL     1      27.818  -0.368  51.640  1.00  0.00     0.210 HD
ENDBRANCH   5  25
TORSDOF 1
ENDMDL
MODEL 6
REMARK VINA RESULT:      -7.6      1.661      2.179
REMARK  1 active torsions:
REMARK  status: ('A' for Active; 'I' for Inactive)
REMARK    1  A    between atoms: C5_5  and  O1_6 
ROOT
HETATM    1  C1  UNL     1      18.669   4.297  49.715  1.00  0.00     0.020 C 
HETATM    2  C2  UNL     1      19.700   3.860  50.389  1.00  0.00    -0.048 C 
HETATM    3  C3  UNL     1      20.937   4.518  49.982  1.00  0.00     0.007 C 
HETATM    4  C4  UNL     1      22.231   4.548  50.238  1.00  0.00     0.009 C 
HETATM    5  C5  UNL     1      23.631   5.002  50.077  1.00  0.00     0.165 C 
HETATM    6  C6  UNL     1      24.511   4.363  51.133  1.00  0.00     0.025 C 
HETATM    7  C7  UNL     1      24.684   3.285  51.842  1.00  0.00     0.086 C 
HETATM    8  N1  UNL     1      25.481   2.648  52.829  1.00  0.00    -0.375 N 
HETATM    9  C8  UNL     1      26.777   2.319  52.267  1.00  0.00     0.099 C 
HETATM   10  C9  UNL     1      26.490   1.289  51.477  1.00  0.00    -0.009 C 
HETATM   11  C10 UNL     1      26.042   0.223  52.073  1.00  0.00     0.013 C 
HETATM   12  C11 UNL     1      25.396   0.211  53.377  1.00  0.00    -0.003 C 
HETATM   13  C12 UNL     1      24.291  -0.327  53.869  1.00  0.00    -0.025 C 
HETATM   14  C13 UNL     1      23.238  -1.154  53.292  1.00  0.00     0.051 C 
HETATM   15  C14 UNL     1      21.897  -0.553  53.409  1.00  0.00     0.080 C 
HETATM   16  C15 UNL     1      21.607  -0.368  54.908  1.00  0.00     0.032 C 
HETATM   17  N2  UNL     1      21.701   0.712  52.740  1.00  0.00    -0.393 N 
HETATM   18  C16 UNL     1      20.298   1.061  52.933  1.00  0.00     0.098 C 
HETATM   19  C17 UNL     1      19.722   0.366  51.951  1.00  0.00     0.024 C 
HETATM   20  C18 UNL     1      20.167   0.720  50.770  1.00  0.00     0.093 C 
HETATM   21  N3  UNL     1      20.747   1.886  50.830  1.00  0.00    -0.282 NA
HETATM   22  C19 UNL     1      19.860   2.854  51.482  1.00  0.00     0.187 C 
HETATM   23  H9  UNL     1      24.745   2.690  53.602  1.00  0.00     0.164 HD
HETATM   24  H20 UNL     1      22.567   1.070  52.294  1.00  0.00     0.159 HD
ENDROOT
BRANCH   5  25
HETATM   25  O1  UNL     1      24.202   4.686  48.856  1.00  0.00    -0.388 OA
HETATM   26  H6  UNL     1      24.612   3.808  48.875  1.00  0.00     0.210 HD
ENDBRANCH   5  25
TORSDOF 1
ENDMDL
MODEL 7
REMARK VINA RESULT:      -7.5      2.411      5.349
REMARK  1 active torsions:
REMARK  status: ('A' for Active; 'I' for Inactive)
REMARK    1  A    between atoms: C5_5  and  O1_6 
ROOT
HETATM    1  C1  UNL     1      26.030   4.841  49.558  1.00  0.00     0.020 C 
HETATM    2  C2  UNL     1      25.010   4.045  49.738  1.00  0.00    -0.048 C 
HETATM    3  C3  UNL     1      23.899   4.369  48.849  1.00  0.00     0.007 C 
HETATM    4  C4  UNL     1      22.676   3.991  48.535  1.00  0.00     0.009 C 
HETATM    5  C5  UNL     1      21.391   4.043  47.801  1.00  0.00     0.165 C 
HETATM    6  C6  UNL     1      20.517   2.868  48.195  1.00  0.00     0.025 C 
HETATM    7  C7  UNL     1      20.202   2.081  49.183  1.00  0.00     0.086 C 
HETATM    8  N1  UNL     1      19.402   0.983  49.596  1.00  0.00    -0.375 N 
HETATM    9  C8  UNL     1      18.013   1.395  49.664  1.00  0.00     0.099 C 
HETATM   10  C9  UNL     1      17.993   2.144  50.763  1.00  0.00    -0.009 C 
HETATM   11  C10 UNL     1      18.273   1.529  51.875  1.00  0.00     0.013 C 
HETATM   12  C11 UNL     1      19.039   0.296  51.971  1.00  0.00    -0.003 C 
HETATM   13  C12 UNL     1      20.055  -0.118  52.711  1.00  0.00    -0.025 C 
HETATM   14  C13 UNL     1      20.845   0.506  53.765  1.00  0.00     0.051 C 
HETATM   15  C14 UNL     1      22.287   0.557  53.459  1.00  0.00     0.080 C 
HETATM   16  C15 UNL     1      22.768  -0.892  53.280  1.00  0.00     0.032 C 
HETATM   17  N2  UNL     1      22.666   1.319  52.292  1.00  0.00    -0.393 N 
HETATM   18  C16 UNL     1      24.124   1.286  52.242  1.00  0.00     0.098 C 
HETATM   19  C17 UNL     1      24.433   2.274  53.082  1.00  0.00     0.024 C 
HETATM   20  C18 UNL     1      23.947   3.426  52.690  1.00  0.00     0.093 C 
HETATM   21  N3  UNL     1      23.631   3.382  51.426  1.00  0.00    -0.282 NA
HETATM   22  C19 UNL     1      24.764   2.881  50.643  1.00  0.00     0.187 C 
HETATM   23  H9  UNL     1      20.209   0.289  49.680  1.00  0.00     0.164 HD
HETATM   24  H20 UNL     1      21.850   1.700  51.777  1.00  0.00     0.159 HD
ENDROOT
BRANCH   5  25
HETATM   25  O1  UNL     1      20.638   5.181  48.037  1.00  0.00    -0.388 OA
HETATM   26  H6  UNL     1      20.936   5.921  47.486  1.00  0.00     0.210 HD
ENDBRANCH   5  25
TORSDOF 1
ENDMDL
MODEL 8
REMARK VINA RESULT:      -7.4      8.081     11.471
REMARK  1 active torsions:
REMARK  status: ('A' for Active; 'I' for Inactive)
REMARK    1  A    between atoms: C5_5  and  O1_6 
ROOT
HETATM    1  C1  UNL     1      26.585   5.755  48.963  1.00  0.00     0.020 C 
HETATM    2  C2  UNL     1      27.606   6.365  48.423  1.00  0.00    -0.048 C 
HETATM    3  C3  UNL     1      28.760   5.482  48.284  1.00  0.00     0.007 C 
HETATM    4  C4  UNL     1      30.006   5.461  47.851  1.00  0.00     0.009 C 
HETATM    5  C5  UNL     1      31.329   4.859  47.568  1.00  0.00     0.165 C 
HETATM    6  C6  UNL     1      32.198   5.844  46.812  1.00  0.00     0.025 C 
HETATM    7  C7  UNL     1      32.470   7.109  46.670  1.00  0.00     0.086 C 
HETATM    8  N1  UNL     1      33.264   8.066  45.984  1.00  0.00    -0.375 N 
HETATM    9  C8  UNL     1      34.640   7.963  46.432  1.00  0.00     0.099 C 
HETATM   10  C9  UNL     1      34.585   8.508  47.643  1.00  0.00    -0.009 C 
HETATM   11  C10 UNL     1      34.254   9.765  47.687  1.00  0.00     0.013 C 
HETATM   12  C11 UNL     1      33.504  10.462  46.653  1.00  0.00    -0.003 C 
HETATM   13  C12 UNL     1      32.455  11.269  46.642  1.00  0.00    -0.025 C 
HETATM   14  C13 UNL     1      31.596  11.808  47.689  1.00  0.00     0.051 C 
HETATM   15  C14 UNL     1      30.173  11.464  47.510  1.00  0.00     0.080 C 
HETATM   16  C15 UNL     1      29.726  12.050  46.161  1.00  0.00     0.032 C 
HETATM   17  N2  UNL     1      29.847  10.057  47.534  1.00  0.00    -0.393 N 
HETATM   18  C16 UNL     1      28.396   9.975  47.416  1.00  0.00     0.098 C 
HETATM   19  C17 UNL     1      28.023  10.161  48.683  1.00  0.00     0.024 C 
HETATM   20  C18 UNL     1      28.512   9.243  49.481  1.00  0.00     0.093 C 
HETATM   21  N3  UNL     1      28.899   8.203  48.798  1.00  0.00    -0.282 NA
HETATM   22  C19 UNL     1      27.821   7.754  47.913  1.00  0.00     0.187 C 
HETATM   23  H9  UNL     1      32.464   8.469  45.401  1.00  0.00     0.164 HD
HETATM   24  H20 UNL     1      30.685   9.451  47.626  1.00  0.00     0.159 HD
ENDROOT
BRANCH   5  25
HETATM   25  O1  UNL     1      32.048   4.495  48.695  1.00  0.00    -0.388 OA
HETATM   26  H6  UNL     1      31.535   4.644  49.504  1.00  0.00     0.210 HD
ENDBRANCH   5  25
TORSDOF 1
ENDMDL
MODEL 9
REMARK VINA RESULT:      -7.3      6.421      9.673
REMARK  1 active torsions:
REMARK  status: ('A' for Active; 'I' for Inactive)
REMARK    1  A    between atoms: C5_5  and  O1_6 
ROOT
HETATM    1  C1  UNL     1      25.023   4.123  49.534  1.00  0.00     0.020 C 
HETATM    2  C2  UNL     1      25.646   5.142  49.005  1.00  0.00    -0.048 C 
HETATM    3  C3  UNL     1      27.081   4.905  48.888  1.00  0.00     0.007 C 
HETATM    4  C4  UNL     1      28.197   5.472  48.474  1.00  0.00     0.009 C 
HETATM    5  C5  UNL     1      29.652   5.562  48.214  1.00  0.00     0.165 C 
HETATM    6  C6  UNL     1      29.969   6.841  47.464  1.00  0.00     0.025 C 
HETATM    7  C7  UNL     1      29.618   8.086  47.319  1.00  0.00     0.086 C 
HETATM    8  N1  UNL     1      29.879   9.305  46.640  1.00  0.00    -0.375 N 
HETATM    9  C8  UNL     1      31.136   9.860  47.108  1.00  0.00     0.099 C 
HETATM   10  C9  UNL     1      30.813  10.312  48.315  1.00  0.00    -0.009 C 
HETATM   11  C10 UNL     1      29.929  11.267  48.347  1.00  0.00     0.013 C 
HETATM   12  C11 UNL     1      28.956  11.532  47.298  1.00  0.00    -0.003 C 
HETATM   13  C12 UNL     1      27.651  11.752  47.267  1.00  0.00    -0.025 C 
HETATM   14  C13 UNL     1      26.624  11.823  48.299  1.00  0.00     0.051 C 
HETATM   15  C14 UNL     1      25.532  10.852  48.101  1.00  0.00     0.080 C 
HETATM   16  C15 UNL     1      24.883  11.162  46.742  1.00  0.00     0.032 C 
HETATM   17  N2  UNL     1      25.904   9.456  48.129  1.00  0.00    -0.393 N 
HETATM   18  C16 UNL     1      24.663   8.702  47.990  1.00  0.00     0.098 C 
HETATM   19  C17 UNL     1      24.227   8.689  49.250  1.00  0.00     0.024 C 
HETATM   20  C18 UNL     1      25.077   8.107  50.060  1.00  0.00     0.093 C 
HETATM   21  N3  UNL     1      25.919   7.371  49.389  1.00  0.00    -0.282 NA
HETATM   22  C19 UNL     1      25.191   6.470  48.491  1.00  0.00     0.187 C 
HETATM   23  H9  UNL     1      28.994   9.286  46.043  1.00  0.00     0.164 HD
HETATM   24  H20 UNL     1      26.927   9.314  48.236  1.00  0.00     0.159 HD
ENDROOT
BRANCH   5  25
HETATM   25  O1  UNL     1      30.441   5.576  49.352  1.00  0.00    -0.388 OA
HETATM   26  H6  UNL     1      31.350   5.304  49.155  1.00  0.00     0.210 HD
ENDBRANCH   5  25
TORSDOF 1
ENDMDL
