MODEL 1
REMARK VINA RESULT:      -9.0      0.000      0.000
REMARK  7 active torsions:
REMARK  status: ('A' for Active; 'I' for Inactive)
REMARK    1  A    between atoms: O1_2  and  C2_3 
REMARK    2  A    between atoms: C6_7  and  N1_8 
REMARK    3  A    between atoms: N1_8  and  C7_9 
REMARK    4  A    between atoms: N4_22  and  C16_23 
REMARK    5  A    between atoms: C16_23  and  C17_24 
REMARK    6  A    between atoms: C17_24  and  C18_25 
REMARK    7  A    between atoms: C18_25  and  N5_26 
ROOT
HETATM    1  C7  UNL     1      23.826   3.977  50.406  1.00  0.00     0.138 C 
HETATM    2  N2  UNL     1      23.295   5.110  50.755  1.00  0.00    -0.224 NA
HETATM    3  C8  UNL     1      22.159   5.248  51.579  1.00  0.00     0.230 C 
HETATM    4  N3  UNL     1      21.435   4.256  52.100  1.00  0.00    -0.266 NA
HETATM    5  C9  UNL     1      21.874   2.959  51.741  1.00  0.00     0.205 A 
HETATM    6  C10 UNL     1      23.272   2.899  51.280  1.00  0.00     0.021 A 
HETATM    7  C11 UNL     1      23.823   1.783  51.779  1.00  0.00     0.046 A 
HETATM    8  C12 UNL     1      22.813   1.082  52.603  1.00  0.00     0.069 A 
HETATM    9  C13 UNL     1      21.675   1.797  52.573  1.00  0.00     0.103 A 
HETATM   10  O2  UNL     1      20.508   1.458  53.242  1.00  0.00    -0.341 OA
HETATM   11  C14 UNL     1      20.592   0.556  54.325  1.00  0.00     0.278 C 
HETATM   12  C15 UNL     1      21.625  -0.447  54.024  1.00  0.00     0.248 C 
HETATM   13  O3  UNL     1      21.429  -1.647  54.369  1.00  0.00    -0.271 OA
HETATM   14  N4  UNL     1      22.838  -0.122  53.361  1.00  0.00    -0.314 N 
ENDROOT
BRANCH   1  15
HETATM   15  N1  UNL     1      24.917   3.675  49.591  1.00  0.00    -0.340 N 
HETATM   16  H7  UNL     1      25.117   2.686  49.377  1.00  0.00     0.167 HD
BRANCH  15  17
HETATM   17  C6  UNL     1      25.686   4.757  49.115  1.00  0.00     0.036 A 
HETATM   18  C5  UNL     1      25.368   6.029  48.736  1.00  0.00     0.029 A 
HETATM   19  C4  UNL     1      26.261   6.968  48.279  1.00  0.00     0.005 A 
HETATM   20  C3  UNL     1      27.599   6.659  48.173  1.00  0.00     0.037 A 
HETATM   21  C2  UNL     1      27.976   5.382  48.546  1.00  0.00     0.070 A 
HETATM   22  C23 UNL     1      27.032   4.485  48.996  1.00  0.00     0.066 A 
BRANCH  21  23
HETATM   23  O1  UNL     1      29.302   5.056  48.448  1.00  0.00    -0.356 OA
HETATM   24  C1  UNL     1      30.211   6.030  47.971  1.00  0.00     0.210 C 
ENDBRANCH  21  23
ENDBRANCH  15  17
ENDBRANCH   1  15
BRANCH  14  25
HETATM   25  C16 UNL     1      24.020  -0.930  53.435  1.00  0.00     0.134 C 
BRANCH  25  26
HETATM   26  C17 UNL     1      25.078  -0.447  54.368  1.00  0.00     0.050 C 
BRANCH  26  27
HETATM   27  C18 UNL     1      26.465  -0.726  53.773  1.00  0.00     0.274 C 
BRANCH  27  28
HETATM   28  N5  UNL     1      27.370   0.370  54.054  1.00  0.00     0.092 N 
HETATM   29  C19 UNL     1      28.769   0.009  53.820  1.00  0.00     0.298 C 
HETATM   30  C20 UNL     1      29.597   1.068  54.536  1.00  0.00     0.198 C 
HETATM   31  O4  UNL     1      28.916   2.288  54.544  1.00  0.00    -0.388 OA
HETATM   32  C21 UNL     1      28.213   2.505  53.378  1.00  0.00     0.198 C 
HETATM   33  C22 UNL     1      27.098   1.507  53.170  1.00  0.00     0.298 C 
ENDBRANCH  27  28
ENDBRANCH  26  27
ENDBRANCH  25  26
ENDBRANCH  14  25
TORSDOF 7
ENDMDL
MODEL 2
REMARK VINA RESULT:      -8.9      2.702      6.250
REMARK  7 active torsions:
REMARK  status: ('A' for Active; 'I' for Inactive)
REMARK    1  A    between atoms: O1_2  and  C2_3 
REMARK    2  A    between atoms: C6_7  and  N1_8 
REMARK    3  A    between atoms: N1_8  and  C7_9 
REMARK    4  A    between atoms: N4_22  and  C16_23 
REMARK    5  A    between atoms: C16_23  and  C17_24 
REMARK    6  A    between atoms: C17_24  and  C18_25 
REMARK    7  A    between atoms: C18_25  and  N5_26 
ROOT
HETATM    1  C7  UNL     1      23.234   0.042  53.701  1.00  0.00     0.138 C 
HETATM    2  N2  UNL     1      23.069  -1.042  54.397  1.00  0.00    -0.224 NA
HETATM    3  C8  UNL     1      21.841  -1.719  54.554  1.00  0.00     0.230 C 
HETATM    4  N3  UNL     1      20.663  -1.347  54.053  1.00  0.00    -0.266 NA
HETATM    5  C9  UNL     1      20.695  -0.135  53.320  1.00  0.00     0.205 A 
HETATM    6  C10 UNL     1      22.034   0.245  52.836  1.00  0.00     0.021 A 
HETATM    7  C11 UNL     1      21.897   0.749  51.601  1.00  0.00     0.046 A 
HETATM    8  C12 UNL     1      20.468   0.697  51.221  1.00  0.00     0.069 A 
HETATM    9  C13 UNL     1      19.779   0.165  52.245  1.00  0.00     0.103 A 
HETATM   10  O2  UNL     1      18.410  -0.054  52.250  1.00  0.00    -0.341 OA
HETATM   11  C14 UNL     1      17.733  -0.110  51.013  1.00  0.00     0.278 C 
HETATM   12  C15 UNL     1      18.354   0.855  50.092  1.00  0.00     0.248 C 
HETATM   13  O3  UNL     1      17.614   1.510  49.306  1.00  0.00    -0.271 OA
HETATM   14  N4  UNL     1      19.756   1.082  50.051  1.00  0.00    -0.314 N 
ENDROOT
BRANCH   1  15
HETATM   15  N1  UNL     1      24.360   0.833  53.470  1.00  0.00    -0.340 N 
HETATM   16  H7  UNL     1      24.237   1.851  53.365  1.00  0.00     0.167 HD
BRANCH  15  17
HETATM   17  C6  UNL     1      25.605   0.176  53.387  1.00  0.00     0.036 A 
HETATM   18  C5  UNL     1      26.031  -0.927  52.707  1.00  0.00     0.029 A 
HETATM   19  C4  UNL     1      27.304  -1.445  52.749  1.00  0.00     0.005 A 
HETATM   20  C3  UNL     1      28.270  -0.844  53.525  1.00  0.00     0.037 A 
HETATM   21  C2  UNL     1      27.891   0.279  54.237  1.00  0.00     0.070 A 
HETATM   22  C23 UNL     1      26.599   0.749  54.153  1.00  0.00     0.066 A 
BRANCH  21  23
HETATM   23  O1  UNL     1      28.839   0.890  55.014  1.00  0.00    -0.356 OA
HETATM   24  C1  UNL     1      29.478   2.053  54.523  1.00  0.00     0.210 C 
ENDBRANCH  21  23
ENDBRANCH  15  17
ENDBRANCH   1  15
BRANCH  14  25
HETATM   25  C16 UNL     1      20.431   1.654  48.924  1.00  0.00     0.134 C 
BRANCH  25  26
HETATM   26  C17 UNL     1      20.724   3.113  49.016  1.00  0.00     0.050 C 
BRANCH  26  27
HETATM   27  C18 UNL     1      22.183   3.377  48.617  1.00  0.00     0.274 C 
BRANCH  27  28
HETATM   28  N5  UNL     1      23.045   3.331  49.781  1.00  0.00     0.092 N 
HETATM   29  C19 UNL     1      24.436   3.654  49.454  1.00  0.00     0.298 C 
HETATM   30  C20 UNL     1      25.264   3.166  50.635  1.00  0.00     0.198 C 
HETATM   31  O4  UNL     1      24.517   3.249  51.814  1.00  0.00    -0.388 OA
HETATM   32  C21 UNL     1      23.699   4.357  51.841  1.00  0.00     0.198 C 
HETATM   33  C22 UNL     1      22.629   4.323  50.775  1.00  0.00     0.298 C 
ENDBRANCH  27  28
ENDBRANCH  26  27
ENDBRANCH  25  26
ENDBRANCH  14  25
TORSDOF 7
ENDMDL
MODEL 3
REMARK VINA RESULT:      -8.7      2.654      7.538
REMARK  7 active torsions:
REMARK  status: ('A' for Active; 'I' for Inactive)
REMARK    1  A    between atoms: O1_2  and  C2_3 
REMARK    2  A    between atoms: C6_7  and  N1_8 
REMARK    3  A    between atoms: N1_8  and  C7_9 
REMARK    4  A    between atoms: N4_22  and  C16_23 
REMARK    5  A    between atoms: C16_23  and  C17_24 
REMARK    6  A    between atoms: C17_24  and  C18_25 
REMARK    7  A    between atoms: C18_25  and  N5_26 
ROOT
HETATM    1  C7  UNL     1      21.481  -0.016  52.557  1.00  0.00     0.138 C 
HETATM    2  N2  UNL     1      20.923  -0.465  53.641  1.00  0.00    -0.224 NA
HETATM    3  C8  UNL     1      21.624  -0.977  54.754  1.00  0.00     0.230 C 
HETATM    4  N3  UNL     1      22.946  -1.113  54.863  1.00  0.00    -0.266 NA
HETATM    5  C9  UNL     1      23.671  -0.715  53.713  1.00  0.00     0.205 A 
HETATM    6  C10 UNL     1      22.936   0.194  52.818  1.00  0.00     0.021 A 
HETATM    7  C11 UNL     1      23.800   1.116  52.367  1.00  0.00     0.046 A 
HETATM    8  C12 UNL     1      25.128   0.858  52.968  1.00  0.00     0.069 A 
HETATM    9  C13 UNL     1      25.026  -0.220  53.764  1.00  0.00     0.103 A 
HETATM   10  O2  UNL     1      26.067  -0.756  54.509  1.00  0.00    -0.341 OA
HETATM   11  C14 UNL     1      27.185   0.060  54.786  1.00  0.00     0.278 C 
HETATM   12  C15 UNL     1      27.437   0.925  53.623  1.00  0.00     0.248 C 
HETATM   13  O3  UNL     1      28.632   1.163  53.288  1.00  0.00    -0.271 OA
HETATM   14  N4  UNL     1      26.390   1.504  52.857  1.00  0.00    -0.314 N 
ENDROOT
BRANCH   1  15
HETATM   15  N1  UNL     1      20.937   0.492  51.377  1.00  0.00    -0.340 N 
HETATM   16  H7  UNL     1      21.565   0.668  50.578  1.00  0.00     0.167 HD
BRANCH  15  17
HETATM   17  C6  UNL     1      19.549   0.741  51.361  1.00  0.00     0.036 A 
HETATM   18  C5  UNL     1      18.463  -0.054  51.137  1.00  0.00     0.029 A 
HETATM   19  C4  UNL     1      17.155   0.365  51.150  1.00  0.00     0.005 A 
HETATM   20  C3  UNL     1      16.853   1.685  51.403  1.00  0.00     0.037 A 
HETATM   21  C2  UNL     1      17.917   2.536  51.637  1.00  0.00     0.070 A 
HETATM   22  C23 UNL     1      19.208   2.054  51.610  1.00  0.00     0.066 A 
BRANCH  21  23
HETATM   23  O1  UNL     1      17.636   3.852  51.891  1.00  0.00    -0.356 OA
HETATM   24  C1  UNL     1      16.284   4.246  52.032  1.00  0.00     0.210 C 
ENDBRANCH  21  23
ENDBRANCH  15  17
ENDBRANCH   1  15
BRANCH  14  25
HETATM   25  C16 UNL     1      26.565   2.659  52.026  1.00  0.00     0.134 C 
BRANCH  25  26
HETATM   26  C17 UNL     1      26.558   2.406  50.557  1.00  0.00     0.050 C 
BRANCH  26  27
HETATM   27  C18 UNL     1      25.945   3.608  49.825  1.00  0.00     0.274 C 
BRANCH  27  28
HETATM   28  N5  UNL     1      24.567   3.802  50.229  1.00  0.00     0.092 N 
HETATM   29  C19 UNL     1      24.187   5.216  50.247  1.00  0.00     0.298 C 
HETATM   30  C20 UNL     1      22.907   5.292  51.067  1.00  0.00     0.198 C 
HETATM   31  O4  UNL     1      22.175   4.109  50.928  1.00  0.00    -0.388 OA
HETATM   32  C21 UNL     1      22.254   3.589  49.654  1.00  0.00     0.198 C 
HETATM   33  C22 UNL     1      23.653   3.155  49.283  1.00  0.00     0.298 C 
ENDBRANCH  27  28
ENDBRANCH  26  27
ENDBRANCH  25  26
ENDBRANCH  14  25
TORSDOF 7
ENDMDL
MODEL 4
REMARK VINA RESULT:      -8.6      2.982      5.720
REMARK  7 active torsions:
REMARK  status: ('A' for Active; 'I' for Inactive)
REMARK    1  A    between atoms: O1_2  and  C2_3 
REMARK    2  A    between atoms: C6_7  and  N1_8 
REMARK    3  A    between atoms: N1_8  and  C7_9 
REMARK    4  A    between atoms: N4_22  and  C16_23 
REMARK    5  A    between atoms: C16_23  and  C17_24 
REMARK    6  A    between atoms: C17_24  and  C18_25 
REMARK    7  A    between atoms: C18_25  and  N5_26 
ROOT
HETATM    1  C7  UNL     1      24.152   3.395  49.926  1.00  0.00     0.138 C 
HETATM    2  N2  UNL     1      25.266   3.639  49.304  1.00  0.00    -0.224 NA
HETATM    3  C8  UNL     1      26.550   3.325  49.799  1.00  0.00     0.230 C 
HETATM    4  N3  UNL     1      26.829   2.769  50.978  1.00  0.00    -0.266 NA
HETATM    5  C9  UNL     1      25.695   2.510  51.786  1.00  0.00     0.205 A 
HETATM    6  C10 UNL     1      24.424   2.442  51.043  1.00  0.00     0.021 A 
HETATM    7  C11 UNL     1      23.693   1.449  51.568  1.00  0.00     0.046 A 
HETATM    8  C12 UNL     1      24.466   0.814  52.659  1.00  0.00     0.069 A 
HETATM    9  C13 UNL     1      25.645   1.449  52.765  1.00  0.00     0.103 A 
HETATM   10  O2  UNL     1      26.642   1.124  53.672  1.00  0.00    -0.341 OA
HETATM   11  C14 UNL     1      26.629  -0.163  54.253  1.00  0.00     0.278 C 
HETATM   12  C15 UNL     1      25.231  -0.568  54.468  1.00  0.00     0.248 C 
HETATM   13  O3  UNL     1      24.937  -1.210  55.516  1.00  0.00    -0.271 OA
HETATM   14  N4  UNL     1      24.196  -0.268  53.543  1.00  0.00    -0.314 N 
ENDROOT
BRANCH   1  15
HETATM   15  N1  UNL     1      22.825   3.661  49.589  1.00  0.00    -0.340 N 
HETATM   16  H7  UNL     1      22.076   3.260  50.173  1.00  0.00     0.167 HD
BRANCH  15  17
HETATM   17  C6  UNL     1      22.596   4.463  48.452  1.00  0.00     0.036 A 
HETATM   18  C5  UNL     1      22.584   5.813  48.254  1.00  0.00     0.029 A 
HETATM   19  C4  UNL     1      22.327   6.438  47.057  1.00  0.00     0.005 A 
HETATM   20  C3  UNL     1      22.052   5.694  45.932  1.00  0.00     0.037 A 
HETATM   21  C2  UNL     1      22.051   4.319  46.077  1.00  0.00     0.070 A 
HETATM   22  C23 UNL     1      22.316   3.752  47.304  1.00  0.00     0.066 A 
BRANCH  21  23
HETATM   23  O1  UNL     1      21.780   3.562  44.969  1.00  0.00    -0.356 OA
HETATM   24  C1  UNL     1      20.711   3.945  44.124  1.00  0.00     0.210 C 
ENDBRANCH  21  23
ENDBRANCH  15  17
ENDBRANCH   1  15
BRANCH  14  25
HETATM   25  C16 UNL     1      22.958  -0.987  53.483  1.00  0.00     0.134 C 
BRANCH  25  26
HETATM   26  C17 UNL     1      21.836  -0.415  54.280  1.00  0.00     0.050 C 
BRANCH  26  27
HETATM   27  C18 UNL     1      20.519  -0.560  53.504  1.00  0.00     0.274 C 
BRANCH  27  28
HETATM   28  N5  UNL     1      20.449   0.413  52.433  1.00  0.00     0.092 N 
HETATM   29  C19 UNL     1      19.258   0.238  51.600  1.00  0.00     0.298 C 
HETATM   30  C20 UNL     1      19.527   1.016  50.320  1.00  0.00     0.198 C 
HETATM   31  O4  UNL     1      20.351   2.113  50.587  1.00  0.00    -0.388 OA
HETATM   32  C21 UNL     1      20.075   2.692  51.807  1.00  0.00     0.198 C 
HETATM   33  C22 UNL     1      20.363   1.773  52.971  1.00  0.00     0.298 C 
ENDBRANCH  27  28
ENDBRANCH  26  27
ENDBRANCH  25  26
ENDBRANCH  14  25
TORSDOF 7
ENDMDL
MODEL 5
REMARK VINA RESULT:      -8.6      3.228      8.113
REMARK  7 active torsions:
REMARK  status: ('A' for Active; 'I' for Inactive)
REMARK    1  A    between atoms: O1_2  and  C2_3 
REMARK    2  A    between atoms: C6_7  and  N1_8 
REMARK    3  A    between atoms: N1_8  and  C7_9 
REMARK    4  A    between atoms: N4_22  and  C16_23 
REMARK    5  A    between atoms: C16_23  and  C17_24 
REMARK    6  A    between atoms: C17_24  and  C18_25 
REMARK    7  A    between atoms: C18_25  and  N5_26 
ROOT
HETATM    1  C7  UNL     1      24.438   5.088  49.611  1.00  0.00     0.138 C 
HETATM    2  N2  UNL     1      23.345   5.778  49.746  1.00  0.00    -0.224 NA
HETATM    3  C8  UNL     1      23.295   7.164  50.006  1.00  0.00     0.230 C 
HETATM    4  N3  UNL     1      24.339   7.973  50.186  1.00  0.00    -0.266 NA
HETATM    5  C9  UNL     1      25.598   7.327  50.126  1.00  0.00     0.205 A 
HETATM    6  C10 UNL     1      25.581   6.031  49.426  1.00  0.00     0.021 A 
HETATM    7  C11 UNL     1      26.702   5.943  48.694  1.00  0.00     0.046 A 
HETATM    8  C12 UNL     1      27.483   7.188  48.871  1.00  0.00     0.069 A 
HETATM    9  C13 UNL     1      26.810   7.992  49.711  1.00  0.00     0.103 A 
HETATM   10  O2  UNL     1      27.228   9.254  50.105  1.00  0.00    -0.341 OA
HETATM   11  C14 UNL     1      28.184   9.924  49.311  1.00  0.00     0.278 C 
HETATM   12  C15 UNL     1      29.130   8.933  48.776  1.00  0.00     0.248 C 
HETATM   13  O3  UNL     1      30.353   9.239  48.695  1.00  0.00    -0.271 OA
HETATM   14  N4  UNL     1      28.724   7.642  48.345  1.00  0.00    -0.314 N 
ENDROOT
BRANCH   1  15
HETATM   15  N1  UNL     1      24.653   3.729  49.380  1.00  0.00    -0.340 N 
HETATM   16  H7  UNL     1      24.622   3.381  48.410  1.00  0.00     0.167 HD
BRANCH  15  17
HETATM   17  C6  UNL     1      24.895   2.913  50.504  1.00  0.00     0.036 A 
HETATM   18  C5  UNL     1      24.081   2.162  51.301  1.00  0.00     0.029 A 
HETATM   19  C4  UNL     1      24.491   1.421  52.383  1.00  0.00     0.005 A 
HETATM   20  C3  UNL     1      25.820   1.396  52.741  1.00  0.00     0.037 A 
HETATM   21  C2  UNL     1      26.691   2.141  51.967  1.00  0.00     0.070 A 
HETATM   22  C23 UNL     1      26.217   2.864  50.894  1.00  0.00     0.066 A 
BRANCH  21  23
HETATM   23  O1  UNL     1      28.017   2.128  52.308  1.00  0.00    -0.356 OA
HETATM   24  C1  UNL     1      28.380   2.407  53.647  1.00  0.00     0.210 C 
ENDBRANCH  21  23
ENDBRANCH  15  17
ENDBRANCH   1  15
BRANCH  14  25
HETATM   25  C16 UNL     1      29.491   6.833  47.443  1.00  0.00     0.134 C 
BRANCH  25  26
HETATM   26  C17 UNL     1      30.244   5.706  48.063  1.00  0.00     0.050 C 
BRANCH  26  27
HETATM   27  C18 UNL     1      31.749   5.890  47.821  1.00  0.00     0.274 C 
BRANCH  27  28
HETATM   28  N5  UNL     1      32.429   4.611  47.845  1.00  0.00     0.092 N 
HETATM   29  C19 UNL     1      32.246   3.860  46.601  1.00  0.00     0.298 C 
HETATM   30  C20 UNL     1      32.635   2.424  46.921  1.00  0.00     0.198 C 
HETATM   31  O4  UNL     1      33.620   2.401  47.913  1.00  0.00    -0.388 OA
HETATM   32  C21 UNL     1      34.515   3.441  47.788  1.00  0.00     0.198 C 
HETATM   33  C22 UNL     1      33.875   4.794  47.991  1.00  0.00     0.298 C 
ENDBRANCH  27  28
ENDBRANCH  26  27
ENDBRANCH  25  26
ENDBRANCH  14  25
TORSDOF 7
ENDMDL
MODEL 6
REMARK VINA RESULT:      -8.4      2.499      6.555
REMARK  7 active torsions:
REMARK  status: ('A' for Active; 'I' for Inactive)
REMARK    1  A    between atoms: O1_2  and  C2_3 
REMARK    2  A    between atoms: C6_7  and  N1_8 
REMARK    3  A    between atoms: N1_8  and  C7_9 
REMARK    4  A    between atoms: N4_22  and  C16_23 
REMARK    5  A    between atoms: C16_23  and  C17_24 
REMARK    6  A    between atoms: C17_24  and  C18_25 
REMARK    7  A    between atoms: C18_25  and  N5_26 
ROOT
HETATM    1  C7  UNL     1      21.791  -0.341  52.729  1.00  0.00     0.138 C 
HETATM    2  N2  UNL     1      21.346  -0.792  53.862  1.00  0.00    -0.224 NA
HETATM    3  C8  UNL     1      22.157  -1.162  54.956  1.00  0.00     0.230 C 
HETATM    4  N3  UNL     1      23.490  -1.141  54.996  1.00  0.00    -0.266 NA
HETATM    5  C9  UNL     1      24.105  -0.725  53.790  1.00  0.00     0.205 A 
HETATM    6  C10 UNL     1      23.224   0.047  52.896  1.00  0.00     0.021 A 
HETATM    7  C11 UNL     1      23.951   1.036  52.355  1.00  0.00     0.046 A 
HETATM    8  C12 UNL     1      25.329   0.962  52.891  1.00  0.00     0.069 A 
HETATM    9  C13 UNL     1      25.394  -0.077  53.741  1.00  0.00     0.103 A 
HETATM   10  O2  UNL     1      26.526  -0.452  54.449  1.00  0.00    -0.341 OA
HETATM   11  C14 UNL     1      27.555   0.499  54.624  1.00  0.00     0.278 C 
HETATM   12  C15 UNL     1      27.645   1.324  53.409  1.00  0.00     0.248 C 
HETATM   13  O3  UNL     1      28.786   1.679  52.997  1.00  0.00    -0.271 OA
HETATM   14  N4  UNL     1      26.500   1.740  52.679  1.00  0.00    -0.314 N 
ENDROOT
BRANCH   1  15
HETATM   15  N1  UNL     1      21.133   0.040  51.559  1.00  0.00    -0.340 N 
HETATM   16  H7  UNL     1      20.983  -0.667  50.823  1.00  0.00     0.167 HD
BRANCH  15  17
HETATM   17  C6  UNL     1      20.719   1.384  51.459  1.00  0.00     0.036 A 
HETATM   18  C5  UNL     1      20.386   2.327  52.388  1.00  0.00     0.029 A 
HETATM   19  C4  UNL     1      19.988   3.612  52.109  1.00  0.00     0.005 A 
HETATM   20  C3  UNL     1      19.897   4.041  50.803  1.00  0.00     0.037 A 
HETATM   21  C2  UNL     1      20.223   3.124  49.821  1.00  0.00     0.070 A 
HETATM   22  C23 UNL     1      20.616   1.850  50.165  1.00  0.00     0.066 A 
BRANCH  21  23
HETATM   23  O1  UNL     1      20.140   3.533  48.516  1.00  0.00    -0.356 OA
HETATM   24  C1  UNL     1      20.659   4.802  48.164  1.00  0.00     0.210 C 
ENDBRANCH  21  23
ENDBRANCH  15  17
ENDBRANCH   1  15
BRANCH  14  25
HETATM   25  C16 UNL     1      26.497   2.862  51.787  1.00  0.00     0.134 C 
BRANCH  25  26
HETATM   26  C17 UNL     1      26.539   2.534  50.333  1.00  0.00     0.050 C 
BRANCH  26  27
HETATM   27  C18 UNL     1      25.366   3.211  49.612  1.00  0.00     0.274 C 
BRANCH  27  28
HETATM   28  N5  UNL     1      25.029   4.466  50.253  1.00  0.00     0.092 N 
HETATM   29  C19 UNL     1      25.363   5.623  49.421  1.00  0.00     0.298 C 
HETATM   30  C20 UNL     1      25.354   6.825  50.356  1.00  0.00     0.198 C 
HETATM   31  O4  UNL     1      24.431   6.626  51.387  1.00  0.00    -0.388 OA
HETATM   32  C21 UNL     1      23.301   5.963  50.959  1.00  0.00     0.198 C 
HETATM   33  C22 UNL     1      23.587   4.554  50.497  1.00  0.00     0.298 C 
ENDBRANCH  27  28
ENDBRANCH  26  27
ENDBRANCH  25  26
ENDBRANCH  14  25
TORSDOF 7
ENDMDL
MODEL 7
REMARK VINA RESULT:      -8.3      2.868      5.492
REMARK  7 active torsions:
REMARK  status: ('A' for Active; 'I' for Inactive)
REMARK    1  A    between atoms: O1_2  and  C2_3 
REMARK    2  A    between atoms: C6_7  and  N1_8 
REMARK    3  A    between atoms: N1_8  and  C7_9 
REMARK    4  A    between atoms: N4_22  and  C16_23 
REMARK    5  A    between atoms: C16_23  and  C17_24 
REMARK    6  A    between atoms: C17_24  and  C18_25 
REMARK    7  A    between atoms: C18_25  and  N5_26 
ROOT
HETATM    1  C7  UNL     1      28.578   7.769  48.065  1.00  0.00     0.138 C 
HETATM    2  N2  UNL     1      28.645   8.921  48.660  1.00  0.00    -0.224 NA
HETATM    3  C8  UNL     1      27.648   9.449  49.508  1.00  0.00     0.230 C 
HETATM    4  N3  UNL     1      26.481   8.878  49.806  1.00  0.00    -0.266 NA
HETATM    5  C9  UNL     1      26.256   7.636  49.166  1.00  0.00     0.205 A 
HETATM    6  C10 UNL     1      27.480   6.971  48.687  1.00  0.00     0.021 A 
HETATM    7  C11 UNL     1      27.353   5.656  48.921  1.00  0.00     0.046 A 
HETATM    8  C12 UNL     1      26.051   5.415  49.583  1.00  0.00     0.069 A 
HETATM    9  C13 UNL     1      25.426   6.595  49.725  1.00  0.00     0.103 A 
HETATM   10  O2  UNL     1      24.183   6.768  50.316  1.00  0.00    -0.341 OA
HETATM   11  C14 UNL     1      23.700   5.755  51.173  1.00  0.00     0.278 C 
HETATM   12  C15 UNL     1      24.127   4.450  50.647  1.00  0.00     0.248 C 
HETATM   13  O3  UNL     1      23.330   3.472  50.722  1.00  0.00    -0.271 OA
HETATM   14  N4  UNL     1      25.403   4.241  50.058  1.00  0.00    -0.314 N 
ENDROOT
BRANCH   1  15
HETATM   15  N1  UNL     1      29.454   7.125  47.190  1.00  0.00    -0.340 N 
HETATM   16  H7  UNL     1      29.132   6.915  46.233  1.00  0.00     0.167 HD
BRANCH  15  17
HETATM   17  C6  UNL     1      30.732   6.794  47.684  1.00  0.00     0.036 A 
HETATM   18  C5  UNL     1      31.758   7.541  48.187  1.00  0.00     0.029 A 
HETATM   19  C4  UNL     1      32.963   7.044  48.622  1.00  0.00     0.005 A 
HETATM   20  C3  UNL     1      33.215   5.692  48.570  1.00  0.00     0.037 A 
HETATM   21  C2  UNL     1      32.208   4.887  48.068  1.00  0.00     0.070 A 
HETATM   22  C23 UNL     1      31.021   5.446  47.648  1.00  0.00     0.066 A 
BRANCH  21  23
HETATM   23  O1  UNL     1      32.440   3.539  48.010  1.00  0.00    -0.356 OA
HETATM   24  C1  UNL     1      32.269   2.870  46.775  1.00  0.00     0.210 C 
ENDBRANCH  21  23
ENDBRANCH  15  17
ENDBRANCH   1  15
BRANCH  14  25
HETATM   25  C16 UNL     1      26.016   2.951  49.938  1.00  0.00     0.134 C 
BRANCH  25  26
HETATM   26  C17 UNL     1      26.734   2.460  51.149  1.00  0.00     0.050 C 
BRANCH  26  27
HETATM   27  C18 UNL     1      26.228   1.060  51.522  1.00  0.00     0.274 C 
BRANCH  27  28
HETATM   28  N5  UNL     1      26.855   0.601  52.745  1.00  0.00     0.092 N 
HETATM   29  C19 UNL     1      27.841   1.555  53.257  1.00  0.00     0.298 C 
HETATM   30  C20 UNL     1      28.688   0.781  54.257  1.00  0.00     0.198 C 
HETATM   31  O4  UNL     1      27.923  -0.218  54.866  1.00  0.00    -0.388 OA
HETATM   32  C21 UNL     1      26.623   0.180  55.089  1.00  0.00     0.198 C 
HETATM   33  C22 UNL     1      25.862   0.444  53.811  1.00  0.00     0.298 C 
ENDBRANCH  27  28
ENDBRANCH  26  27
ENDBRANCH  25  26
ENDBRANCH  14  25
TORSDOF 7
ENDMDL
MODEL 8
REMARK VINA RESULT:      -8.3      3.726      6.989
REMARK  7 active torsions:
REMARK  status: ('A' for Active; 'I' for Inactive)
REMARK    1  A    between atoms: O1_2  and  C2_3 
REMARK    2  A    between atoms: C6_7  and  N1_8 
REMARK    3  A    between atoms: N1_8  and  C7_9 
REMARK    4  A    between atoms: N4_22  and  C16_23 
REMARK    5  A    between atoms: C16_23  and  C17_24 
REMARK    6  A    between atoms: C17_24  and  C18_25 
REMARK    7  A    between atoms: C18_25  and  N5_26 
ROOT
HETATM    1  C7  UNL     1      30.524   5.490  47.661  1.00  0.00     0.138 C 
HETATM    2  N2  UNL     1      31.188   6.523  48.083  1.00  0.00    -0.224 NA
HETATM    3  C8  UNL     1      30.605   7.692  48.617  1.00  0.00     0.230 C 
HETATM    4  N3  UNL     1      29.301   7.939  48.741  1.00  0.00    -0.266 NA
HETATM    5  C9  UNL     1      28.461   6.909  48.254  1.00  0.00     0.205 A 
HETATM    6  C10 UNL     1      29.115   5.594  48.146  1.00  0.00     0.021 A 
HETATM    7  C11 UNL     1      28.234   4.661  48.537  1.00  0.00     0.046 A 
HETATM    8  C12 UNL     1      26.977   5.333  48.937  1.00  0.00     0.069 A 
HETATM    9  C13 UNL     1      27.136   6.657  48.770  1.00  0.00     0.103 A 
HETATM   10  O2  UNL     1      26.172   7.612  49.055  1.00  0.00    -0.341 OA
HETATM   11  C14 UNL     1      25.119   7.266  49.929  1.00  0.00     0.278 C 
HETATM   12  C15 UNL     1      24.761   5.857  49.699  1.00  0.00     0.248 C 
HETATM   13  O3  UNL     1      23.544   5.522  49.745  1.00  0.00    -0.271 OA
HETATM   14  N4  UNL     1      25.731   4.855  49.429  1.00  0.00    -0.314 N 
ENDROOT
BRANCH   1  15
HETATM   15  N1  UNL     1      30.944   4.286  47.094  1.00  0.00    -0.340 N 
HETATM   16  H7  UNL     1      30.231   3.597  46.811  1.00  0.00     0.167 HD
BRANCH  15  17
HETATM   17  C6  UNL     1      32.333   4.090  46.951  1.00  0.00     0.036 A 
HETATM   18  C5  UNL     1      33.311   3.698  47.818  1.00  0.00     0.029 A 
HETATM   19  C4  UNL     1      34.643   3.566  47.506  1.00  0.00     0.005 A 
HETATM   20  C3  UNL     1      35.086   3.837  46.231  1.00  0.00     0.037 A 
HETATM   21  C2  UNL     1      34.135   4.238  45.311  1.00  0.00     0.070 A 
HETATM   22  C23 UNL     1      32.814   4.352  45.686  1.00  0.00     0.066 A 
BRANCH  21  23
HETATM   23  O1  UNL     1      34.557   4.512  44.037  1.00  0.00    -0.356 OA
HETATM   24  C1  UNL     1      33.588   4.719  43.026  1.00  0.00     0.210 C 
ENDBRANCH  21  23
ENDBRANCH  15  17
ENDBRANCH   1  15
BRANCH  14  25
HETATM   25  C16 UNL     1      25.498   3.455  49.630  1.00  0.00     0.134 C 
BRANCH  25  26
HETATM   26  C17 UNL     1      26.170   2.849  50.814  1.00  0.00     0.050 C 
BRANCH  26  27
HETATM   27  C18 UNL     1      25.118   2.412  51.843  1.00  0.00     0.274 C 
BRANCH  27  28
HETATM   28  N5  UNL     1      25.596   1.280  52.611  1.00  0.00     0.092 N 
HETATM   29  C19 UNL     1      26.657   0.546  51.918  1.00  0.00     0.298 C 
HETATM   30  C20 UNL     1      26.754  -0.803  52.616  1.00  0.00     0.198 C 
HETATM   31  O4  UNL     1      26.408  -0.674  53.964  1.00  0.00    -0.388 OA
HETATM   32  C21 UNL     1      26.841   0.516  54.506  1.00  0.00     0.198 C 
HETATM   33  C22 UNL     1      26.180   1.722  53.880  1.00  0.00     0.298 C 
ENDBRANCH  27  28
ENDBRANCH  26  27
ENDBRANCH  25  26
ENDBRANCH  14  25
TORSDOF 7
ENDMDL
MODEL 9
REMARK VINA RESULT:      -8.2      2.102      3.714
REMARK  7 active torsions:
REMARK  status: ('A' for Active; 'I' for Inactive)
REMARK    1  A    between atoms: O1_2  and  C2_3 
REMARK    2  A    between atoms: C6_7  and  N1_8 
REMARK    3  A    between atoms: N1_8  and  C7_9 
REMARK    4  A    between atoms: N4_22  and  C16_23 
REMARK    5  A    between atoms: C16_23  and  C17_24 
REMARK    6  A    between atoms: C17_24  and  C18_25 
REMARK    7  A    between atoms: C18_25  and  N5_26 
ROOT
HETATM    1  C7  UNL     1      26.783   6.434  48.959  1.00  0.00     0.138 C 
HETATM    2  N2  UNL     1      26.818   7.656  49.397  1.00  0.00    -0.224 NA
HETATM    3  C8  UNL     1      25.781   8.281  50.123  1.00  0.00     0.230 C 
HETATM    4  N3  UNL     1      24.605   7.742  50.444  1.00  0.00    -0.266 NA
HETATM    5  C9  UNL     1      24.414   6.423  49.966  1.00  0.00     0.205 A 
HETATM    6  C10 UNL     1      25.662   5.713  49.634  1.00  0.00     0.021 A 
HETATM    7  C11 UNL     1      25.532   4.441  50.036  1.00  0.00     0.046 A 
HETATM    8  C12 UNL     1      24.203   4.275  50.667  1.00  0.00     0.069 A 
HETATM    9  C13 UNL     1      23.565   5.457  50.622  1.00  0.00     0.103 A 
HETATM   10  O2  UNL     1      22.297   5.693  51.131  1.00  0.00    -0.341 OA
HETATM   11  C14 UNL     1      21.781   4.799  52.094  1.00  0.00     0.278 C 
HETATM   12  C15 UNL     1      22.238   3.440  51.766  1.00  0.00     0.248 C 
HETATM   13  O3  UNL     1      21.443   2.472  51.936  1.00  0.00    -0.271 OA
HETATM   14  N4  UNL     1      23.539   3.168  51.265  1.00  0.00    -0.314 N 
ENDROOT
BRANCH   1  15
HETATM   15  N1  UNL     1      27.700   5.688  48.217  1.00  0.00    -0.340 N 
HETATM   16  H7  UNL     1      27.465   4.714  47.974  1.00  0.00     0.167 HD
BRANCH  15  17
HETATM   17  C6  UNL     1      28.905   6.324  47.853  1.00  0.00     0.036 A 
HETATM   18  C5  UNL     1      29.198   7.330  46.978  1.00  0.00     0.029 A 
HETATM   19  C4  UNL     1      30.455   7.829  46.735  1.00  0.00     0.005 A 
HETATM   20  C3  UNL     1      31.546   7.313  47.398  1.00  0.00     0.037 A 
HETATM   21  C2  UNL     1      31.305   6.291  48.297  1.00  0.00     0.070 A 
HETATM   22  C23 UNL     1      30.021   5.833  48.497  1.00  0.00     0.066 A 
BRANCH  21  23
HETATM   23  O1  UNL     1      32.378   5.765  48.966  1.00  0.00    -0.356 OA
HETATM   24  C1  UNL     1      33.464   5.252  48.219  1.00  0.00     0.210 C 
ENDBRANCH  21  23
ENDBRANCH  15  17
ENDBRANCH   1  15
BRANCH  14  25
HETATM   25  C16 UNL     1      24.164   1.881  51.346  1.00  0.00     0.134 C 
BRANCH  25  26
HETATM   26  C17 UNL     1      24.739   1.522  52.674  1.00  0.00     0.050 C 
BRANCH  26  27
HETATM   27  C18 UNL     1      25.871   0.501  52.492  1.00  0.00     0.274 C 
BRANCH  27  28
HETATM   28  N5  UNL     1      26.981   0.809  53.372  1.00  0.00     0.092 N 
HETATM   29  C19 UNL     1      28.040  -0.199  53.305  1.00  0.00     0.298 C 
HETATM   30  C20 UNL     1      28.901   0.019  54.541  1.00  0.00     0.198 C 
HETATM   31  O4  UNL     1      28.892   1.369  54.903  1.00  0.00    -0.388 OA
HETATM   32  C21 UNL     1      28.874   2.206  53.809  1.00  0.00     0.198 C 
HETATM   33  C22 UNL     1      27.611   2.076  52.990  1.00  0.00     0.298 C 
ENDBRANCH  27  28
ENDBRANCH  26  27
ENDBRANCH  25  26
ENDBRANCH  14  25
TORSDOF 7
ENDMDL
