MODEL 1
REMARK VINA RESULT:      -8.0      0.000      0.000
REMARK  1 active torsions:
REMARK  status: ('A' for Active; 'I' for Inactive)
REMARK    1  A    between atoms: C5_5  and  C6_6 
ROOT
HETATM    1  C1  UNL     1      27.784   5.298  48.548  1.00  0.00     0.044 C 
HETATM    2  C2  UNL     1      26.704   4.834  49.132  1.00  0.00    -0.012 C 
HETATM    3  C3  UNL     1      26.052   3.518  49.280  1.00  0.00     0.042 C 
HETATM    4  C4  UNL     1      26.222   3.011  50.723  1.00  0.00     0.034 C 
HETATM    5  C5  UNL     1      25.533   1.711  50.967  1.00  0.00     0.115 C 
HETATM    6  N1  UNL     1      24.117   1.698  50.701  1.00  0.00    -0.381 N 
HETATM    7  C12 UNL     1      22.896   2.124  51.339  1.00  0.00     0.061 A 
HETATM    8  C13 UNL     1      22.589   3.223  52.009  1.00  0.00     0.122 A 
HETATM    9  N2  UNL     1      21.271   3.358  52.531  1.00  0.00    -0.342 N 
HETATM   10  C14 UNL     1      20.282   2.352  52.356  1.00  0.00     0.202 A 
HETATM   11  N3  UNL     1      20.641   1.318  51.703  1.00  0.00    -0.279 NA
HETATM   12  C15 UNL     1      21.914   1.036  51.121  1.00  0.00     0.209 A 
HETATM   13  S1  UNL     1      23.449   4.742  52.499  1.00  0.00     0.051 SA
HETATM   14  O1  UNL     1      22.714   6.052  51.606  1.00  0.00    -0.294 OA
HETATM   15  C16 UNL     1      23.833   6.856  51.249  1.00  0.00     0.311 C 
HETATM   16  N4  UNL     1      24.725   5.990  50.518  1.00  0.00    -0.335 N 
HETATM   17  C17 UNL     1      25.933   5.860  49.799  1.00  0.00     0.245 C 
HETATM   18  O2  UNL     1      26.091   7.086  49.991  1.00  0.00    -0.268 OA
HETATM   19  H13 UNL     1      23.977   1.250  49.733  1.00  0.00     0.160 HD
HETATM   20  H14 UNL     1      20.830   4.127  53.078  1.00  0.00     0.167 HD
HETATM   21  H20 UNL     1      24.418   5.004  50.386  1.00  0.00     0.164 HD
ENDROOT
BRANCH   5  22
HETATM   22  C6  UNL     1      25.798   1.222  52.382  1.00  0.00    -0.036 A 
HETATM   23  C7  UNL     1      25.429  -0.093  52.685  1.00  0.00     0.009 A 
HETATM   24  C8  UNL     1      25.663  -0.546  53.969  1.00  0.00     0.001 A 
HETATM   25  C9  UNL     1      26.229   0.215  54.950  1.00  0.00     0.000 A 
HETATM   26  C10 UNL     1      26.568   1.501  54.586  1.00  0.00     0.001 A 
HETATM   27  C11 UNL     1      26.374   2.039  53.329  1.00  0.00     0.009 A 
ENDBRANCH   5  22
TORSDOF 1
ENDMDL
MODEL 2
REMARK VINA RESULT:      -7.8      2.186      4.683
REMARK  1 active torsions:
REMARK  status: ('A' for Active; 'I' for Inactive)
REMARK    1  A    between atoms: C5_5  and  C6_6 
ROOT
HETATM    1  C1  UNL     1      23.289   8.143  50.011  1.00  0.00     0.044 C 
HETATM    2  C2  UNL     1      23.890   7.066  50.460  1.00  0.00    -0.012 C 
HETATM    3  C3  UNL     1      23.756   6.179  51.631  1.00  0.00     0.042 C 
HETATM    4  C4  UNL     1      23.154   4.830  51.198  1.00  0.00     0.034 C 
HETATM    5  C5  UNL     1      23.047   3.855  52.320  1.00  0.00     0.115 C 
HETATM    6  N1  UNL     1      24.281   3.544  52.995  1.00  0.00    -0.381 N 
HETATM    7  C12 UNL     1      25.446   2.721  52.786  1.00  0.00     0.061 A 
HETATM    8  C13 UNL     1      26.172   2.479  51.707  1.00  0.00     0.122 A 
HETATM    9  N2  UNL     1      27.289   1.602  51.817  1.00  0.00    -0.342 N 
HETATM   10  C14 UNL     1      27.644   0.982  53.047  1.00  0.00     0.202 A 
HETATM   11  N3  UNL     1      26.905   1.255  54.048  1.00  0.00    -0.279 NA
HETATM   12  C15 UNL     1      25.760   2.107  54.098  1.00  0.00     0.209 A 
HETATM   13  S1  UNL     1      26.144   2.989  49.967  1.00  0.00     0.051 SA
HETATM   14  O1  UNL     1      27.557   3.983  49.707  1.00  0.00    -0.294 OA
HETATM   15  C16 UNL     1      27.064   5.018  48.863  1.00  0.00     0.311 C 
HETATM   16  N4  UNL     1      25.968   5.621  49.580  1.00  0.00    -0.335 N 
HETATM   17  C17 UNL     1      24.974   6.624  49.609  1.00  0.00     0.245 C 
HETATM   18  O2  UNL     1      25.435   7.007  48.512  1.00  0.00    -0.268 OA
HETATM   19  H13 UNL     1      24.308   4.127  53.899  1.00  0.00     0.160 HD
HETATM   20  H14 UNL     1      27.979   1.283  51.105  1.00  0.00     0.167 HD
HETATM   21  H20 UNL     1      25.746   5.227  50.518  1.00  0.00     0.164 HD
ENDROOT
BRANCH   5  22
HETATM   22  C6  UNL     1      22.376   2.573  51.853  1.00  0.00    -0.036 A 
HETATM   23  C7  UNL     1      22.336   2.336  50.474  1.00  0.00     0.009 A 
HETATM   24  C8  UNL     1      21.725   1.175  50.040  1.00  0.00     0.001 A 
HETATM   25  C9  UNL     1      21.164   0.255  50.876  1.00  0.00     0.000 A 
HETATM   26  C10 UNL     1      21.237   0.549  52.221  1.00  0.00     0.001 A 
HETATM   27  C11 UNL     1      21.826   1.681  52.747  1.00  0.00     0.009 A 
ENDBRANCH   5  22
TORSDOF 1
ENDMDL
MODEL 3
REMARK VINA RESULT:      -7.6      3.459      5.873
REMARK  1 active torsions:
REMARK  status: ('A' for Active; 'I' for Inactive)
REMARK    1  A    between atoms: C5_5  and  C6_6 
ROOT
HETATM    1  C1  UNL     1      26.432   2.064  53.604  1.00  0.00     0.044 C 
HETATM    2  C2  UNL     1      25.161   2.082  53.278  1.00  0.00    -0.012 C 
HETATM    3  C3  UNL     1      24.189   3.098  52.830  1.00  0.00     0.042 C 
HETATM    4  C4  UNL     1      23.862   2.885  51.341  1.00  0.00     0.034 C 
HETATM    5  C5  UNL     1      22.835   3.837  50.830  1.00  0.00     0.115 C 
HETATM    6  N1  UNL     1      21.572   3.823  51.523  1.00  0.00    -0.381 N 
HETATM    7  C12 UNL     1      20.375   3.020  51.567  1.00  0.00     0.061 A 
HETATM    8  C13 UNL     1      20.191   1.710  51.554  1.00  0.00     0.122 A 
HETATM    9  N2  UNL     1      18.861   1.205  51.608  1.00  0.00    -0.342 N 
HETATM   10  C14 UNL     1      17.729   2.065  51.673  1.00  0.00     0.202 A 
HETATM   11  N3  UNL     1      17.974   3.315  51.681  1.00  0.00    -0.279 NA
HETATM   12  C15 UNL     1      19.241   3.972  51.632  1.00  0.00     0.209 A 
HETATM   13  S1  UNL     1      21.250   0.239  51.476  1.00  0.00     0.051 SA
HETATM   14  O1  UNL     1      21.109  -0.570  53.019  1.00  0.00    -0.294 OA
HETATM   15  C16 UNL     1      22.444  -0.989  53.278  1.00  0.00     0.311 C 
HETATM   16  N4  UNL     1      23.247   0.208  53.242  1.00  0.00    -0.335 N 
HETATM   17  C17 UNL     1      24.526   0.788  53.393  1.00  0.00     0.245 C 
HETATM   18  O2  UNL     1      24.929  -0.361  53.683  1.00  0.00    -0.268 OA
HETATM   19  H13 UNL     1      21.572   4.653  52.207  1.00  0.00     0.160 HD
HETATM   20  H14 UNL     1      18.501   0.228  51.609  1.00  0.00     0.167 HD
HETATM   21  H20 UNL     1      22.749   1.102  53.050  1.00  0.00     0.164 HD
ENDROOT
BRANCH   5  22
HETATM   22  C6  UNL     1      22.609   3.632  49.340  1.00  0.00    -0.036 A 
HETATM   23  C7  UNL     1      22.302   4.764  48.577  1.00  0.00     0.009 A 
HETATM   24  C8  UNL     1      22.092   4.587  47.223  1.00  0.00     0.001 A 
HETATM   25  C9  UNL     1      22.166   3.378  46.595  1.00  0.00     0.000 A 
HETATM   26  C10 UNL     1      22.471   2.304  47.404  1.00  0.00     0.001 A 
HETATM   27  C11 UNL     1      22.697   2.385  48.764  1.00  0.00     0.009 A 
ENDBRANCH   5  22
TORSDOF 1
ENDMDL
MODEL 4
REMARK VINA RESULT:      -7.2      2.370      3.228
REMARK  1 active torsions:
REMARK  status: ('A' for Active; 'I' for Inactive)
REMARK    1  A    between atoms: C5_5  and  C6_6 
ROOT
HETATM    1  C1  UNL     1      27.018   4.630  49.253  1.00  0.00     0.044 C 
HETATM    2  C2  UNL     1      25.708   4.581  49.315  1.00  0.00    -0.012 C 
HETATM    3  C3  UNL     1      24.655   3.631  48.907  1.00  0.00     0.042 C 
HETATM    4  C4  UNL     1      24.056   2.951  50.151  1.00  0.00     0.034 C 
HETATM    5  C5  UNL     1      22.938   2.020  49.821  1.00  0.00     0.115 C 
HETATM    6  N1  UNL     1      21.829   2.605  49.111  1.00  0.00    -0.381 N 
HETATM    7  C12 UNL     1      20.673   3.417  49.397  1.00  0.00     0.061 A 
HETATM    8  C13 UNL     1      20.507   4.470  50.181  1.00  0.00     0.122 A 
HETATM    9  N2  UNL     1      19.218   5.068  50.258  1.00  0.00    -0.342 N 
HETATM   10  C14 UNL     1      18.108   4.569  49.522  1.00  0.00     0.202 A 
HETATM   11  N3  UNL     1      18.333   3.553  48.787  1.00  0.00    -0.279 NA
HETATM   12  C15 UNL     1      19.560   2.844  48.604  1.00  0.00     0.209 A 
HETATM   13  S1  UNL     1      21.551   5.455  51.289  1.00  0.00     0.051 SA
HETATM   14  O1  UNL     1      21.715   7.035  50.561  1.00  0.00    -0.294 OA
HETATM   15  C16 UNL     1      23.080   7.354  50.805  1.00  0.00     0.311 C 
HETATM   16  N4  UNL     1      23.846   6.284  50.215  1.00  0.00    -0.335 N 
HETATM   17  C17 UNL     1      25.123   5.755  49.926  1.00  0.00     0.245 C 
HETATM   18  O2  UNL     1      25.589   6.787  50.458  1.00  0.00    -0.268 OA
HETATM   19  H13 UNL     1      21.948   2.355  48.071  1.00  0.00     0.160 HD
HETATM   20  H14 UNL     1      18.877   5.888  50.802  1.00  0.00     0.167 HD
HETATM   21  H20 UNL     1      23.310   5.524  49.749  1.00  0.00     0.164 HD
ENDROOT
BRANCH   5  22
HETATM   22  C6  UNL     1      22.437   1.321  51.075  1.00  0.00    -0.036 A 
HETATM   23  C7  UNL     1      23.164   1.520  52.254  1.00  0.00     0.009 A 
HETATM   24  C8  UNL     1      22.719   0.885  53.398  1.00  0.00     0.001 A 
HETATM   25  C9  UNL     1      21.617   0.081  53.439  1.00  0.00     0.000 A 
HETATM   26  C10 UNL     1      20.947  -0.073  52.244  1.00  0.00     0.001 A 
HETATM   27  C11 UNL     1      21.317   0.520  51.053  1.00  0.00     0.009 A 
ENDBRANCH   5  22
TORSDOF 1
ENDMDL
MODEL 5
REMARK VINA RESULT:      -6.9      5.455     10.051
REMARK  1 active torsions:
REMARK  status: ('A' for Active; 'I' for Inactive)
REMARK    1  A    between atoms: C5_5  and  C6_6 
ROOT
HETATM    1  C1  UNL     1      27.263   4.275  48.722  1.00  0.00     0.044 C 
HETATM    2  C2  UNL     1      27.695   5.513  48.737  1.00  0.00    -0.012 C 
HETATM    3  C3  UNL     1      28.886   6.235  48.248  1.00  0.00     0.042 C 
HETATM    4  C4  UNL     1      28.507   7.105  47.036  1.00  0.00     0.034 C 
HETATM    5  C5  UNL     1      29.649   7.915  46.523  1.00  0.00     0.115 C 
HETATM    6  N1  UNL     1      30.261   8.803  47.478  1.00  0.00    -0.381 N 
HETATM    7  C12 UNL     1      30.002  10.090  48.073  1.00  0.00     0.061 A 
HETATM    8  C13 UNL     1      28.890  10.646  48.525  1.00  0.00     0.122 A 
HETATM    9  N2  UNL     1      28.952  11.960  49.068  1.00  0.00    -0.342 N 
HETATM   10  C14 UNL     1      30.171  12.691  49.138  1.00  0.00     0.202 A 
HETATM   11  N3  UNL     1      31.206  12.101  48.686  1.00  0.00    -0.279 NA
HETATM   12  C15 UNL     1      31.305  10.796  48.115  1.00  0.00     0.209 A 
HETATM   13  S1  UNL     1      27.146  10.165  48.656  1.00  0.00     0.051 SA
HETATM   14  O1  UNL     1      26.793   9.994  50.359  1.00  0.00    -0.294 OA
HETATM   15  C16 UNL     1      25.962   8.840  50.395  1.00  0.00     0.311 C 
HETATM   16  N4  UNL     1      26.728   7.783  49.780  1.00  0.00    -0.335 N 
HETATM   17  C17 UNL     1      26.794   6.421  49.413  1.00  0.00     0.245 C 
HETATM   18  O2  UNL     1      25.667   6.301  49.943  1.00  0.00    -0.268 OA
HETATM   19  H13 UNL     1      31.152   8.320  47.839  1.00  0.00     0.160 HD
HETATM   20  H14 UNL     1      28.209  12.569  49.471  1.00  0.00     0.167 HD
HETATM   21  H20 UNL     1      27.682   8.029  49.445  1.00  0.00     0.164 HD
ENDROOT
BRANCH   5  22
HETATM   22  C6  UNL     1      29.238   8.694  45.283  1.00  0.00    -0.036 A 
HETATM   23  C7  UNL     1      27.877   8.715  44.961  1.00  0.00     0.009 A 
HETATM   24  C8  UNL     1      27.495   9.417  43.834  1.00  0.00     0.001 A 
HETATM   25  C9  UNL     1      28.367  10.085  43.024  1.00  0.00     0.000 A 
HETATM   26  C10 UNL     1      29.693  10.022  43.397  1.00  0.00     0.001 A 
HETATM   27  C11 UNL     1      30.167   9.348  44.504  1.00  0.00     0.009 A 
ENDBRANCH   5  22
TORSDOF 1
ENDMDL
MODEL 6
REMARK VINA RESULT:      -6.9      4.783      8.525
REMARK  1 active torsions:
REMARK  status: ('A' for Active; 'I' for Inactive)
REMARK    1  A    between atoms: C5_5  and  C6_6 
ROOT
HETATM    1  C1  UNL     1      31.252  11.553  48.590  1.00  0.00     0.044 C 
HETATM    2  C2  UNL     1      30.485  10.495  48.710  1.00  0.00    -0.012 C 
HETATM    3  C3  UNL     1      29.048  10.237  48.922  1.00  0.00     0.042 C 
HETATM    4  C4  UNL     1      28.417   9.701  47.624  1.00  0.00     0.034 C 
HETATM    5  C5  UNL     1      26.975   9.356  47.779  1.00  0.00     0.115 C 
HETATM    6  N1  UNL     1      26.672   8.387  48.802  1.00  0.00    -0.381 N 
HETATM    7  C12 UNL     1      26.727   6.958  48.983  1.00  0.00     0.061 A 
HETATM    8  C13 UNL     1      27.635   6.059  48.637  1.00  0.00     0.122 A 
HETATM    9  N2  UNL     1      27.401   4.692  48.960  1.00  0.00    -0.342 N 
HETATM   10  C14 UNL     1      26.225   4.266  49.638  1.00  0.00     0.202 A 
HETATM   11  N3  UNL     1      25.390   5.180  49.942  1.00  0.00    -0.279 NA
HETATM   12  C15 UNL     1      25.479   6.583  49.689  1.00  0.00     0.209 A 
HETATM   13  S1  UNL     1      29.237   6.076  47.788  1.00  0.00     0.051 SA
HETATM   14  O1  UNL     1      30.446   5.653  48.977  1.00  0.00    -0.294 OA
HETATM   15  C16 UNL     1      31.522   6.528  48.657  1.00  0.00     0.311 C 
HETATM   16  N4  UNL     1      30.979   7.862  48.727  1.00  0.00    -0.335 N 
HETATM   17  C17 UNL     1      31.218   9.251  48.628  1.00  0.00     0.245 C 
HETATM   18  O2  UNL     1      32.414   8.953  48.415  1.00  0.00    -0.268 OA
HETATM   19  H13 UNL     1      26.329   8.929  49.665  1.00  0.00     0.160 HD
HETATM   20  H14 UNL     1      27.975   3.842  48.783  1.00  0.00     0.167 HD
HETATM   21  H20 UNL     1      29.973   7.947  48.982  1.00  0.00     0.164 HD
ENDROOT
BRANCH   5  22
HETATM   22  C6  UNL     1      26.387   8.906  46.451  1.00  0.00    -0.036 A 
HETATM   23  C7  UNL     1      25.013   8.642  46.415  1.00  0.00     0.009 A 
HETATM   24  C8  UNL     1      24.470   8.230  45.213  1.00  0.00     0.001 A 
HETATM   25  C9  UNL     1      25.195   8.066  44.069  1.00  0.00     0.000 A 
HETATM   26  C10 UNL     1      26.542   8.342  44.173  1.00  0.00     0.001 A 
HETATM   27  C11 UNL     1      27.172   8.759  45.329  1.00  0.00     0.009 A 
ENDBRANCH   5  22
TORSDOF 1
ENDMDL
MODEL 7
REMARK VINA RESULT:      -6.8      2.549      5.904
REMARK  1 active torsions:
REMARK  status: ('A' for Active; 'I' for Inactive)
REMARK    1  A    between atoms: C5_5  and  C6_6 
ROOT
HETATM    1  C1  UNL     1      19.964   2.774  47.509  1.00  0.00     0.044 C 
HETATM    2  C2  UNL     1      20.972   2.730  48.348  1.00  0.00    -0.012 C 
HETATM    3  C3  UNL     1      22.440   2.854  48.260  1.00  0.00     0.042 C 
HETATM    4  C4  UNL     1      22.887   4.198  48.863  1.00  0.00     0.034 C 
HETATM    5  C5  UNL     1      24.368   4.368  48.868  1.00  0.00     0.115 C 
HETATM    6  N1  UNL     1      25.110   3.350  49.566  1.00  0.00    -0.381 N 
HETATM    7  C12 UNL     1      25.445   3.000  50.924  1.00  0.00     0.061 A 
HETATM    8  C13 UNL     1      24.730   3.004  52.037  1.00  0.00     0.122 A 
HETATM    9  N2  UNL     1      25.353   2.597  53.251  1.00  0.00    -0.342 N 
HETATM   10  C14 UNL     1      26.715   2.188  53.301  1.00  0.00     0.202 A 
HETATM   11  N3  UNL     1      27.348   2.207  52.196  1.00  0.00    -0.279 NA
HETATM   12  C15 UNL     1      26.868   2.587  50.905  1.00  0.00     0.209 A 
HETATM   13  S1  UNL     1      23.028   3.424  52.499  1.00  0.00     0.051 SA
HETATM   14  O1  UNL     1      22.244   1.932  52.960  1.00  0.00    -0.294 OA
HETATM   15  C16 UNL     1      20.945   2.071  52.396  1.00  0.00     0.311 C 
HETATM   16  N4  UNL     1      21.149   2.291  50.985  1.00  0.00    -0.335 N 
HETATM   17  C17 UNL     1      20.564   2.485  49.714  1.00  0.00     0.245 C 
HETATM   18  O2  UNL     1      19.459   2.358  50.287  1.00  0.00    -0.268 OA
HETATM   19  H13 UNL     1      25.489   2.666  48.827  1.00  0.00     0.160 HD
HETATM   20  H14 UNL     1      24.979   2.527  54.220  1.00  0.00     0.167 HD
HETATM   21  H20 UNL     1      22.135   2.306  50.650  1.00  0.00     0.164 HD
ENDROOT
BRANCH   5  22
HETATM   22  C6  UNL     1      24.747   5.741  49.401  1.00  0.00    -0.036 A 
HETATM   23  C7  UNL     1      26.003   6.243  49.043  1.00  0.00     0.009 A 
HETATM   24  C8  UNL     1      26.358   7.488  49.525  1.00  0.00     0.001 A 
HETATM   25  C9  UNL     1      25.556   8.248  50.326  1.00  0.00     0.000 A 
HETATM   26  C10 UNL     1      24.333   7.695  50.642  1.00  0.00     0.001 A 
HETATM   27  C11 UNL     1      23.893   6.461  50.207  1.00  0.00     0.009 A 
ENDBRANCH   5  22
TORSDOF 1
ENDMDL
MODEL 8
REMARK VINA RESULT:      -6.7      7.673     10.559
REMARK  1 active torsions:
REMARK  status: ('A' for Active; 'I' for Inactive)
REMARK    1  A    between atoms: C5_5  and  C6_6 
ROOT
HETATM    1  C1  UNL     1      26.937   6.995  48.400  1.00  0.00     0.044 C 
HETATM    2  C2  UNL     1      28.166   7.295  48.049  1.00  0.00    -0.012 C 
HETATM    3  C3  UNL     1      29.504   7.205  48.664  1.00  0.00     0.042 C 
HETATM    4  C4  UNL     1      30.313   6.083  47.990  1.00  0.00     0.034 C 
HETATM    5  C5  UNL     1      31.704   5.973  48.518  1.00  0.00     0.115 C 
HETATM    6  N1  UNL     1      32.506   7.166  48.412  1.00  0.00    -0.381 N 
HETATM    7  C12 UNL     1      33.261   7.871  47.408  1.00  0.00     0.061 A 
HETATM    8  C13 UNL     1      33.008   8.133  46.136  1.00  0.00     0.122 A 
HETATM    9  N2  UNL     1      33.969   8.867  45.384  1.00  0.00    -0.342 N 
HETATM   10  C14 UNL     1      35.188   9.323  45.957  1.00  0.00     0.202 A 
HETATM   11  N3  UNL     1      35.373   9.038  47.185  1.00  0.00    -0.279 NA
HETATM   12  C15 UNL     1      34.512   8.315  48.067  1.00  0.00     0.209 A 
HETATM   13  S1  UNL     1      31.662   7.788  44.970  1.00  0.00     0.051 SA
HETATM   14  O1  UNL     1      30.907   9.319  44.598  1.00  0.00    -0.294 OA
HETATM   15  C16 UNL     1      29.523   8.990  44.570  1.00  0.00     0.311 C 
HETATM   16  N4  UNL     1      29.228   8.416  45.860  1.00  0.00    -0.335 N 
HETATM   17  C17 UNL     1      28.253   7.874  46.726  1.00  0.00     0.245 C 
HETATM   18  O2  UNL     1      27.425   8.107  45.817  1.00  0.00    -0.268 OA
HETATM   19  H13 UNL     1      32.496   7.644  49.376  1.00  0.00     0.160 HD
HETATM   20  H14 UNL     1      33.967   9.175  44.389  1.00  0.00     0.167 HD
HETATM   21  H20 UNL     1      30.017   8.349  46.536  1.00  0.00     0.164 HD
ENDROOT
BRANCH   5  22
HETATM   22  C6  UNL     1      32.430   4.803  47.873  1.00  0.00    -0.036 A 
HETATM   23  C7  UNL     1      31.693   3.992  47.003  1.00  0.00     0.009 A 
HETATM   24  C8  UNL     1      32.344   2.924  46.416  1.00  0.00     0.001 A 
HETATM   25  C9  UNL     1      33.655   2.620  46.637  1.00  0.00     0.000 A 
HETATM   26  C10 UNL     1      34.323   3.458  47.504  1.00  0.00     0.001 A 
HETATM   27  C11 UNL     1      33.757   4.547  48.137  1.00  0.00     0.009 A 
ENDBRANCH   5  22
TORSDOF 1
ENDMDL
MODEL 9
REMARK VINA RESULT:      -6.7      1.764      2.104
REMARK  1 active torsions:
REMARK  status: ('A' for Active; 'I' for Inactive)
REMARK    1  A    between atoms: C5_5  and  C6_6 
ROOT
HETATM    1  C1  UNL     1      26.232   7.839  48.743  1.00  0.00     0.044 C 
HETATM    2  C2  UNL     1      25.325   6.924  48.997  1.00  0.00    -0.012 C 
HETATM    3  C3  UNL     1      25.187   5.471  48.783  1.00  0.00     0.042 C 
HETATM    4  C4  UNL     1      25.321   4.731  50.127  1.00  0.00     0.034 C 
HETATM    5  C5  UNL     1      25.128   3.258  50.000  1.00  0.00     0.115 C 
HETATM    6  N1  UNL     1      23.870   2.840  49.436  1.00  0.00    -0.381 N 
HETATM    7  C12 UNL     1      22.500   2.683  49.855  1.00  0.00     0.061 A 
HETATM    8  C13 UNL     1      21.717   3.434  50.612  1.00  0.00     0.122 A 
HETATM    9  N2  UNL     1      20.381   3.005  50.852  1.00  0.00    -0.342 N 
HETATM   10  C14 UNL     1      19.866   1.797  50.306  1.00  0.00     0.202 A 
HETATM   11  N3  UNL     1      20.669   1.119  49.586  1.00  0.00    -0.279 NA
HETATM   12  C15 UNL     1      22.027   1.412  49.255  1.00  0.00     0.209 A 
HETATM   13  S1  UNL     1      21.880   4.997  51.518  1.00  0.00     0.051 SA
HETATM   14  O1  UNL     1      20.854   6.160  50.712  1.00  0.00    -0.294 OA
HETATM   15  C16 UNL     1      21.639   7.347  50.742  1.00  0.00     0.311 C 
HETATM   16  N4  UNL     1      22.882   7.014  50.090  1.00  0.00    -0.335 N 
HETATM   17  C17 UNL     1      24.144   7.457  49.639  1.00  0.00     0.245 C 
HETATM   18  O2  UNL     1      23.812   8.589  50.057  1.00  0.00    -0.268 OA
HETATM   19  H13 UNL     1      24.045   2.606  48.401  1.00  0.00     0.160 HD
HETATM   20  H14 UNL     1      19.614   3.439  51.408  1.00  0.00     0.167 HD
HETATM   21  H20 UNL     1      22.980   6.040  49.737  1.00  0.00     0.164 HD
ENDROOT
BRANCH   5  22
HETATM   22  C6  UNL     1      25.347   2.573  51.340  1.00  0.00    -0.036 A 
HETATM   23  C7  UNL     1      26.131   1.414  51.347  1.00  0.00     0.009 A 
HETATM   24  C8  UNL     1      26.332   0.783  52.559  1.00  0.00     0.001 A 
HETATM   25  C9  UNL     1      25.811   1.224  53.740  1.00  0.00     0.000 A 
HETATM   26  C10 UNL     1      25.047   2.370  53.663  1.00  0.00     0.001 A 
HETATM   27  C11 UNL     1      24.792   3.067  52.500  1.00  0.00     0.009 A 
ENDBRANCH   5  22
TORSDOF 1
ENDMDL
