MODEL 1
REMARK VINA RESULT:      -7.4      0.000      0.000
REMARK  9 active torsions:
REMARK  status: ('A' for Active; 'I' for Inactive)
REMARK    1  A    between atoms: C2_2  and  C3_3 
REMARK    2  A    between atoms: C2_2  and  N2_12 
REMARK    3  A    between atoms: C4_4  and  C5_5 
REMARK    4  A    between atoms: C5_5  and  C6_7 
REMARK    5  A    between atoms: C6_7  and  C7_8 
REMARK    6  A    between atoms: C7_8  and  N1_9 
REMARK    7  A    between atoms: N2_12  and  C10_13 
REMARK    8  A    between atoms: C12_15  and  N3_16 
REMARK    9  A    between atoms: N3_16  and  C13_17 
ROOT
HETATM    1  C10 UNL     1      22.343   2.569  51.072  1.00  0.00     0.370 A 
HETATM    2  C11 UNL     1      23.587   2.799  50.271  1.00  0.00     0.080 A 
HETATM    3  C12 UNL     1      24.686   3.509  50.448  1.00  0.00     0.106 A 
HETATM    4  N4  UNL     1      24.680   4.211  51.681  1.00  0.00    -0.337 N 
HETATM    5  C19 UNL     1      23.525   4.032  52.486  1.00  0.00     0.205 A 
HETATM    6  N5  UNL     1      22.467   3.333  52.287  1.00  0.00    -0.245 NA
HETATM    7  H25 UNL     1      25.455   4.812  51.984  1.00  0.00     0.168 HD
ENDROOT
BRANCH   1   8
HETATM    8  N2  UNL     1      22.335   1.150  51.374  1.00  0.00     0.119 N 
HETATM    9  H17 UNL     1      23.268   0.730  51.172  1.00  0.00     0.320 HD
BRANCH   8  10
HETATM   10  C2  UNL     1      22.012   0.895  52.742  1.00  0.00     0.242 C 
HETATM   11  C1  UNL     1      20.494   0.627  52.808  1.00  0.00     0.047 C 
BRANCH  10  12
HETATM   12  C3  UNL     1      22.746  -0.295  53.233  1.00  0.00     0.011 C 
HETATM   13  C4  UNL     1      24.085  -0.256  53.368  1.00  0.00     0.048 C 
BRANCH  13  14
HETATM   14  C5  UNL     1      25.203   0.638  53.183  1.00  0.00     0.150 C 
HETATM   15  O1  UNL     1      25.572   1.812  53.447  1.00  0.00    -0.293 OA
BRANCH  14  16
HETATM   16  C6  UNL     1      26.490   0.402  52.500  1.00  0.00     0.113 C 
BRANCH  16  17
HETATM   17  C7  UNL     1      27.189  -0.820  53.055  1.00  0.00     0.279 C 
BRANCH  17  18
HETATM   18  N1  UNL     1      28.482  -0.434  53.522  1.00  0.00     0.080 N 
HETATM   19  C8  UNL     1      28.462   0.186  54.828  1.00  0.00     0.309 C 
HETATM   20  C9  UNL     1      29.497  -1.429  53.384  1.00  0.00     0.309 C 
ENDBRANCH  17  18
ENDBRANCH  16  17
ENDBRANCH  14  16
ENDBRANCH  13  14
ENDBRANCH  10  12
ENDBRANCH   8  10
ENDBRANCH   1   8
BRANCH   3  21
HETATM   21  N3  UNL     1      25.752   3.581  49.543  1.00  0.00    -0.343 N 
HETATM   22  H20 UNL     1      26.061   2.621  49.301  1.00  0.00     0.167 HD
BRANCH  21  23
HETATM   23  C13 UNL     1      26.342   4.755  49.020  1.00  0.00     0.034 A 
HETATM   24  C14 UNL     1      25.580   5.866  48.750  1.00  0.00     0.029 A 
HETATM   25  C15 UNL     1      26.262   6.971  48.239  1.00  0.00     0.004 A 
HETATM   26  C16 UNL     1      27.636   6.976  48.004  1.00  0.00     0.019 A 
HETATM   27  C17 UNL     1      28.362   5.832  48.291  1.00  0.00     0.013 A 
HETATM   28 BR1  UNL     1      30.253   5.801  47.982  1.00  0.00    -0.051 Br
HETATM   29  C18 UNL     1      27.723   4.714  48.801  1.00  0.00     0.048 A 
ENDBRANCH  21  23
ENDBRANCH   3  21
TORSDOF 9
ENDMDL
MODEL 2
REMARK VINA RESULT:      -7.0      3.074      5.516
REMARK  9 active torsions:
REMARK  status: ('A' for Active; 'I' for Inactive)
REMARK    1  A    between atoms: C2_2  and  C3_3 
REMARK    2  A    between atoms: C2_2  and  N2_12 
REMARK    3  A    between atoms: C4_4  and  C5_5 
REMARK    4  A    between atoms: C5_5  and  C6_7 
REMARK    5  A    between atoms: C6_7  and  C7_8 
REMARK    6  A    between atoms: C7_8  and  N1_9 
REMARK    7  A    between atoms: N2_12  and  C10_13 
REMARK    8  A    between atoms: C12_15  and  N3_16 
REMARK    9  A    between atoms: N3_16  and  C13_17 
ROOT
HETATM    1  C10 UNL     1      23.564   4.228  49.659  1.00  0.00     0.370 A 
HETATM    2  C11 UNL     1      24.927   3.764  50.071  1.00  0.00     0.080 A 
HETATM    3  C12 UNL     1      25.493   3.455  51.223  1.00  0.00     0.106 A 
HETATM    4  N4  UNL     1      24.600   3.596  52.317  1.00  0.00    -0.337 N 
HETATM    5  C19 UNL     1      23.290   4.033  51.988  1.00  0.00     0.205 A 
HETATM    6  N5  UNL     1      22.766   4.328  50.854  1.00  0.00    -0.245 NA
HETATM    7  H25 UNL     1      24.870   3.397  53.286  1.00  0.00     0.168 HD
ENDROOT
BRANCH   1   8
HETATM    8  N2  UNL     1      23.044   3.182  48.799  1.00  0.00     0.119 N 
HETATM    9  H17 UNL     1      23.246   2.243  49.205  1.00  0.00     0.320 HD
BRANCH   8  10
HETATM   10  C2  UNL     1      21.633   3.297  48.608  1.00  0.00     0.242 C 
HETATM   11  C1  UNL     1      21.414   4.129  47.327  1.00  0.00     0.047 C 
BRANCH  10  12
HETATM   12  C3  UNL     1      21.024   1.957  48.438  1.00  0.00     0.011 C 
HETATM   13  C4  UNL     1      21.222   1.001  49.365  1.00  0.00     0.048 C 
BRANCH  13  14
HETATM   14  C5  UNL     1      21.900   0.783  50.620  1.00  0.00     0.150 C 
HETATM   15  O1  UNL     1      23.015   0.961  51.175  1.00  0.00    -0.293 OA
BRANCH  14  16
HETATM   16  C6  UNL     1      21.396   0.168  51.865  1.00  0.00     0.113 C 
BRANCH  16  17
HETATM   17  C7  UNL     1      22.514  -0.048  52.861  1.00  0.00     0.279 C 
BRANCH  17  18
HETATM   18  N1  UNL     1      21.940  -0.300  54.144  1.00  0.00     0.080 N 
HETATM   19  C8  UNL     1      20.743   0.470  54.400  1.00  0.00     0.309 C 
HETATM   20  C9  UNL     1      21.809  -1.679  54.488  1.00  0.00     0.309 C 
ENDBRANCH  17  18
ENDBRANCH  16  17
ENDBRANCH  14  16
ENDBRANCH  13  14
ENDBRANCH  10  12
ENDBRANCH   8  10
ENDBRANCH   1   8
BRANCH   3  21
HETATM   21  N3  UNL     1      26.818   3.033  51.381  1.00  0.00    -0.343 N 
HETATM   22  H20 UNL     1      27.429   3.575  50.741  1.00  0.00     0.167 HD
BRANCH  21  23
HETATM   23  C13 UNL     1      27.290   2.029  52.259  1.00  0.00     0.034 A 
HETATM   24  C14 UNL     1      28.103   2.348  53.320  1.00  0.00     0.029 A 
HETATM   25  C15 UNL     1      28.510   1.284  54.126  1.00  0.00     0.004 A 
HETATM   26  C16 UNL     1      28.131  -0.037  53.892  1.00  0.00     0.019 A 
HETATM   27  C17 UNL     1      27.311  -0.309  52.809  1.00  0.00     0.013 A 
HETATM   28 BR1  UNL     1      26.768  -2.112  52.455  1.00  0.00    -0.051 Br
HETATM   29  C18 UNL     1      26.884   0.719  51.985  1.00  0.00     0.048 A 
ENDBRANCH  21  23
ENDBRANCH   3  21
TORSDOF 9
ENDMDL
MODEL 3
REMARK VINA RESULT:      -6.8      3.332      8.151
REMARK  9 active torsions:
REMARK  status: ('A' for Active; 'I' for Inactive)
REMARK    1  A    between atoms: C2_2  and  C3_3 
REMARK    2  A    between atoms: C2_2  and  N2_12 
REMARK    3  A    between atoms: C4_4  and  C5_5 
REMARK    4  A    between atoms: C5_5  and  C6_7 
REMARK    5  A    between atoms: C6_7  and  C7_8 
REMARK    6  A    between atoms: C7_8  and  N1_9 
REMARK    7  A    between atoms: N2_12  and  C10_13 
REMARK    8  A    between atoms: C12_15  and  N3_16 
REMARK    9  A    between atoms: N3_16  and  C13_17 
ROOT
HETATM    1  C10 UNL     1      26.733   2.237  51.330  1.00  0.00     0.370 A 
HETATM    2  C11 UNL     1      25.882   1.101  51.807  1.00  0.00     0.080 A 
HETATM    3  C12 UNL     1      25.881   0.329  52.879  1.00  0.00     0.106 A 
HETATM    4  N4  UNL     1      26.928   0.657  53.779  1.00  0.00    -0.337 N 
HETATM    5  C19 UNL     1      27.769   1.729  53.381  1.00  0.00     0.205 A 
HETATM    6  N5  UNL     1      27.746   2.463  52.329  1.00  0.00    -0.245 NA
HETATM    7  H25 UNL     1      27.077   0.160  54.665  1.00  0.00     0.168 HD
ENDROOT
BRANCH   1   8
HETATM    8  N2  UNL     1      25.843   3.380  51.255  1.00  0.00     0.119 N 
HETATM    9  H17 UNL     1      26.303   4.226  51.656  1.00  0.00     0.320 HD
BRANCH   8  10
HETATM   10  C2  UNL     1      25.457   3.671  49.911  1.00  0.00     0.242 C 
HETATM   11  C1  UNL     1      24.066   3.040  49.692  1.00  0.00     0.047 C 
BRANCH  10  12
HETATM   12  C3  UNL     1      25.373   5.136  49.704  1.00  0.00     0.011 C 
HETATM   13  C4  UNL     1      26.389   5.795  49.118  1.00  0.00     0.048 C 
BRANCH  13  14
HETATM   14  C5  UNL     1      27.695   5.561  48.549  1.00  0.00     0.150 C 
HETATM   15  O1  UNL     1      28.548   4.648  48.397  1.00  0.00    -0.293 OA
BRANCH  14  16
HETATM   16  C6  UNL     1      28.594   6.497  47.844  1.00  0.00     0.113 C 
BRANCH  16  17
HETATM   17  C7  UNL     1      28.265   7.934  48.187  1.00  0.00     0.279 C 
BRANCH  17  18
HETATM   18  N1  UNL     1      28.147   8.677  46.972  1.00  0.00     0.080 N 
HETATM   19  C8  UNL     1      28.877   8.095  45.868  1.00  0.00     0.309 C 
HETATM   20  C9  UNL     1      26.816   9.065  46.628  1.00  0.00     0.309 C 
ENDBRANCH  17  18
ENDBRANCH  16  17
ENDBRANCH  14  16
ENDBRANCH  13  14
ENDBRANCH  10  12
ENDBRANCH   8  10
ENDBRANCH   1   8
BRANCH   3  21
HETATM   21  N3  UNL     1      24.967  -0.701  53.127  1.00  0.00    -0.343 N 
HETATM   22  H20 UNL     1      25.441  -1.616  53.006  1.00  0.00     0.167 HD
BRANCH  21  23
HETATM   23  C13 UNL     1      23.606  -0.560  53.487  1.00  0.00     0.034 A 
HETATM   24  C14 UNL     1      23.159  -0.962  54.722  1.00  0.00     0.029 A 
HETATM   25  C15 UNL     1      21.800  -0.775  54.977  1.00  0.00     0.004 A 
HETATM   26  C16 UNL     1      20.922  -0.216  54.049  1.00  0.00     0.019 A 
HETATM   27  C17 UNL     1      21.419   0.173  52.817  1.00  0.00     0.013 A 
HETATM   28 BR1  UNL     1      20.243   0.946  51.516  1.00  0.00    -0.051 Br
HETATM   29  C18 UNL     1      22.762   0.006  52.525  1.00  0.00     0.048 A 
ENDBRANCH  21  23
ENDBRANCH   3  21
TORSDOF 9
ENDMDL
MODEL 4
REMARK VINA RESULT:      -6.8      3.256      5.709
REMARK  9 active torsions:
REMARK  status: ('A' for Active; 'I' for Inactive)
REMARK    1  A    between atoms: C2_2  and  C3_3 
REMARK    2  A    between atoms: C2_2  and  N2_12 
REMARK    3  A    between atoms: C4_4  and  C5_5 
REMARK    4  A    between atoms: C5_5  and  C6_7 
REMARK    5  A    between atoms: C6_7  and  C7_8 
REMARK    6  A    between atoms: C7_8  and  N1_9 
REMARK    7  A    between atoms: N2_12  and  C10_13 
REMARK    8  A    between atoms: C12_15  and  N3_16 
REMARK    9  A    between atoms: N3_16  and  C13_17 
ROOT
HETATM    1  C10 UNL     1      24.189   6.387  51.525  1.00  0.00     0.370 A 
HETATM    2  C11 UNL     1      23.084   5.400  51.744  1.00  0.00     0.080 A 
HETATM    3  C12 UNL     1      21.794   5.374  51.464  1.00  0.00     0.106 A 
HETATM    4  N4  UNL     1      21.362   6.555  50.806  1.00  0.00    -0.337 N 
HETATM    5  C19 UNL     1      22.367   7.530  50.570  1.00  0.00     0.205 A 
HETATM    6  N5  UNL     1      23.618   7.527  50.855  1.00  0.00    -0.245 NA
HETATM    7  H25 UNL     1      20.390   6.707  50.514  1.00  0.00     0.168 HD
ENDROOT
BRANCH   1   8
HETATM    8  N2  UNL     1      25.136   5.720  50.653  1.00  0.00     0.119 N 
HETATM    9  H17 UNL     1      26.032   5.543  51.156  1.00  0.00     0.320 HD
BRANCH   8  10
HETATM   10  C2  UNL     1      24.635   4.471  50.173  1.00  0.00     0.242 C 
HETATM   11  C1  UNL     1      24.131   4.706  48.734  1.00  0.00     0.047 C 
BRANCH  10  12
HETATM   12  C3  UNL     1      25.712   3.453  50.160  1.00  0.00     0.011 C 
HETATM   13  C4  UNL     1      25.779   2.527  51.134  1.00  0.00     0.048 C 
BRANCH  13  14
HETATM   14  C5  UNL     1      25.096   2.116  52.337  1.00  0.00     0.150 C 
HETATM   15  O1  UNL     1      24.413   2.586  53.284  1.00  0.00    -0.293 OA
BRANCH  14  16
HETATM   16  C6  UNL     1      24.970   0.771  52.933  1.00  0.00     0.113 C 
BRANCH  16  17
HETATM   17  C7  UNL     1      25.928   0.593  54.090  1.00  0.00     0.279 C 
BRANCH  17  18
HETATM   18  N1  UNL     1      26.978  -0.285  53.681  1.00  0.00     0.080 N 
HETATM   19  C8  UNL     1      26.582  -1.214  52.647  1.00  0.00     0.309 C 
HETATM   20  C9  UNL     1      28.231   0.349  53.421  1.00  0.00     0.309 C 
ENDBRANCH  17  18
ENDBRANCH  16  17
ENDBRANCH  14  16
ENDBRANCH  13  14
ENDBRANCH  10  12
ENDBRANCH   8  10
ENDBRANCH   1   8
BRANCH   3  21
HETATM   21  N3  UNL     1      20.926   4.319  51.768  1.00  0.00    -0.343 N 
HETATM   22  H20 UNL     1      20.042   4.703  52.152  1.00  0.00     0.167 HD
BRANCH  21  23
HETATM   23  C13 UNL     1      21.177   2.938  51.596  1.00  0.00     0.034 A 
HETATM   24  C14 UNL     1      21.565   2.440  50.376  1.00  0.00     0.029 A 
HETATM   25  C15 UNL     1      21.789   1.064  50.315  1.00  0.00     0.004 A 
HETATM   26  C16 UNL     1      21.634   0.218  51.413  1.00  0.00     0.019 A 
HETATM   27  C17 UNL     1      21.239   0.767  52.622  1.00  0.00     0.013 A 
HETATM   28 BR1  UNL     1      21.016  -0.364  54.153  1.00  0.00    -0.051 Br
HETATM   29  C18 UNL     1      21.008   2.128  52.724  1.00  0.00     0.048 A 
ENDBRANCH  21  23
ENDBRANCH   3  21
TORSDOF 9
ENDMDL
MODEL 5
REMARK VINA RESULT:      -6.8      2.996      5.759
REMARK  9 active torsions:
REMARK  status: ('A' for Active; 'I' for Inactive)
REMARK    1  A    between atoms: C2_2  and  C3_3 
REMARK    2  A    between atoms: C2_2  and  N2_12 
REMARK    3  A    between atoms: C4_4  and  C5_5 
REMARK    4  A    between atoms: C5_5  and  C6_7 
REMARK    5  A    between atoms: C6_7  and  C7_8 
REMARK    6  A    between atoms: C7_8  and  N1_9 
REMARK    7  A    between atoms: N2_12  and  C10_13 
REMARK    8  A    between atoms: C12_15  and  N3_16 
REMARK    9  A    between atoms: N3_16  and  C13_17 
ROOT
HETATM    1  C10 UNL     1      23.850   3.909  49.112  1.00  0.00     0.370 A 
HETATM    2  C11 UNL     1      25.000   3.378  49.910  1.00  0.00     0.080 A 
HETATM    3  C12 UNL     1      25.339   3.413  51.186  1.00  0.00     0.106 A 
HETATM    4  N4  UNL     1      24.393   4.116  51.975  1.00  0.00    -0.337 N 
HETATM    5  C19 UNL     1      23.277   4.644  51.273  1.00  0.00     0.205 A 
HETATM    6  N5  UNL     1      22.973   4.594  50.027  1.00  0.00    -0.245 NA
HETATM    7  H25 UNL     1      24.495   4.242  52.988  1.00  0.00     0.168 HD
ENDROOT
BRANCH   1   8
HETATM    8  N2  UNL     1      23.185   2.740  48.567  1.00  0.00     0.119 N 
HETATM    9  H17 UNL     1      23.199   1.959  49.258  1.00  0.00     0.320 HD
BRANCH   8  10
HETATM   10  C2  UNL     1      21.827   3.010  48.218  1.00  0.00     0.242 C 
HETATM   11  C1  UNL     1      21.817   3.452  46.740  1.00  0.00     0.047 C 
BRANCH  10  12
HETATM   12  C3  UNL     1      21.001   1.789  48.375  1.00  0.00     0.011 C 
HETATM   13  C4  UNL     1      20.910   1.183  49.573  1.00  0.00     0.048 C 
BRANCH  13  14
HETATM   14  C5  UNL     1      21.388   1.307  50.929  1.00  0.00     0.150 C 
HETATM   15  O1  UNL     1      22.444   1.514  51.580  1.00  0.00    -0.293 OA
BRANCH  14  16
HETATM   16  C6  UNL     1      20.641   1.211  52.200  1.00  0.00     0.113 C 
BRANCH  16  17
HETATM   17  C7  UNL     1      20.211  -0.214  52.475  1.00  0.00     0.279 C 
BRANCH  17  18
HETATM   18  N1  UNL     1      20.763  -0.624  53.727  1.00  0.00     0.080 N 
HETATM   19  C8  UNL     1      22.011  -1.343  53.598  1.00  0.00     0.309 C 
HETATM   20  C9  UNL     1      20.795   0.388  54.734  1.00  0.00     0.309 C 
ENDBRANCH  17  18
ENDBRANCH  16  17
ENDBRANCH  14  16
ENDBRANCH  13  14
ENDBRANCH  10  12
ENDBRANCH   8  10
ENDBRANCH   1   8
BRANCH   3  21
HETATM   21  N3  UNL     1      26.492   2.833  51.728  1.00  0.00    -0.343 N 
HETATM   22  H20 UNL     1      27.262   3.526  51.716  1.00  0.00     0.167 HD
BRANCH  21  23
HETATM   23  C13 UNL     1      26.626   1.514  52.223  1.00  0.00     0.034 A 
HETATM   24  C14 UNL     1      25.541   0.675  52.292  1.00  0.00     0.029 A 
HETATM   25  C15 UNL     1      25.782  -0.605  52.793  1.00  0.00     0.004 A 
HETATM   26  C16 UNL     1      27.042  -1.034  53.208  1.00  0.00     0.019 A 
HETATM   27  C17 UNL     1      28.106  -0.152  53.120  1.00  0.00     0.013 A 
HETATM   28 BR1  UNL     1      29.852  -0.706  53.681  1.00  0.00    -0.051 Br
HETATM   29  C18 UNL     1      27.908   1.127  52.627  1.00  0.00     0.048 A 
ENDBRANCH  21  23
ENDBRANCH   3  21
TORSDOF 9
ENDMDL
MODEL 6
REMARK VINA RESULT:      -6.7      3.298      7.854
REMARK  9 active torsions:
REMARK  status: ('A' for Active; 'I' for Inactive)
REMARK    1  A    between atoms: C2_2  and  C3_3 
REMARK    2  A    between atoms: C2_2  and  N2_12 
REMARK    3  A    between atoms: C4_4  and  C5_5 
REMARK    4  A    between atoms: C5_5  and  C6_7 
REMARK    5  A    between atoms: C6_7  and  C7_8 
REMARK    6  A    between atoms: C7_8  and  N1_9 
REMARK    7  A    between atoms: N2_12  and  C10_13 
REMARK    8  A    between atoms: C12_15  and  N3_16 
REMARK    9  A    between atoms: N3_16  and  C13_17 
ROOT
HETATM    1  C10 UNL     1      26.779   2.180  51.322  1.00  0.00     0.370 A 
HETATM    2  C11 UNL     1      25.836   1.127  51.817  1.00  0.00     0.080 A 
HETATM    3  C12 UNL     1      25.705   0.455  52.946  1.00  0.00     0.106 A 
HETATM    4  N4  UNL     1      26.686   0.818  53.905  1.00  0.00    -0.337 N 
HETATM    5  C19 UNL     1      27.611   1.814  53.493  1.00  0.00     0.205 A 
HETATM    6  N5  UNL     1      27.713   2.452  52.384  1.00  0.00    -0.245 NA
HETATM    7  H25 UNL     1      26.735   0.397  54.839  1.00  0.00     0.168 HD
ENDROOT
BRANCH   1   8
HETATM    8  N2  UNL     1      25.956   3.348  51.072  1.00  0.00     0.119 N 
HETATM    9  H17 UNL     1      26.385   4.195  51.503  1.00  0.00     0.320 HD
BRANCH   8  10
HETATM   10  C2  UNL     1      25.783   3.592  49.675  1.00  0.00     0.242 C 
HETATM   11  C1  UNL     1      24.326   3.225  49.326  1.00  0.00     0.047 C 
BRANCH  10  12
HETATM   12  C3  UNL     1      26.020   5.022  49.367  1.00  0.00     0.011 C 
HETATM   13  C4  UNL     1      25.276   5.974  49.960  1.00  0.00     0.048 C 
BRANCH  13  14
HETATM   14  C5  UNL     1      24.195   6.123  50.904  1.00  0.00     0.150 C 
HETATM   15  O1  UNL     1      23.859   5.785  52.069  1.00  0.00    -0.293 OA
BRANCH  14  16
HETATM   16  C6  UNL     1      22.918   6.850  50.762  1.00  0.00     0.113 C 
BRANCH  16  17
HETATM   17  C7  UNL     1      21.748   5.992  51.194  1.00  0.00     0.279 C 
BRANCH  17  18
HETATM   18  N1  UNL     1      20.711   6.110  50.218  1.00  0.00     0.080 N 
HETATM   19  C8  UNL     1      20.744   7.359  49.491  1.00  0.00     0.309 C 
HETATM   20  C9  UNL     1      20.540   4.969  49.376  1.00  0.00     0.309 C 
ENDBRANCH  17  18
ENDBRANCH  16  17
ENDBRANCH  14  16
ENDBRANCH  13  14
ENDBRANCH  10  12
ENDBRANCH   8  10
ENDBRANCH   1   8
BRANCH   3  21
HETATM   21  N3  UNL     1      24.723  -0.510  53.199  1.00  0.00    -0.343 N 
HETATM   22  H20 UNL     1      25.126  -1.454  53.053  1.00  0.00     0.167 HD
BRANCH  21  23
HETATM   23  C13 UNL     1      23.384  -0.275  53.591  1.00  0.00     0.034 A 
HETATM   24  C14 UNL     1      22.795  -1.036  54.571  1.00  0.00     0.029 A 
HETATM   25  C15 UNL     1      21.472  -0.720  54.884  1.00  0.00     0.004 A 
HETATM   26  C16 UNL     1      20.764   0.303  54.253  1.00  0.00     0.019 A 
HETATM   27  C17 UNL     1      21.401   1.041  53.271  1.00  0.00     0.013 A 
HETATM   28 BR1  UNL     1      20.461   2.455  52.382  1.00  0.00    -0.051 Br
HETATM   29  C18 UNL     1      22.714   0.761  52.932  1.00  0.00     0.048 A 
ENDBRANCH  21  23
ENDBRANCH   3  21
TORSDOF 9
ENDMDL
MODEL 7
REMARK VINA RESULT:      -6.7      4.769      8.680
REMARK  9 active torsions:
REMARK  status: ('A' for Active; 'I' for Inactive)
REMARK    1  A    between atoms: C2_2  and  C3_3 
REMARK    2  A    between atoms: C2_2  and  N2_12 
REMARK    3  A    between atoms: C4_4  and  C5_5 
REMARK    4  A    between atoms: C5_5  and  C6_7 
REMARK    5  A    between atoms: C6_7  and  C7_8 
REMARK    6  A    between atoms: C7_8  and  N1_9 
REMARK    7  A    between atoms: N2_12  and  C10_13 
REMARK    8  A    between atoms: C12_15  and  N3_16 
REMARK    9  A    between atoms: N3_16  and  C13_17 
ROOT
HETATM    1  C10 UNL     1      21.886  -0.135  52.117  1.00  0.00     0.370 A 
HETATM    2  C11 UNL     1      20.445  -0.269  52.503  1.00  0.00     0.080 A 
HETATM    3  C12 UNL     1      19.806  -0.800  53.529  1.00  0.00     0.106 A 
HETATM    4  N4  UNL     1      20.692  -1.374  54.477  1.00  0.00    -0.337 N 
HETATM    5  C19 UNL     1      22.073  -1.279  54.165  1.00  0.00     0.205 A 
HETATM    6  N5  UNL     1      22.668  -0.754  53.156  1.00  0.00    -0.245 NA
HETATM    7  H25 UNL     1      20.368  -1.832  55.337  1.00  0.00     0.168 HD
ENDROOT
BRANCH   1   8
HETATM    8  N2  UNL     1      22.145   1.291  52.081  1.00  0.00     0.119 N 
HETATM    9  H17 UNL     1      22.574   1.606  52.978  1.00  0.00     0.320 HD
BRANCH   8  10
HETATM   10  C2  UNL     1      23.022   1.650  51.012  1.00  0.00     0.242 C 
HETATM   11  C1  UNL     1      22.199   1.588  49.708  1.00  0.00     0.047 C 
BRANCH  10  12
HETATM   12  C3  UNL     1      23.538   3.026  51.206  1.00  0.00     0.011 C 
HETATM   13  C4  UNL     1      24.850   3.232  51.424  1.00  0.00     0.048 C 
BRANCH  13  14
HETATM   14  C5  UNL     1      26.090   2.506  51.556  1.00  0.00     0.150 C 
HETATM   15  O1  UNL     1      27.334   2.667  51.456  1.00  0.00    -0.293 OA
BRANCH  14  16
HETATM   16  C6  UNL     1      26.317   1.090  51.911  1.00  0.00     0.113 C 
BRANCH  16  17
HETATM   17  C7  UNL     1      27.501   0.942  52.841  1.00  0.00     0.279 C 
BRANCH  17  18
HETATM   18  N1  UNL     1      27.552  -0.409  53.302  1.00  0.00     0.080 N 
HETATM   19  C8  UNL     1      26.595  -1.277  52.651  1.00  0.00     0.309 C 
HETATM   20  C9  UNL     1      28.862  -0.972  53.383  1.00  0.00     0.309 C 
ENDBRANCH  17  18
ENDBRANCH  16  17
ENDBRANCH  14  16
ENDBRANCH  13  14
ENDBRANCH  10  12
ENDBRANCH   8  10
ENDBRANCH   1   8
BRANCH   3  21
HETATM   21  N3  UNL     1      18.415  -0.812  53.691  1.00  0.00    -0.343 N 
HETATM   22  H20 UNL     1      18.110   0.095  54.091  1.00  0.00     0.167 HD
BRANCH  21  23
HETATM   23  C13 UNL     1      17.533  -1.871  53.375  1.00  0.00     0.034 A 
HETATM   24  C14 UNL     1      17.770  -3.145  53.831  1.00  0.00     0.029 A 
HETATM   25  C15 UNL     1      16.837  -4.115  53.463  1.00  0.00     0.004 A 
HETATM   26  C16 UNL     1      15.720  -3.837  52.677  1.00  0.00     0.019 A 
HETATM   27  C17 UNL     1      15.524  -2.538  52.239  1.00  0.00     0.013 A 
HETATM   28 BR1  UNL     1      14.000  -2.117  51.156  1.00  0.00    -0.051 Br
HETATM   29  C18 UNL     1      16.426  -1.545  52.583  1.00  0.00     0.048 A 
ENDBRANCH  21  23
ENDBRANCH   3  21
TORSDOF 9
ENDMDL
MODEL 8
REMARK VINA RESULT:      -6.6      2.651      5.825
REMARK  9 active torsions:
REMARK  status: ('A' for Active; 'I' for Inactive)
REMARK    1  A    between atoms: C2_2  and  C3_3 
REMARK    2  A    between atoms: C2_2  and  N2_12 
REMARK    3  A    between atoms: C4_4  and  C5_5 
REMARK    4  A    between atoms: C5_5  and  C6_7 
REMARK    5  A    between atoms: C6_7  and  C7_8 
REMARK    6  A    between atoms: C7_8  and  N1_9 
REMARK    7  A    between atoms: N2_12  and  C10_13 
REMARK    8  A    between atoms: C12_15  and  N3_16 
REMARK    9  A    between atoms: N3_16  and  C13_17 
ROOT
HETATM    1  C10 UNL     1      21.338   1.091  53.359  1.00  0.00     0.370 A 
HETATM    2  C11 UNL     1      22.715   0.606  53.026  1.00  0.00     0.080 A 
HETATM    3  C12 UNL     1      23.490  -0.364  53.475  1.00  0.00     0.106 A 
HETATM    4  N4  UNL     1      22.872  -1.113  54.509  1.00  0.00    -0.337 N 
HETATM    5  C19 UNL     1      21.562  -0.699  54.870  1.00  0.00     0.205 A 
HETATM    6  N5  UNL     1      20.831   0.251  54.413  1.00  0.00    -0.245 NA
HETATM    7  H25 UNL     1      23.329  -1.905  54.975  1.00  0.00     0.168 HD
ENDROOT
BRANCH   1   8
HETATM    8  N2  UNL     1      20.559   0.899  52.151  1.00  0.00     0.119 N 
HETATM    9  H17 UNL     1      19.556   1.130  52.323  1.00  0.00     0.320 HD
BRANCH   8  10
HETATM   10  C2  UNL     1      21.029   1.712  51.074  1.00  0.00     0.242 C 
HETATM   11  C1  UNL     1      20.731   0.951  49.766  1.00  0.00     0.047 C 
BRANCH  10  12
HETATM   12  C3  UNL     1      20.321   3.013  51.062  1.00  0.00     0.011 C 
HETATM   13  C4  UNL     1      20.982   4.146  51.363  1.00  0.00     0.048 C 
BRANCH  13  14
HETATM   14  C5  UNL     1      22.295   4.609  51.742  1.00  0.00     0.150 C 
HETATM   15  O1  UNL     1      22.967   4.923  52.758  1.00  0.00    -0.293 OA
BRANCH  14  16
HETATM   16  C6  UNL     1      23.465   4.911  50.893  1.00  0.00     0.113 C 
BRANCH  16  17
HETATM   17  C7  UNL     1      24.418   3.737  50.836  1.00  0.00     0.279 C 
BRANCH  17  18
HETATM   18  N1  UNL     1      25.686   4.201  50.371  1.00  0.00     0.080 N 
HETATM   19  C8  UNL     1      26.406   3.222  49.587  1.00  0.00     0.309 C 
HETATM   20  C9  UNL     1      25.676   5.501  49.781  1.00  0.00     0.309 C 
ENDBRANCH  17  18
ENDBRANCH  16  17
ENDBRANCH  14  16
ENDBRANCH  13  14
ENDBRANCH  10  12
ENDBRANCH   8  10
ENDBRANCH   1   8
BRANCH   3  21
HETATM   21  N3  UNL     1      24.779  -0.647  53.006  1.00  0.00    -0.343 N 
HETATM   22  H20 UNL     1      24.758  -1.526  52.457  1.00  0.00     0.167 HD
BRANCH  21  23
HETATM   23  C13 UNL     1      25.948   0.119  53.224  1.00  0.00     0.034 A 
HETATM   24  C14 UNL     1      25.879   1.484  53.362  1.00  0.00     0.029 A 
HETATM   25  C15 UNL     1      27.091   2.143  53.577  1.00  0.00     0.004 A 
HETATM   26  C16 UNL     1      28.315   1.481  53.650  1.00  0.00     0.019 A 
HETATM   27  C17 UNL     1      28.334   0.104  53.504  1.00  0.00     0.013 A 
HETATM   28 BR1  UNL     1      29.998  -0.842  53.598  1.00  0.00    -0.051 Br
HETATM   29  C18 UNL     1      27.153  -0.588  53.291  1.00  0.00     0.048 A 
ENDBRANCH  21  23
ENDBRANCH   3  21
TORSDOF 9
ENDMDL
MODEL 9
REMARK VINA RESULT:      -6.6      1.957      2.588
REMARK  9 active torsions:
REMARK  status: ('A' for Active; 'I' for Inactive)
REMARK    1  A    between atoms: C2_2  and  C3_3 
REMARK    2  A    between atoms: C2_2  and  N2_12 
REMARK    3  A    between atoms: C4_4  and  C5_5 
REMARK    4  A    between atoms: C5_5  and  C6_7 
REMARK    5  A    between atoms: C6_7  and  C7_8 
REMARK    6  A    between atoms: C7_8  and  N1_9 
REMARK    7  A    between atoms: N2_12  and  C10_13 
REMARK    8  A    between atoms: C12_15  and  N3_16 
REMARK    9  A    between atoms: N3_16  and  C13_17 
ROOT
HETATM    1  C10 UNL     1      20.634   1.149  51.587  1.00  0.00     0.370 A 
HETATM    2  C11 UNL     1      21.644   1.540  50.553  1.00  0.00     0.080 A 
HETATM    3  C12 UNL     1      22.420   2.592  50.365  1.00  0.00     0.106 A 
HETATM    4  N4  UNL     1      22.253   3.572  51.377  1.00  0.00    -0.337 N 
HETATM    5  C19 UNL     1      21.306   3.257  52.388  1.00  0.00     0.205 A 
HETATM    6  N5  UNL     1      20.564   2.223  52.545  1.00  0.00    -0.245 NA
HETATM    7  H25 UNL     1      22.776   4.455  51.391  1.00  0.00     0.168 HD
ENDROOT
BRANCH   1   8
HETATM    8  N2  UNL     1      21.166  -0.045  52.214  1.00  0.00     0.119 N 
HETATM    9  H17 UNL     1      22.203   0.024  52.307  1.00  0.00     0.320 HD
BRANCH   8  10
HETATM   10  C2  UNL     1      20.610  -0.262  53.512  1.00  0.00     0.242 C 
HETATM   11  C1  UNL     1      19.200  -0.854  53.309  1.00  0.00     0.047 C 
BRANCH  10  12
HETATM   12  C3  UNL     1      21.443  -1.220  54.278  1.00  0.00     0.011 C 
HETATM   13  C4  UNL     1      22.782  -1.084  54.301  1.00  0.00     0.048 C 
BRANCH  13  14
HETATM   14  C5  UNL     1      23.830  -0.237  53.783  1.00  0.00     0.150 C 
HETATM   15  O1  UNL     1      24.013   0.715  52.981  1.00  0.00    -0.293 OA
BRANCH  14  16
HETATM   16  C6  UNL     1      25.273  -0.232  54.096  1.00  0.00     0.113 C 
BRANCH  16  17
HETATM   17  C7  UNL     1      26.107  -0.304  52.836  1.00  0.00     0.279 C 
BRANCH  17  18
HETATM   18  N1  UNL     1      27.363   0.331  53.083  1.00  0.00     0.080 N 
HETATM   19  C8  UNL     1      27.412   1.704  52.631  1.00  0.00     0.309 C 
HETATM   20  C9  UNL     1      27.884   0.151  54.400  1.00  0.00     0.309 C 
ENDBRANCH  17  18
ENDBRANCH  16  17
ENDBRANCH  14  16
ENDBRANCH  13  14
ENDBRANCH  10  12
ENDBRANCH   8  10
ENDBRANCH   1   8
BRANCH   3  21
HETATM   21  N3  UNL     1      23.314   2.752  49.300  1.00  0.00    -0.343 N 
HETATM   22  H20 UNL     1      23.094   2.059  48.561  1.00  0.00     0.167 HD
BRANCH  21  23
HETATM   23  C13 UNL     1      24.364   3.696  49.208  1.00  0.00     0.034 A 
HETATM   24  C14 UNL     1      25.651   3.351  49.541  1.00  0.00     0.029 A 
HETATM   25  C15 UNL     1      26.611   4.356  49.413  1.00  0.00     0.004 A 
HETATM   26  C16 UNL     1      26.310   5.645  48.976  1.00  0.00     0.019 A 
HETATM   27  C17 UNL     1      24.997   5.946  48.653  1.00  0.00     0.013 A 
HETATM   28 BR1  UNL     1      24.544   7.707  48.048  1.00  0.00    -0.051 Br
HETATM   29  C18 UNL     1      24.015   4.977  48.765  1.00  0.00     0.048 A 
ENDBRANCH  21  23
ENDBRANCH   3  21
TORSDOF 9
ENDMDL
