MODEL 1
REMARK VINA RESULT:      -8.1      0.000      0.000
REMARK  2 active torsions:
REMARK  status: ('A' for Active; 'I' for Inactive)
REMARK    1  A    between atoms: N2_14  and  C11_15 
REMARK    2  A    between atoms: C11_15  and  P2_16 
ROOT
HETATM    1  O1  UNL     1      21.239   7.730  51.172  1.00  0.00    -0.172 OA
HETATM    2  C1  UNL     1      22.174   7.085  50.515  1.00  0.00     0.186 C 
HETATM    3  N1  UNL     1      23.116   8.137  50.337  1.00  0.00    -0.364 N 
HETATM    4  C2  UNL     1      24.389   7.391  50.213  1.00  0.00     0.161 C 
HETATM    5  C3  UNL     1      23.907   6.256  49.417  1.00  0.00    -0.026 C 
HETATM    6  C4  UNL     1      24.705   5.991  48.410  1.00  0.00     0.007 C 
HETATM    7  C5  UNL     1      25.789   6.959  48.446  1.00  0.00     0.028 C 
HETATM    8  C6  UNL     1      27.031   7.068  48.825  1.00  0.00     0.013 C 
HETATM    9  P1  UNL     1      27.864   5.728  48.417  1.00  0.00    -0.051 P 
HETATM   10  C7  UNL     1      27.138   4.248  49.267  1.00  0.00     0.012 C 
HETATM   11  C8  UNL     1      26.444   3.172  49.554  1.00  0.00     0.002 C 
HETATM   12  C9  UNL     1      26.464   2.376  50.805  1.00  0.00     0.017 C 
HETATM   13  C10 UNL     1      27.041   2.380  51.948  1.00  0.00     0.086 C 
HETATM   14  N2  UNL     1      26.733   1.376  52.833  1.00  0.00    -0.384 N 
HETATM   15  C12 UNL     1      25.863   0.557  53.619  1.00  0.00     0.149 C 
HETATM   16  C13 UNL     1      24.399   1.037  53.606  1.00  0.00     0.189 C 
HETATM   17  O2  UNL     1      24.117   1.108  52.314  1.00  0.00    -0.371 OA
HETATM   18  C14 UNL     1      23.006   1.289  51.681  1.00  0.00     0.290 C 
HETATM   19  N3  UNL     1      22.056   2.321  51.952  1.00  0.00    -0.368 N 
HETATM   20  C15 UNL     1      21.176   2.536  50.807  1.00  0.00     0.040 A 
HETATM   21  C16 UNL     1      20.469   1.418  50.481  1.00  0.00     0.030 A 
HETATM   22  C17 UNL     1      19.659   1.376  49.374  1.00  0.00     0.002 A 
HETATM   23  C18 UNL     1      19.466   2.398  48.499  1.00  0.00     0.001 A 
HETATM   24  C19 UNL     1      20.225   3.522  48.902  1.00  0.00     0.014 A 
HETATM   25  C20 UNL     1      21.099   3.688  50.032  1.00  0.00    -0.009 A 
HETATM   26  C21 UNL     1      21.649   5.000  50.157  1.00  0.00     0.030 C 
HETATM   27  C22 UNL     1      22.650   5.766  49.896  1.00  0.00     0.026 C 
HETATM   28  H1  UNL     1      23.167   9.201  50.245  1.00  0.00     0.162 HD
HETATM   29  H20 UNL     1      21.496   3.065  52.399  1.00  0.00     0.161 HD
ENDROOT
BRANCH  14  30
HETATM   30  C11 UNL     1      28.125   0.973  52.924  1.00  0.00     0.150 C 
BRANCH  30  31
HETATM   31  P2  UNL     1      28.565   0.221  54.558  1.00  0.00    -0.122 P 
HETATM   32  H12 UNL     1      29.142  -1.108  54.291  1.00  0.00     0.056 HD
HETATM   33  H13 UNL     1      29.679   1.016  55.109  1.00  0.00     0.056 HD
ENDBRANCH  30  31
ENDBRANCH  14  30
TORSDOF 2
ENDMDL
MODEL 2
REMARK VINA RESULT:      -7.9      4.638      6.876
REMARK  2 active torsions:
REMARK  status: ('A' for Active; 'I' for Inactive)
REMARK    1  A    between atoms: N2_14  and  C11_15 
REMARK    2  A    between atoms: C11_15  and  P2_16 
ROOT
HETATM    1  O1  UNL     1      14.622   2.552  53.075  1.00  0.00    -0.172 OA
HETATM    2  C1  UNL     1      15.490   2.233  52.144  1.00  0.00     0.186 C 
HETATM    3  N1  UNL     1      15.530   3.457  51.420  1.00  0.00    -0.364 N 
HETATM    4  C2  UNL     1      16.880   3.409  50.811  1.00  0.00     0.161 C 
HETATM    5  C3  UNL     1      16.924   1.980  50.478  1.00  0.00    -0.026 C 
HETATM    6  C4  UNL     1      17.359   1.775  49.258  1.00  0.00     0.007 C 
HETATM    7  C5  UNL     1      17.623   3.077  48.665  1.00  0.00     0.028 C 
HETATM    8  C6  UNL     1      18.612   3.884  48.407  1.00  0.00     0.013 C 
HETATM    9  P1  UNL     1      19.885   3.048  47.828  1.00  0.00    -0.051 P 
HETATM   10  C7  UNL     1      20.468   1.825  49.093  1.00  0.00     0.012 C 
HETATM   11  C8  UNL     1      20.661   0.736  49.801  1.00  0.00     0.002 C 
HETATM   12  C9  UNL     1      21.533   0.558  50.987  1.00  0.00     0.017 C 
HETATM   13  C10 UNL     1      22.325   1.247  51.720  1.00  0.00     0.086 C 
HETATM   14  N2  UNL     1      22.957   0.615  52.763  1.00  0.00    -0.384 N 
HETATM   15  C12 UNL     1      23.027  -0.167  53.958  1.00  0.00     0.149 C 
HETATM   16  C13 UNL     1      21.645  -0.472  54.569  1.00  0.00     0.189 C 
HETATM   17  O2  UNL     1      20.984  -1.016  53.559  1.00  0.00    -0.371 OA
HETATM   18  C14 UNL     1      19.845  -1.621  53.497  1.00  0.00     0.290 C 
HETATM   19  N3  UNL     1      18.619  -1.138  54.049  1.00  0.00    -0.368 N 
HETATM   20  C15 UNL     1      17.471  -1.792  53.428  1.00  0.00     0.040 A 
HETATM   21  C16 UNL     1      17.485  -3.143  53.609  1.00  0.00     0.030 A 
HETATM   22  C17 UNL     1      16.552  -3.958  53.021  1.00  0.00     0.002 A 
HETATM   23  C18 UNL     1      15.538  -3.543  52.217  1.00  0.00     0.001 A 
HETATM   24  C19 UNL     1      15.583  -2.136  52.078  1.00  0.00     0.014 A 
HETATM   25  C20 UNL     1      16.500  -1.182  52.642  1.00  0.00    -0.009 A 
HETATM   26  C21 UNL     1      16.192   0.177  52.333  1.00  0.00     0.030 C 
HETATM   27  C22 UNL     1      16.417   1.170  51.544  1.00  0.00     0.026 C 
HETATM   28  H1  UNL     1      14.924   4.304  51.184  1.00  0.00     0.162 HD
HETATM   29  H20 UNL     1      17.909  -0.639  54.609  1.00  0.00     0.161 HD
ENDROOT
BRANCH  14  30
HETATM   30  C11 UNL     1      24.264   0.977  52.246  1.00  0.00     0.150 C 
BRANCH  30  31
HETATM   31  P2  UNL     1      25.646   0.001  52.998  1.00  0.00    -0.122 P 
HETATM   32  H12 UNL     1      26.220   0.815  54.084  1.00  0.00     0.056 HD
HETATM   33  H13 UNL     1      25.033  -1.158  53.675  1.00  0.00     0.056 HD
ENDBRANCH  30  31
ENDBRANCH  14  30
TORSDOF 2
ENDMDL
MODEL 3
REMARK VINA RESULT:      -7.8      3.638      6.263
REMARK  2 active torsions:
REMARK  status: ('A' for Active; 'I' for Inactive)
REMARK    1  A    between atoms: N2_14  and  C11_15 
REMARK    2  A    between atoms: C11_15  and  P2_16 
ROOT
HETATM    1  O1  UNL     1      21.858   3.647  44.975  1.00  0.00    -0.172 OA
HETATM    2  C1  UNL     1      21.270   3.978  46.101  1.00  0.00     0.186 C 
HETATM    3  N1  UNL     1      19.925   3.641  45.781  1.00  0.00    -0.364 N 
HETATM    4  C2  UNL     1      19.350   3.369  47.118  1.00  0.00     0.161 C 
HETATM    5  C3  UNL     1      20.025   4.432  47.872  1.00  0.00    -0.026 C 
HETATM    6  C4  UNL     1      19.193   5.084  48.649  1.00  0.00     0.007 C 
HETATM    7  C5  UNL     1      17.872   4.509  48.453  1.00  0.00     0.028 C 
HETATM    8  C6  UNL     1      17.043   3.674  49.014  1.00  0.00     0.013 C 
HETATM    9  P1  UNL     1      17.012   3.908  50.626  1.00  0.00    -0.051 P 
HETATM   10  C7  UNL     1      18.695   3.604  51.343  1.00  0.00     0.012 C 
HETATM   11  C8  UNL     1      19.914   3.750  51.808  1.00  0.00     0.002 C 
HETATM   12  C9  UNL     1      20.824   2.705  52.333  1.00  0.00     0.017 C 
HETATM   13  C10 UNL     1      20.839   1.439  52.523  1.00  0.00     0.086 C 
HETATM   14  N2  UNL     1      21.965   0.880  53.078  1.00  0.00    -0.384 N 
HETATM   15  C12 UNL     1      23.364   0.602  53.178  1.00  0.00     0.149 C 
HETATM   16  C13 UNL     1      24.174   1.108  51.968  1.00  0.00     0.189 C 
HETATM   17  O2  UNL     1      23.841   2.388  51.898  1.00  0.00    -0.371 OA
HETATM   18  C14 UNL     1      24.315   3.367  51.201  1.00  0.00     0.290 C 
HETATM   19  N3  UNL     1      24.550   3.343  49.791  1.00  0.00    -0.368 N 
HETATM   20  C15 UNL     1      24.635   4.697  49.253  1.00  0.00     0.040 A 
HETATM   21  C16 UNL     1      25.648   5.415  49.814  1.00  0.00     0.030 A 
HETATM   22  C17 UNL     1      25.839   6.742  49.522  1.00  0.00     0.002 A 
HETATM   23  C18 UNL     1      25.077   7.479  48.673  1.00  0.00     0.001 A 
HETATM   24  C19 UNL     1      24.052   6.671  48.126  1.00  0.00     0.014 A 
HETATM   25  C20 UNL     1      23.755   5.283  48.349  1.00  0.00    -0.009 A 
HETATM   26  C21 UNL     1      22.672   4.783  47.564  1.00  0.00     0.030 C 
HETATM   27  C22 UNL     1      21.409   4.538  47.521  1.00  0.00     0.026 C 
HETATM   28  H1  UNL     1      19.264   3.563  44.945  1.00  0.00     0.162 HD
HETATM   29  H20 UNL     1      24.724   3.048  48.817  1.00  0.00     0.161 HD
ENDROOT
BRANCH  14  30
HETATM   30  C11 UNL     1      21.197   0.320  54.175  1.00  0.00     0.150 C 
BRANCH  30  31
HETATM   31  P2  UNL     1      21.636  -1.439  54.554  1.00  0.00    -0.122 P 
HETATM   32  H12 UNL     1      21.727  -1.564  56.019  1.00  0.00     0.056 HD
HETATM   33  H13 UNL     1      20.473  -2.262  54.174  1.00  0.00     0.056 HD
ENDBRANCH  30  31
ENDBRANCH  14  30
TORSDOF 2
ENDMDL
MODEL 4
REMARK VINA RESULT:      -7.5      3.709      6.039
REMARK  2 active torsions:
REMARK  status: ('A' for Active; 'I' for Inactive)
REMARK    1  A    between atoms: N2_14  and  C11_15 
REMARK    2  A    between atoms: C11_15  and  P2_16 
ROOT
HETATM    1  O1  UNL     1      22.972   7.606  50.832  1.00  0.00    -0.172 OA
HETATM    2  C1  UNL     1      23.164   6.307  50.818  1.00  0.00     0.186 C 
HETATM    3  N1  UNL     1      23.967   6.168  51.984  1.00  0.00    -0.364 N 
HETATM    4  C2  UNL     1      23.684   4.770  52.386  1.00  0.00     0.161 C 
HETATM    5  C3  UNL     1      23.639   4.159  51.052  1.00  0.00    -0.026 C 
HETATM    6  C4  UNL     1      24.329   3.045  51.002  1.00  0.00     0.007 C 
HETATM    7  C5  UNL     1      24.918   2.836  52.315  1.00  0.00     0.028 C 
HETATM    8  C6  UNL     1      24.729   2.148  53.405  1.00  0.00     0.013 C 
HETATM    9  P1  UNL     1      24.306   0.617  53.038  1.00  0.00    -0.051 P 
HETATM   10  C7  UNL     1      22.718   0.611  52.082  1.00  0.00     0.012 C 
HETATM   11  C8  UNL     1      21.823   0.600  51.122  1.00  0.00     0.002 C 
HETATM   12  C9  UNL     1      20.346   0.604  51.247  1.00  0.00     0.017 C 
HETATM   13  C10 UNL     1      19.451   0.626  52.162  1.00  0.00     0.086 C 
HETATM   14  N2  UNL     1      18.132   0.606  51.778  1.00  0.00    -0.384 N 
HETATM   15  C12 UNL     1      16.977   1.061  51.067  1.00  0.00     0.149 C 
HETATM   16  C13 UNL     1      17.207   2.390  50.321  1.00  0.00     0.189 C 
HETATM   17  O2  UNL     1      18.279   2.141  49.586  1.00  0.00    -0.371 OA
HETATM   18  C14 UNL     1      18.849   2.805  48.636  1.00  0.00     0.290 C 
HETATM   19  N3  UNL     1      19.196   4.190  48.685  1.00  0.00    -0.368 N 
HETATM   20  C15 UNL     1      20.209   4.512  47.685  1.00  0.00     0.040 A 
HETATM   21  C16 UNL     1      19.784   4.252  46.416  1.00  0.00     0.030 A 
HETATM   22  C17 UNL     1      20.619   4.389  45.335  1.00  0.00     0.002 A 
HETATM   23  C18 UNL     1      21.918   4.784  45.388  1.00  0.00     0.001 A 
HETATM   24  C19 UNL     1      22.286   5.040  46.729  1.00  0.00     0.014 A 
HETATM   25  C20 UNL     1      21.509   4.937  47.935  1.00  0.00    -0.009 A 
HETATM   26  C21 UNL     1      22.203   5.345  49.114  1.00  0.00     0.030 C 
HETATM   27  C22 UNL     1      22.908   4.966  50.122  1.00  0.00     0.026 C 
HETATM   28  H1  UNL     1      24.669   6.710  52.581  1.00  0.00     0.162 HD
HETATM   29  H20 UNL     1      19.248   5.194  48.921  1.00  0.00     0.161 HD
ENDROOT
BRANCH  14  30
HETATM   30  C11 UNL     1      17.881  -0.596  52.553  1.00  0.00     0.150 C 
BRANCH  30  31
HETATM   31  P2  UNL     1      16.170  -1.268  52.332  1.00  0.00    -0.122 P 
HETATM   32  H12 UNL     1      15.783  -1.913  53.599  1.00  0.00     0.056 HD
HETATM   33  H13 UNL     1      15.268  -0.107  52.206  1.00  0.00     0.056 HD
ENDBRANCH  30  31
ENDBRANCH  14  30
TORSDOF 2
ENDMDL
MODEL 5
REMARK VINA RESULT:      -7.4      3.194      5.218
REMARK  2 active torsions:
REMARK  status: ('A' for Active; 'I' for Inactive)
REMARK    1  A    between atoms: N2_14  and  C11_15 
REMARK    2  A    between atoms: C11_15  and  P2_16 
ROOT
HETATM    1  O1  UNL     1      16.803   4.498  52.354  1.00  0.00    -0.172 OA
HETATM    2  C1  UNL     1      17.486   3.991  51.354  1.00  0.00     0.186 C 
HETATM    3  N1  UNL     1      17.220   4.972  50.357  1.00  0.00    -0.364 N 
HETATM    4  C2  UNL     1      18.405   4.843  49.477  1.00  0.00     0.161 C 
HETATM    5  C3  UNL     1      18.553   3.383  49.514  1.00  0.00    -0.026 C 
HETATM    6  C4  UNL     1      18.741   2.881  48.317  1.00  0.00     0.007 C 
HETATM    7  C5  UNL     1      18.710   3.985  47.370  1.00  0.00     0.028 C 
HETATM    8  C6  UNL     1      19.514   4.751  46.690  1.00  0.00     0.013 C 
HETATM    9  P1  UNL     1      20.729   3.870  46.054  1.00  0.00    -0.051 P 
HETATM   10  C7  UNL     1      21.713   3.077  47.411  1.00  0.00     0.012 C 
HETATM   11  C8  UNL     1      22.185   2.237  48.303  1.00  0.00     0.002 C 
HETATM   12  C9  UNL     1      23.304   2.444  49.253  1.00  0.00     0.017 C 
HETATM   13  C10 UNL     1      24.143   3.354  49.579  1.00  0.00     0.086 C 
HETATM   14  N2  UNL     1      25.055   3.072  50.566  1.00  0.00    -0.384 N 
HETATM   15  C12 UNL     1      25.474   2.651  51.868  1.00  0.00     0.149 C 
HETATM   16  C13 UNL     1      24.301   2.439  52.846  1.00  0.00     0.189 C 
HETATM   17  O2  UNL     1      23.513   1.600  52.192  1.00  0.00    -0.371 OA
HETATM   18  C14 UNL     1      22.470   0.931  52.557  1.00  0.00     0.290 C 
HETATM   19  N3  UNL     1      21.339   1.470  53.245  1.00  0.00    -0.368 N 
HETATM   20  C15 UNL     1      20.175   0.601  53.099  1.00  0.00     0.040 A 
HETATM   21  C16 UNL     1      20.394  -0.645  53.605  1.00  0.00     0.030 A 
HETATM   22  C17 UNL     1      19.464  -1.647  53.480  1.00  0.00     0.002 A 
HETATM   23  C18 UNL     1      18.259  -1.530  52.862  1.00  0.00     0.001 A 
HETATM   24  C19 UNL     1      18.101  -0.215  52.368  1.00  0.00     0.014 A 
HETATM   25  C20 UNL     1      18.991   0.911  52.439  1.00  0.00    -0.009 A 
HETATM   26  C21 UNL     1      18.460   2.113  51.881  1.00  0.00     0.030 C 
HETATM   27  C22 UNL     1      18.388   2.865  50.838  1.00  0.00     0.026 C 
HETATM   28  H1  UNL     1      16.478   5.683  50.067  1.00  0.00     0.162 HD
HETATM   29  H20 UNL     1      20.708   2.058  53.814  1.00  0.00     0.161 HD
ENDROOT
BRANCH  14  30
HETATM   30  C11 UNL     1      26.168   3.359  49.679  1.00  0.00     0.150 C 
BRANCH  30  31
HETATM   31  P2  UNL     1      26.270   5.141  49.186  1.00  0.00    -0.122 P 
HETATM   32  H12 UNL     1      27.091   5.832  50.195  1.00  0.00     0.056 HD
HETATM   33  H13 UNL     1      27.066   5.196  47.945  1.00  0.00     0.056 HD
ENDBRANCH  30  31
ENDBRANCH  14  30
TORSDOF 2
ENDMDL
MODEL 6
REMARK VINA RESULT:      -7.4      2.684      5.836
REMARK  2 active torsions:
REMARK  status: ('A' for Active; 'I' for Inactive)
REMARK    1  A    between atoms: N2_14  and  C11_15 
REMARK    2  A    between atoms: C11_15  and  P2_16 
ROOT
HETATM    1  O1  UNL     1      19.667   3.476  46.947  1.00  0.00    -0.172 OA
HETATM    2  C1  UNL     1      19.779   3.204  48.226  1.00  0.00     0.186 C 
HETATM    3  N1  UNL     1      18.913   2.078  48.311  1.00  0.00    -0.364 N 
HETATM    4  C2  UNL     1      19.465   1.355  49.481  1.00  0.00     0.161 C 
HETATM    5  C3  UNL     1      19.786   2.510  50.327  1.00  0.00    -0.026 C 
HETATM    6  C4  UNL     1      19.377   2.341  51.562  1.00  0.00     0.007 C 
HETATM    7  C5  UNL     1      18.720   1.045  51.630  1.00  0.00     0.028 C 
HETATM    8  C6  UNL     1      18.948  -0.181  52.007  1.00  0.00     0.013 C 
HETATM    9  P1  UNL     1      19.744  -0.194  53.429  1.00  0.00    -0.051 P 
HETATM   10  C7  UNL     1      21.381   0.656  53.245  1.00  0.00     0.012 C 
HETATM   11  C8  UNL     1      22.349   1.543  53.236  1.00  0.00     0.002 C 
HETATM   12  C9  UNL     1      23.766   1.349  52.844  1.00  0.00     0.017 C 
HETATM   13  C10 UNL     1      24.533   0.420  52.412  1.00  0.00     0.086 C 
HETATM   14  N2  UNL     1      25.854   0.722  52.187  1.00  0.00    -0.384 N 
HETATM   15  C12 UNL     1      26.941   1.461  51.622  1.00  0.00     0.149 C 
HETATM   16  C13 UNL     1      26.492   2.500  50.576  1.00  0.00     0.189 C 
HETATM   17  O2  UNL     1      25.586   3.211  51.228  1.00  0.00    -0.371 OA
HETATM   18  C14 UNL     1      24.980   4.315  50.938  1.00  0.00     0.290 C 
HETATM   19  N3  UNL     1      24.323   4.599  49.702  1.00  0.00    -0.368 N 
HETATM   20  C15 UNL     1      23.372   5.695  49.855  1.00  0.00     0.040 A 
HETATM   21  C16 UNL     1      23.973   6.849  50.262  1.00  0.00     0.030 A 
HETATM   22  C17 UNL     1      23.245   7.973  50.563  1.00  0.00     0.002 A 
HETATM   23  C18 UNL     1      21.892   8.076  50.497  1.00  0.00     0.001 A 
HETATM   24  C19 UNL     1      21.339   6.848  50.065  1.00  0.00     0.014 A 
HETATM   25  C20 UNL     1      21.990   5.614  49.720  1.00  0.00    -0.009 A 
HETATM   26  C21 UNL     1      21.104   4.595  49.257  1.00  0.00     0.030 C 
HETATM   27  C22 UNL     1      20.404   3.562  49.578  1.00  0.00     0.026 C 
HETATM   28  H1  UNL     1      18.049   1.656  47.846  1.00  0.00     0.162 HD
HETATM   29  H20 UNL     1      24.019   4.601  48.715  1.00  0.00     0.161 HD
ENDROOT
BRANCH  14  30
HETATM   30  C11 UNL     1      26.291  -0.317  53.101  1.00  0.00     0.150 C 
BRANCH  30  31
HETATM   31  P2  UNL     1      27.631   0.236  54.253  1.00  0.00    -0.122 P 
HETATM   32  H12 UNL     1      27.709   1.704  54.167  1.00  0.00     0.056 HD
HETATM   33  H13 UNL     1      27.159  -0.040  55.623  1.00  0.00     0.056 HD
ENDBRANCH  30  31
ENDBRANCH  14  30
TORSDOF 2
ENDMDL
MODEL 7
REMARK VINA RESULT:      -7.2      6.181      8.687
REMARK  2 active torsions:
REMARK  status: ('A' for Active; 'I' for Inactive)
REMARK    1  A    between atoms: N2_14  and  C11_15 
REMARK    2  A    between atoms: C11_15  and  P2_16 
ROOT
HETATM    1  O1  UNL     1      28.316  12.589  49.328  1.00  0.00    -0.172 OA
HETATM    2  C1  UNL     1      28.652  12.007  48.201  1.00  0.00     0.186 C 
HETATM    3  N1  UNL     1      29.438  13.040  47.619  1.00  0.00    -0.364 N 
HETATM    4  C2  UNL     1      30.339  12.275  46.726  1.00  0.00     0.161 C 
HETATM    5  C3  UNL     1      29.379  11.275  46.244  1.00  0.00    -0.026 C 
HETATM    6  C4  UNL     1      29.447  11.120  44.943  1.00  0.00     0.007 C 
HETATM    7  C5  UNL     1      30.461  12.037  44.447  1.00  0.00     0.028 C 
HETATM    8  C6  UNL     1      31.706  12.051  44.064  1.00  0.00     0.013 C 
HETATM    9  P1  UNL     1      32.024  10.750  43.134  1.00  0.00    -0.051 P 
HETATM   10  C7  UNL     1      31.746   9.196  44.105  1.00  0.00     0.012 C 
HETATM   11  C8  UNL     1      31.222   8.115  44.635  1.00  0.00     0.002 C 
HETATM   12  C9  UNL     1      31.853   7.157  45.575  1.00  0.00     0.017 C 
HETATM   13  C10 UNL     1      32.966   6.987  46.184  1.00  0.00     0.086 C 
HETATM   14  N2  UNL     1      33.102   5.884  46.990  1.00  0.00    -0.384 N 
HETATM   15  C12 UNL     1      32.738   4.997  48.052  1.00  0.00     0.149 C 
HETATM   16  C13 UNL     1      31.576   5.524  48.915  1.00  0.00     0.189 C 
HETATM   17  O2  UNL     1      30.631   5.778  48.024  1.00  0.00    -0.371 OA
HETATM   18  C14 UNL     1      29.381   6.081  48.151  1.00  0.00     0.290 C 
HETATM   19  N3  UNL     1      28.858   7.099  49.007  1.00  0.00    -0.368 N 
HETATM   20  C15 UNL     1      27.518   7.497  48.587  1.00  0.00     0.040 A 
HETATM   21  C16 UNL     1      26.637   6.458  48.618  1.00  0.00     0.030 A 
HETATM   22  C17 UNL     1      25.348   6.593  48.166  1.00  0.00     0.002 A 
HETATM   23  C18 UNL     1      24.808   7.730  47.653  1.00  0.00     0.001 A 
HETATM   24  C19 UNL     1      25.775   8.762  47.657  1.00  0.00     0.014 A 
HETATM   25  C20 UNL     1      27.142   8.745  48.102  1.00  0.00    -0.009 A 
HETATM   26  C21 UNL     1      27.802  10.008  48.014  1.00  0.00     0.030 C 
HETATM   27  C22 UNL     1      28.561  10.768  47.303  1.00  0.00     0.026 C 
HETATM   28  H1  UNL     1      29.540  14.104  47.612  1.00  0.00     0.162 HD
HETATM   29  H20 UNL     1      28.725   7.795  49.758  1.00  0.00     0.161 HD
ENDROOT
BRANCH  14  30
HETATM   30  C11 UNL     1      34.257   5.425  46.239  1.00  0.00     0.150 C 
BRANCH  30  31
HETATM   31  P2  UNL     1      34.516   3.595  46.340  1.00  0.00    -0.122 P 
HETATM   32  H12 UNL     1      35.608   3.357  47.301  1.00  0.00     0.056 HD
HETATM   33  H13 UNL     1      33.316   3.026  46.981  1.00  0.00     0.056 HD
ENDBRANCH  30  31
ENDBRANCH  14  30
TORSDOF 2
ENDMDL
MODEL 8
REMARK VINA RESULT:      -7.1      3.320      6.228
REMARK  2 active torsions:
REMARK  status: ('A' for Active; 'I' for Inactive)
REMARK    1  A    between atoms: N2_14  and  C11_15 
REMARK    2  A    between atoms: C11_15  and  P2_16 
ROOT
HETATM    1  O1  UNL     1      17.145   4.102  52.257  1.00  0.00    -0.172 OA
HETATM    2  C1  UNL     1      17.795   3.892  51.136  1.00  0.00     0.186 C 
HETATM    3  N1  UNL     1      16.862   4.437  50.209  1.00  0.00    -0.364 N 
HETATM    4  C2  UNL     1      17.741   4.825  49.081  1.00  0.00     0.161 C 
HETATM    5  C3  UNL     1      18.659   3.680  49.110  1.00  0.00    -0.026 C 
HETATM    6  C4  UNL     1      18.864   3.187  47.912  1.00  0.00     0.007 C 
HETATM    7  C5  UNL     1      18.066   3.965  46.978  1.00  0.00     0.028 C 
HETATM    8  C6  UNL     1      18.185   4.934  46.115  1.00  0.00     0.013 C 
HETATM    9  P1  UNL     1      19.542   4.739  45.232  1.00  0.00    -0.051 P 
HETATM   10  C7  UNL     1      21.028   4.779  46.339  1.00  0.00     0.012 C 
HETATM   11  C8  UNL     1      22.035   4.446  47.113  1.00  0.00     0.002 C 
HETATM   12  C9  UNL     1      23.016   5.339  47.774  1.00  0.00     0.017 C 
HETATM   13  C10 UNL     1      23.272   6.589  47.879  1.00  0.00     0.086 C 
HETATM   14  N2  UNL     1      24.355   6.967  48.634  1.00  0.00    -0.384 N 
HETATM   15  C12 UNL     1      25.167   7.016  49.811  1.00  0.00     0.149 C 
HETATM   16  C13 UNL     1      24.501   6.363  51.038  1.00  0.00     0.189 C 
HETATM   17  O2  UNL     1      24.187   5.153  50.600  1.00  0.00    -0.371 OA
HETATM   18  C14 UNL     1      23.761   4.097  51.210  1.00  0.00     0.290 C 
HETATM   19  N3  UNL     1      22.669   4.055  52.131  1.00  0.00    -0.368 N 
HETATM   20  C15 UNL     1      22.159   2.696  52.275  1.00  0.00     0.040 A 
HETATM   21  C16 UNL     1      23.106   1.834  52.741  1.00  0.00     0.030 A 
HETATM   22  C17 UNL     1      22.863   0.488  52.853  1.00  0.00     0.002 A 
HETATM   23  C18 UNL     1      21.697  -0.132  52.529  1.00  0.00     0.001 A 
HETATM   24  C19 UNL     1      20.763   0.822  52.060  1.00  0.00     0.014 A 
HETATM   25  C20 UNL     1      20.897   2.244  51.901  1.00  0.00    -0.009 A 
HETATM   26  C21 UNL     1      19.708   2.898  51.459  1.00  0.00     0.030 C 
HETATM   27  C22 UNL     1      19.049   3.344  50.447  1.00  0.00     0.026 C 
HETATM   28  H1  UNL     1      15.814   4.606  50.086  1.00  0.00     0.162 HD
HETATM   29  H20 UNL     1      21.939   4.300  52.819  1.00  0.00     0.161 HD
ENDROOT
BRANCH  14  30
HETATM   30  C11 UNL     1      24.948   7.666  47.508  1.00  0.00     0.150 C 
BRANCH  30  31
HETATM   31  P2  UNL     1      26.779   7.896  47.670  1.00  0.00    -0.122 P 
HETATM   32  H12 UNL     1      27.006   9.233  48.244  1.00  0.00     0.056 HD
HETATM   33  H13 UNL     1      27.239   6.953  48.707  1.00  0.00     0.056 HD
ENDBRANCH  30  31
ENDBRANCH  14  30
TORSDOF 2
ENDMDL
MODEL 9
REMARK VINA RESULT:      -7.1      3.903      8.421
REMARK  2 active torsions:
REMARK  status: ('A' for Active; 'I' for Inactive)
REMARK    1  A    between atoms: N2_14  and  C11_15 
REMARK    2  A    between atoms: C11_15  and  P2_16 
ROOT
HETATM    1  O1  UNL     1      24.211   3.725  52.281  1.00  0.00    -0.172 OA
HETATM    2  C1  UNL     1      23.846   3.733  51.020  1.00  0.00     0.186 C 
HETATM    3  N1  UNL     1      22.637   2.988  51.113  1.00  0.00    -0.364 N 
HETATM    4  C2  UNL     1      21.877   3.491  49.945  1.00  0.00     0.161 C 
HETATM    5  C3  UNL     1      22.984   3.597  48.987  1.00  0.00    -0.026 C 
HETATM    6  C4  UNL     1      22.673   3.083  47.821  1.00  0.00     0.007 C 
HETATM    7  C5  UNL     1      21.317   2.565  47.920  1.00  0.00     0.028 C 
HETATM    8  C6  UNL     1      20.093   2.882  47.609  1.00  0.00     0.013 C 
HETATM    9  P1  UNL     1      20.040   3.524  46.112  1.00  0.00    -0.051 P 
HETATM   10  C7  UNL     1      21.060   5.071  46.051  1.00  0.00     0.012 C 
HETATM   11  C8  UNL     1      22.036   5.934  45.887  1.00  0.00     0.002 C 
HETATM   12  C9  UNL     1      22.015   7.396  46.132  1.00  0.00     0.017 C 
HETATM   13  C10 UNL     1      21.205   8.299  46.542  1.00  0.00     0.086 C 
HETATM   14  N2  UNL     1      21.655   9.596  46.596  1.00  0.00    -0.384 N 
HETATM   15  C12 UNL     1      22.541  10.650  46.982  1.00  0.00     0.149 C 
HETATM   16  C13 UNL     1      23.614  10.204  47.994  1.00  0.00     0.189 C 
HETATM   17  O2  UNL     1      24.176   9.164  47.396  1.00  0.00    -0.371 OA
HETATM   18  C14 UNL     1      25.235   8.477  47.672  1.00  0.00     0.290 C 
HETATM   19  N3  UNL     1      25.555   7.925  48.950  1.00  0.00    -0.368 N 
HETATM   20  C15 UNL     1      26.535   6.851  48.825  1.00  0.00     0.040 A 
HETATM   21  C16 UNL     1      27.705   7.280  48.272  1.00  0.00     0.030 A 
HETATM   22  C17 UNL     1      28.722   6.409  47.974  1.00  0.00     0.002 A 
HETATM   23  C18 UNL     1      28.697   5.066  48.183  1.00  0.00     0.001 A 
HETATM   24  C19 UNL     1      27.460   4.696  48.761  1.00  0.00     0.014 A 
HETATM   25  C20 UNL     1      26.329   5.507  49.119  1.00  0.00    -0.009 A 
HETATM   26  C21 UNL     1      25.270   4.788  49.750  1.00  0.00     0.030 C 
HETATM   27  C22 UNL     1      24.150   4.173  49.584  1.00  0.00     0.026 C 
HETATM   28  H1  UNL     1      22.172   2.227  51.701  1.00  0.00     0.162 HD
HETATM   29  H20 UNL     1      25.609   7.726  49.962  1.00  0.00     0.161 HD
ENDROOT
BRANCH  14  30
HETATM   30  C11 UNL     1      20.591  10.045  45.716  1.00  0.00     0.150 C 
BRANCH  30  31
HETATM   31  P2  UNL     1      18.948  10.177  46.560  1.00  0.00    -0.122 P 
HETATM   32  H12 UNL     1      18.843   9.047  47.498  1.00  0.00     0.056 HD
HETATM   33  H13 UNL     1      19.001  11.378  47.415  1.00  0.00     0.056 HD
ENDBRANCH  30  31
ENDBRANCH  14  30
TORSDOF 2
ENDMDL
