MODEL 1
REMARK VINA RESULT:      -9.0      0.000      0.000
REMARK  4 active torsions:
REMARK  status: ('A' for Active; 'I' for Inactive)
REMARK    1  A    between atoms: C2_2  and  O1_3 
REMARK    2  A    between atoms: O1_3  and  C3_4 
REMARK    3  A    between atoms: C7_10  and  N3_11 
REMARK    4  A    between atoms: N3_11  and  C8_12 
ROOT
HETATM    1  C3  UNL     1      20.327  -0.366  53.349  1.00  0.00     0.107 A 
HETATM    2  C4  UNL     1      21.012  -0.901  54.412  1.00  0.00     0.072 A 
HETATM    3  C5  UNL     1      22.373  -0.893  54.575  1.00  0.00     0.077 A 
HETATM    4  N1  UNL     1      23.005  -1.426  55.628  1.00  0.00    -0.241 NA
HETATM    5  C6  UNL     1      24.344  -1.387  55.731  1.00  0.00     0.236 A 
HETATM    6  N2  UNL     1      25.059  -0.803  54.761  1.00  0.00    -0.223 NA
HETATM    7  C7  UNL     1      24.515  -0.246  53.674  1.00  0.00     0.144 A 
HETATM    8  C15 UNL     1      23.150  -0.305  53.604  1.00  0.00     0.075 A 
HETATM    9  C16 UNL     1      22.540   0.254  52.505  1.00  0.00     0.121 A 
HETATM   10  C17 UNL     1      21.159   0.214  52.400  1.00  0.00     0.136 A 
HETATM   11  O2  UNL     1      20.604   0.795  51.271  1.00  0.00    -0.344 OA
HETATM   12  C18 UNL     1      21.229   1.770  50.466  1.00  0.00     0.202 C 
HETATM   13  C19 UNL     1      22.719   1.693  50.492  1.00  0.00     0.202 C 
HETATM   14  O3  UNL     1      23.221   0.858  51.492  1.00  0.00    -0.345 OA
ENDROOT
BRANCH   7  15
HETATM   15  N3  UNL     1      25.389   0.340  52.729  1.00  0.00    -0.340 N 
HETATM   16  H8  UNL     1      25.396   0.632  51.739  1.00  0.00     0.167 HD
BRANCH  15  17
HETATM   17  C8  UNL     1      26.715   0.687  53.127  1.00  0.00     0.034 A 
HETATM   18  C9  UNL     1      27.186   1.976  53.414  1.00  0.00     0.029 A 
HETATM   19  C10 UNL     1      28.475   2.279  53.775  1.00  0.00     0.003 A 
HETATM   20  C11 UNL     1      29.394   1.257  53.870  1.00  0.00     0.007 A 
HETATM   21  C12 UNL     1      28.990  -0.034  53.598  1.00  0.00    -0.060 A 
HETATM   22  C13 UNL     1      30.074  -1.041  53.737  1.00  0.00     0.048 C 
HETATM   23  C14 UNL     1      27.689  -0.292  53.240  1.00  0.00     0.036 A 
ENDBRANCH  15  17
ENDBRANCH   7  15
BRANCH   1  24
HETATM   24  O1  UNL     1      18.992  -0.337  53.127  1.00  0.00    -0.348 OA
BRANCH  24  25
HETATM   25  C2  UNL     1      18.011  -1.291  53.283  1.00  0.00     0.171 C 
HETATM   26  C1  UNL     1      16.799  -1.167  52.426  1.00  0.00     0.034 C 
ENDBRANCH  24  25
ENDBRANCH   1  24
TORSDOF 4
ENDMDL
MODEL 2
REMARK VINA RESULT:      -8.6      1.748      3.496
REMARK  4 active torsions:
REMARK  status: ('A' for Active; 'I' for Inactive)
REMARK    1  A    between atoms: C2_2  and  O1_3 
REMARK    2  A    between atoms: O1_3  and  C3_4 
REMARK    3  A    between atoms: C7_10  and  N3_11 
REMARK    4  A    between atoms: N3_11  and  C8_12 
ROOT
HETATM    1  C3  UNL     1      20.615   0.539  51.414  1.00  0.00     0.107 A 
HETATM    2  C4  UNL     1      21.384   1.355  50.622  1.00  0.00     0.072 A 
HETATM    3  C5  UNL     1      22.686   1.708  50.862  1.00  0.00     0.077 A 
HETATM    4  N1  UNL     1      23.405   2.509  50.064  1.00  0.00    -0.241 NA
HETATM    5  C6  UNL     1      24.680   2.818  50.352  1.00  0.00     0.236 A 
HETATM    6  N2  UNL     1      25.242   2.315  51.459  1.00  0.00    -0.223 NA
HETATM    7  C7  UNL     1      24.603   1.509  52.313  1.00  0.00     0.144 A 
HETATM    8  C15 UNL     1      23.307   1.217  51.987  1.00  0.00     0.075 A 
HETATM    9  C16 UNL     1      22.604   0.391  52.833  1.00  0.00     0.121 A 
HETATM   10  C17 UNL     1      21.290   0.071  52.534  1.00  0.00     0.136 A 
HETATM   11  O2  UNL     1      20.635  -0.765  53.425  1.00  0.00    -0.344 OA
HETATM   12  C18 UNL     1      21.266  -1.646  54.329  1.00  0.00     0.202 C 
HETATM   13  C19 UNL     1      22.628  -1.197  54.740  1.00  0.00     0.202 C 
HETATM   14  O3  UNL     1      23.129  -0.145  53.970  1.00  0.00    -0.345 OA
ENDROOT
BRANCH   7  15
HETATM   15  N3  UNL     1      25.319   1.047  53.441  1.00  0.00    -0.340 N 
HETATM   16  H8  UNL     1      25.354   1.188  54.463  1.00  0.00     0.167 HD
BRANCH  15  17
HETATM   17  C8  UNL     1      26.355   0.082  53.262  1.00  0.00     0.034 A 
HETATM   18  C9  UNL     1      26.192  -1.241  52.825  1.00  0.00     0.029 A 
HETATM   19  C10 UNL     1      27.209  -2.152  52.682  1.00  0.00     0.003 A 
HETATM   20  C11 UNL     1      28.494  -1.763  52.983  1.00  0.00     0.007 A 
HETATM   21  C12 UNL     1      28.718  -0.473  53.419  1.00  0.00    -0.060 A 
HETATM   22  C13 UNL     1      30.146  -0.180  53.709  1.00  0.00     0.048 C 
HETATM   23  C14 UNL     1      27.671   0.407  53.548  1.00  0.00     0.036 A 
ENDBRANCH  15  17
ENDBRANCH   7  15
BRANCH   1  24
HETATM   24  O1  UNL     1      19.330   0.150  51.237  1.00  0.00    -0.348 OA
BRANCH  24  25
HETATM   25  C2  UNL     1      18.327   0.625  50.420  1.00  0.00     0.171 C 
HETATM   26  C1  UNL     1      17.087  -0.195  50.320  1.00  0.00     0.034 C 
ENDBRANCH  24  25
ENDBRANCH   1  24
TORSDOF 4
ENDMDL
MODEL 3
REMARK VINA RESULT:      -8.3      3.664      4.960
REMARK  4 active torsions:
REMARK  status: ('A' for Active; 'I' for Inactive)
REMARK    1  A    between atoms: C2_2  and  O1_3 
REMARK    2  A    between atoms: O1_3  and  C3_4 
REMARK    3  A    between atoms: C7_10  and  N3_11 
REMARK    4  A    between atoms: N3_11  and  C8_12 
ROOT
HETATM    1  C3  UNL     1      22.685   1.156  52.972  1.00  0.00     0.107 A 
HETATM    2  C4  UNL     1      23.945   1.181  53.517  1.00  0.00     0.072 A 
HETATM    3  C5  UNL     1      25.079   1.634  52.894  1.00  0.00     0.077 A 
HETATM    4  N1  UNL     1      26.293   1.642  53.461  1.00  0.00    -0.241 NA
HETATM    5  C6  UNL     1      27.368   2.100  52.798  1.00  0.00     0.236 A 
HETATM    6  N2  UNL     1      27.222   2.557  51.547  1.00  0.00    -0.223 NA
HETATM    7  C7  UNL     1      26.052   2.587  50.902  1.00  0.00     0.144 A 
HETATM    8  C15 UNL     1      24.979   2.112  51.608  1.00  0.00     0.075 A 
HETATM    9  C16 UNL     1      23.750   2.121  50.989  1.00  0.00     0.121 A 
HETATM   10  C17 UNL     1      22.642   1.650  51.674  1.00  0.00     0.136 A 
HETATM   11  O2  UNL     1      21.433   1.685  50.998  1.00  0.00    -0.344 OA
HETATM   12  C18 UNL     1      21.138   2.520  49.900  1.00  0.00     0.202 C 
HETATM   13  C19 UNL     1      22.341   2.893  49.100  1.00  0.00     0.202 C 
HETATM   14  O3  UNL     1      23.550   2.573  49.721  1.00  0.00    -0.345 OA
ENDROOT
BRANCH   7  15
HETATM   15  N3  UNL     1      26.040   3.099  49.584  1.00  0.00    -0.340 N 
HETATM   16  H8  UNL     1      25.843   2.787  48.620  1.00  0.00     0.167 HD
BRANCH  15  17
HETATM   17  C8  UNL     1      26.395   4.463  49.364  1.00  0.00     0.034 A 
HETATM   18  C9  UNL     1      25.652   5.588  49.749  1.00  0.00     0.029 A 
HETATM   19  C10 UNL     1      26.013   6.890  49.504  1.00  0.00     0.003 A 
HETATM   20  C11 UNL     1      27.188   7.136  48.831  1.00  0.00     0.007 A 
HETATM   21  C12 UNL     1      27.963   6.069  48.425  1.00  0.00    -0.060 A 
HETATM   22  C13 UNL     1      29.204   6.468  47.711  1.00  0.00     0.048 C 
HETATM   23  C14 UNL     1      27.564   4.781  48.691  1.00  0.00     0.036 A 
ENDBRANCH  15  17
ENDBRANCH   7  15
BRANCH   1  24
HETATM   24  O1  UNL     1      21.528   0.726  53.528  1.00  0.00    -0.348 OA
BRANCH  24  25
HETATM   25  C2  UNL     1      21.264  -0.227  54.487  1.00  0.00     0.171 C 
HETATM   26  C1  UNL     1      21.820  -1.590  54.263  1.00  0.00     0.034 C 
ENDBRANCH  24  25
ENDBRANCH   1  24
TORSDOF 4
ENDMDL
MODEL 4
REMARK VINA RESULT:      -8.1      2.502      7.626
REMARK  4 active torsions:
REMARK  status: ('A' for Active; 'I' for Inactive)
REMARK    1  A    between atoms: C2_2  and  O1_3 
REMARK    2  A    between atoms: O1_3  and  C3_4 
REMARK    3  A    between atoms: C7_10  and  N3_11 
REMARK    4  A    between atoms: N3_11  and  C8_12 
ROOT
HETATM    1  C3  UNL     1      26.830   1.023  53.880  1.00  0.00     0.107 A 
HETATM    2  C4  UNL     1      26.674   1.877  52.816  1.00  0.00     0.072 A 
HETATM    3  C5  UNL     1      25.546   2.001  52.047  1.00  0.00     0.077 A 
HETATM    4  N1  UNL     1      25.433   2.847  51.015  1.00  0.00    -0.241 NA
HETATM    5  C6  UNL     1      24.299   2.924  50.298  1.00  0.00     0.236 A 
HETATM    6  N2  UNL     1      23.264   2.138  50.623  1.00  0.00    -0.223 NA
HETATM    7  C7  UNL     1      23.286   1.265  51.634  1.00  0.00     0.144 A 
HETATM    8  C15 UNL     1      24.457   1.214  52.341  1.00  0.00     0.075 A 
HETATM    9  C16 UNL     1      24.533   0.331  53.394  1.00  0.00     0.121 A 
HETATM   10  C17 UNL     1      25.702   0.254  54.133  1.00  0.00     0.136 A 
HETATM   11  O2  UNL     1      25.716  -0.653  55.180  1.00  0.00    -0.344 OA
HETATM   12  C18 UNL     1      24.573  -1.169  55.827  1.00  0.00     0.202 C 
HETATM   13  C19 UNL     1      23.363  -1.203  54.954  1.00  0.00     0.202 C 
HETATM   14  O3  UNL     1      23.511  -0.489  53.763  1.00  0.00    -0.345 OA
ENDROOT
BRANCH   7  15
HETATM   15  N3  UNL     1      22.121   0.500  51.869  1.00  0.00    -0.340 N 
HETATM   16  H8  UNL     1      21.849  -0.452  52.163  1.00  0.00     0.167 HD
BRANCH  15  17
HETATM   17  C8  UNL     1      20.842   1.101  51.671  1.00  0.00     0.034 A 
HETATM   18  C9  UNL     1      20.439   2.365  52.125  1.00  0.00     0.029 A 
HETATM   19  C10 UNL     1      19.192   2.907  51.935  1.00  0.00     0.003 A 
HETATM   20  C11 UNL     1      18.248   2.175  51.251  1.00  0.00     0.007 A 
HETATM   21  C12 UNL     1      18.585   0.922  50.780  1.00  0.00    -0.060 A 
HETATM   22  C13 UNL     1      17.480   0.238  50.059  1.00  0.00     0.048 C 
HETATM   23  C14 UNL     1      19.845   0.418  50.993  1.00  0.00     0.036 A 
ENDBRANCH  15  17
ENDBRANCH   7  15
BRANCH   1  24
HETATM   24  O1  UNL     1      27.909   0.851  54.679  1.00  0.00    -0.348 OA
BRANCH  24  25
HETATM   25  C2  UNL     1      29.211   0.490  54.407  1.00  0.00     0.171 C 
HETATM   26  C1  UNL     1      29.425  -0.817  53.724  1.00  0.00     0.034 C 
ENDBRANCH  24  25
ENDBRANCH   1  24
TORSDOF 4
ENDMDL
MODEL 5
REMARK VINA RESULT:      -8.0      2.300      3.477
REMARK  4 active torsions:
REMARK  status: ('A' for Active; 'I' for Inactive)
REMARK    1  A    between atoms: C2_2  and  O1_3 
REMARK    2  A    between atoms: O1_3  and  C3_4 
REMARK    3  A    between atoms: C7_10  and  N3_11 
REMARK    4  A    between atoms: N3_11  and  C8_12 
ROOT
HETATM    1  C3  UNL     1      21.926   1.815  50.094  1.00  0.00     0.107 A 
HETATM    2  C4  UNL     1      21.428   0.951  51.037  1.00  0.00     0.072 A 
HETATM    3  C5  UNL     1      22.121   0.446  52.107  1.00  0.00     0.077 A 
HETATM    4  N1  UNL     1      21.599  -0.397  53.007  1.00  0.00    -0.241 NA
HETATM    5  C6  UNL     1      22.329  -0.857  54.036  1.00  0.00     0.236 A 
HETATM    6  N2  UNL     1      23.604  -0.465  54.163  1.00  0.00    -0.223 NA
HETATM    7  C7  UNL     1      24.208   0.372  53.314  1.00  0.00     0.144 A 
HETATM    8  C15 UNL     1      23.433   0.820  52.278  1.00  0.00     0.075 A 
HETATM    9  C16 UNL     1      24.008   1.684  51.375  1.00  0.00     0.121 A 
HETATM   10  C17 UNL     1      23.253   2.159  50.315  1.00  0.00     0.136 A 
HETATM   11  O2  UNL     1      23.888   3.027  49.440  1.00  0.00    -0.344 OA
HETATM   12  C18 UNL     1      25.032   3.795  49.741  1.00  0.00     0.202 C 
HETATM   13  C19 UNL     1      25.898   3.181  50.790  1.00  0.00     0.202 C 
HETATM   14  O3  UNL     1      25.298   2.112  51.458  1.00  0.00    -0.345 OA
ENDROOT
BRANCH   7  15
HETATM   15  N3  UNL     1      25.558   0.706  53.569  1.00  0.00    -0.340 N 
HETATM   16  H8  UNL     1      26.122   1.502  53.908  1.00  0.00     0.167 HD
BRANCH  15  17
HETATM   17  C8  UNL     1      26.575  -0.264  53.319  1.00  0.00     0.034 A 
HETATM   18  C9  UNL     1      26.395  -1.523  52.730  1.00  0.00     0.029 A 
HETATM   19  C10 UNL     1      27.393  -2.443  52.522  1.00  0.00     0.003 A 
HETATM   20  C11 UNL     1      28.675  -2.129  52.913  1.00  0.00     0.007 A 
HETATM   21  C12 UNL     1      28.915  -0.904  53.500  1.00  0.00    -0.060 A 
HETATM   22  C13 UNL     1      30.337  -0.689  53.875  1.00  0.00     0.048 C 
HETATM   23  C14 UNL     1      27.886  -0.013  53.690  1.00  0.00     0.036 A 
ENDBRANCH  15  17
ENDBRANCH   7  15
BRANCH   1  24
HETATM   24  O1  UNL     1      21.301   2.351  49.019  1.00  0.00    -0.348 OA
BRANCH  24  25
HETATM   25  C2  UNL     1      20.346   3.338  48.904  1.00  0.00     0.171 C 
HETATM   26  C1  UNL     1      18.920   2.908  48.903  1.00  0.00     0.034 C 
ENDBRANCH  24  25
ENDBRANCH   1  24
TORSDOF 4
ENDMDL
MODEL 6
REMARK VINA RESULT:      -8.0      2.444      7.260
REMARK  4 active torsions:
REMARK  status: ('A' for Active; 'I' for Inactive)
REMARK    1  A    between atoms: C2_2  and  O1_3 
REMARK    2  A    between atoms: O1_3  and  C3_4 
REMARK    3  A    between atoms: C7_10  and  N3_11 
REMARK    4  A    between atoms: N3_11  and  C8_12 
ROOT
HETATM    1  C3  UNL     1      26.352  -0.147  53.167  1.00  0.00     0.107 A 
HETATM    2  C4  UNL     1      25.359  -0.793  53.862  1.00  0.00     0.072 A 
HETATM    3  C5  UNL     1      24.038  -0.431  53.895  1.00  0.00     0.077 A 
HETATM    4  N1  UNL     1      23.097  -1.089  54.585  1.00  0.00    -0.241 NA
HETATM    5  C6  UNL     1      21.816  -0.685  54.578  1.00  0.00     0.236 A 
HETATM    6  N2  UNL     1      21.474   0.397  53.865  1.00  0.00    -0.223 NA
HETATM    7  C7  UNL     1      22.343   1.115  53.147  1.00  0.00     0.144 A 
HETATM    8  C15 UNL     1      23.638   0.674  53.179  1.00  0.00     0.075 A 
HETATM    9  C16 UNL     1      24.573   1.378  52.455  1.00  0.00     0.121 A 
HETATM   10  C17 UNL     1      25.894   0.959  52.463  1.00  0.00     0.136 A 
HETATM   11  O2  UNL     1      26.788   1.709  51.715  1.00  0.00    -0.344 OA
HETATM   12  C18 UNL     1      26.442   2.553  50.639  1.00  0.00     0.202 C 
HETATM   13  C19 UNL     1      25.057   3.100  50.737  1.00  0.00     0.202 C 
HETATM   14  O3  UNL     1      24.277   2.483  51.717  1.00  0.00    -0.345 OA
ENDROOT
BRANCH   7  15
HETATM   15  N3  UNL     1      21.845   2.232  52.438  1.00  0.00    -0.340 N 
HETATM   16  H8  UNL     1      22.085   3.220  52.256  1.00  0.00     0.167 HD
BRANCH  15  17
HETATM   17  C8  UNL     1      20.633   2.103  51.696  1.00  0.00     0.034 A 
HETATM   18  C9  UNL     1      20.385   1.190  50.662  1.00  0.00     0.029 A 
HETATM   19  C10 UNL     1      19.212   1.105  49.954  1.00  0.00     0.003 A 
HETATM   20  C11 UNL     1      18.187   1.970  50.264  1.00  0.00     0.007 A 
HETATM   21  C12 UNL     1      18.371   2.893  51.272  1.00  0.00    -0.060 A 
HETATM   22  C13 UNL     1      17.191   3.765  51.508  1.00  0.00     0.048 C 
HETATM   23  C14 UNL     1      19.562   2.943  51.955  1.00  0.00     0.036 A 
ENDBRANCH  15  17
ENDBRANCH   7  15
BRANCH   1  24
HETATM   24  O1  UNL     1      27.669  -0.450  53.090  1.00  0.00    -0.348 OA
BRANCH  24  25
HETATM   25  C2  UNL     1      28.717  -0.234  53.958  1.00  0.00     0.171 C 
HETATM   26  C1  UNL     1      30.007  -0.911  53.647  1.00  0.00     0.034 C 
ENDBRANCH  24  25
ENDBRANCH   1  24
TORSDOF 4
ENDMDL
MODEL 7
REMARK VINA RESULT:      -7.7      2.905      7.552
REMARK  4 active torsions:
REMARK  status: ('A' for Active; 'I' for Inactive)
REMARK    1  A    between atoms: C2_2  and  O1_3 
REMARK    2  A    between atoms: O1_3  and  C3_4 
REMARK    3  A    between atoms: C7_10  and  N3_11 
REMARK    4  A    between atoms: N3_11  and  C8_12 
ROOT
HETATM    1  C3  UNL     1      27.109  -0.114  53.252  1.00  0.00     0.107 A 
HETATM    2  C4  UNL     1      27.438   0.921  52.413  1.00  0.00     0.072 A 
HETATM    3  C5  UNL     1      26.556   1.805  51.847  1.00  0.00     0.077 A 
HETATM    4  N1  UNL     1      26.917   2.805  51.032  1.00  0.00    -0.241 NA
HETATM    5  C6  UNL     1      26.005   3.641  50.508  1.00  0.00     0.236 A 
HETATM    6  N2  UNL     1      24.710   3.470  50.808  1.00  0.00    -0.223 NA
HETATM    7  C7  UNL     1      24.258   2.501  51.611  1.00  0.00     0.144 A 
HETATM    8  C15 UNL     1      25.216   1.669  52.125  1.00  0.00     0.075 A 
HETATM    9  C16 UNL     1      24.803   0.655  52.958  1.00  0.00     0.121 A 
HETATM   10  C17 UNL     1      25.745  -0.205  53.499  1.00  0.00     0.136 A 
HETATM   11  O2  UNL     1      25.268  -1.205  54.331  1.00  0.00    -0.344 OA
HETATM   12  C18 UNL     1      24.033  -1.178  55.012  1.00  0.00     0.202 C 
HETATM   13  C19 UNL     1      22.996  -0.354  54.325  1.00  0.00     0.202 C 
HETATM   14  O3  UNL     1      23.501   0.438  53.293  1.00  0.00    -0.345 OA
ENDROOT
BRANCH   7  15
HETATM   15  N3  UNL     1      22.865   2.438  51.846  1.00  0.00    -0.340 N 
HETATM   16  H8  UNL     1      22.199   2.436  52.634  1.00  0.00     0.167 HD
BRANCH  15  17
HETATM   17  C8  UNL     1      21.976   2.338  50.734  1.00  0.00     0.034 A 
HETATM   18  C9  UNL     1      21.936   1.302  49.792  1.00  0.00     0.029 A 
HETATM   19  C10 UNL     1      21.079   1.246  48.720  1.00  0.00     0.003 A 
HETATM   20  C11 UNL     1      20.181   2.273  48.536  1.00  0.00     0.007 A 
HETATM   21  C12 UNL     1      20.172   3.323  49.432  1.00  0.00    -0.060 A 
HETATM   22  C13 UNL     1      19.158   4.363  49.122  1.00  0.00     0.048 C 
HETATM   23  C14 UNL     1      21.048   3.338  50.490  1.00  0.00     0.036 A 
ENDBRANCH  15  17
ENDBRANCH   7  15
BRANCH   1  24
HETATM   24  O1  UNL     1      27.924  -1.019  53.844  1.00  0.00    -0.348 OA
BRANCH  24  25
HETATM   25  C2  UNL     1      29.120  -1.579  53.451  1.00  0.00     0.171 C 
HETATM   26  C1  UNL     1      30.361  -0.813  53.750  1.00  0.00     0.034 C 
ENDBRANCH  24  25
ENDBRANCH   1  24
TORSDOF 4
ENDMDL
MODEL 8
REMARK VINA RESULT:      -7.7      2.479      7.051
REMARK  4 active torsions:
REMARK  status: ('A' for Active; 'I' for Inactive)
REMARK    1  A    between atoms: C2_2  and  O1_3 
REMARK    2  A    between atoms: O1_3  and  C3_4 
REMARK    3  A    between atoms: C7_10  and  N3_11 
REMARK    4  A    between atoms: N3_11  and  C8_12 
ROOT
HETATM    1  C3  UNL     1      26.384  -0.016  52.950  1.00  0.00     0.107 A 
HETATM    2  C4  UNL     1      25.359  -0.681  53.577  1.00  0.00     0.072 A 
HETATM    3  C5  UNL     1      24.047  -0.285  53.606  1.00  0.00     0.077 A 
HETATM    4  N1  UNL     1      23.073  -0.962  54.230  1.00  0.00    -0.241 NA
HETATM    5  C6  UNL     1      21.804  -0.523  54.223  1.00  0.00     0.236 A 
HETATM    6  N2  UNL     1      21.507   0.615  53.580  1.00  0.00    -0.223 NA
HETATM    7  C7  UNL     1      22.412   1.356  52.932  1.00  0.00     0.144 A 
HETATM    8  C15 UNL     1      23.694   0.878  52.961  1.00  0.00     0.075 A 
HETATM    9  C16 UNL     1      24.663   1.603  52.309  1.00  0.00     0.121 A 
HETATM   10  C17 UNL     1      25.972   1.148  52.315  1.00  0.00     0.136 A 
HETATM   11  O2  UNL     1      26.902   1.923  51.640  1.00  0.00    -0.344 OA
HETATM   12  C18 UNL     1      26.604   2.849  50.619  1.00  0.00     0.202 C 
HETATM   13  C19 UNL     1      25.233   3.426  50.725  1.00  0.00     0.202 C 
HETATM   14  O3  UNL     1      24.414   2.765  51.643  1.00  0.00    -0.345 OA
ENDROOT
BRANCH   7  15
HETATM   15  N3  UNL     1      21.961   2.534  52.293  1.00  0.00    -0.340 N 
HETATM   16  H8  UNL     1      21.953   3.556  52.439  1.00  0.00     0.167 HD
BRANCH  15  17
HETATM   17  C8  UNL     1      21.278   2.430  51.044  1.00  0.00     0.034 A 
HETATM   18  C9  UNL     1      21.569   1.529  50.010  1.00  0.00     0.029 A 
HETATM   19  C10 UNL     1      20.905   1.468  48.810  1.00  0.00     0.003 A 
HETATM   20  C11 UNL     1      19.871   2.348  48.581  1.00  0.00     0.007 A 
HETATM   21  C12 UNL     1      19.537   3.260  49.561  1.00  0.00    -0.060 A 
HETATM   22  C13 UNL     1      18.406   4.149  49.189  1.00  0.00     0.048 C 
HETATM   23  C14 UNL     1      20.230   3.286  50.747  1.00  0.00     0.036 A 
ENDBRANCH  15  17
ENDBRANCH   7  15
BRANCH   1  24
HETATM   24  O1  UNL     1      27.694  -0.350  52.880  1.00  0.00    -0.348 OA
BRANCH  24  25
HETATM   25  C2  UNL     1      28.694  -0.364  53.828  1.00  0.00     0.171 C 
HETATM   26  C1  UNL     1      29.284   0.948  54.213  1.00  0.00     0.034 C 
ENDBRANCH  24  25
ENDBRANCH   1  24
TORSDOF 4
ENDMDL
MODEL 9
REMARK VINA RESULT:      -7.5      3.765      7.506
REMARK  4 active torsions:
REMARK  status: ('A' for Active; 'I' for Inactive)
REMARK    1  A    between atoms: C2_2  and  O1_3 
REMARK    2  A    between atoms: O1_3  and  C3_4 
REMARK    3  A    between atoms: C7_10  and  N3_11 
REMARK    4  A    between atoms: N3_11  and  C8_12 
ROOT
HETATM    1  C3  UNL     1      26.118   4.972  49.346  1.00  0.00     0.107 A 
HETATM    2  C4  UNL     1      26.752   3.806  49.697  1.00  0.00     0.072 A 
HETATM    3  C5  UNL     1      26.308   2.900  50.625  1.00  0.00     0.077 A 
HETATM    4  N1  UNL     1      26.956   1.771  50.940  1.00  0.00    -0.241 NA
HETATM    5  C6  UNL     1      26.469   0.921  51.859  1.00  0.00     0.236 A 
HETATM    6  N2  UNL     1      25.313   1.209  52.471  1.00  0.00    -0.223 NA
HETATM    7  C7  UNL     1      24.598   2.311  52.222  1.00  0.00     0.144 A 
HETATM    8  C15 UNL     1      25.126   3.153  51.280  1.00  0.00     0.075 A 
HETATM    9  C16 UNL     1      24.429   4.302  50.986  1.00  0.00     0.121 A 
HETATM   10  C17 UNL     1      24.931   5.177  50.037  1.00  0.00     0.136 A 
HETATM   11  O2  UNL     1      24.183   6.316  49.784  1.00  0.00    -0.344 OA
HETATM   12  C18 UNL     1      22.806   6.462  50.051  1.00  0.00     0.202 C 
HETATM   13  C19 UNL     1      22.327   5.606  51.176  1.00  0.00     0.202 C 
HETATM   14  O3  UNL     1      23.252   4.641  51.580  1.00  0.00    -0.345 OA
ENDROOT
BRANCH   7  15
HETATM   15  N3  UNL     1      23.393   2.489  52.938  1.00  0.00    -0.340 N 
HETATM   16  H8  UNL     1      22.982   3.122  53.643  1.00  0.00     0.167 HD
BRANCH  15  17
HETATM   17  C8  UNL     1      22.316   1.577  52.727  1.00  0.00     0.034 A 
HETATM   18  C9  UNL     1      21.346   1.656  51.718  1.00  0.00     0.029 A 
HETATM   19  C10 UNL     1      20.308   0.772  51.554  1.00  0.00     0.003 A 
HETATM   20  C11 UNL     1      20.190  -0.281  52.433  1.00  0.00     0.007 A 
HETATM   21  C12 UNL     1      21.115  -0.412  53.449  1.00  0.00    -0.060 A 
HETATM   22  C13 UNL     1      20.877  -1.588  54.326  1.00  0.00     0.048 C 
HETATM   23  C14 UNL     1      22.138   0.497  53.576  1.00  0.00     0.036 A 
ENDBRANCH  15  17
ENDBRANCH   7  15
BRANCH   1  24
HETATM   24  O1  UNL     1      26.498   5.905  48.442  1.00  0.00    -0.348 OA
BRANCH  24  25
HETATM   25  C2  UNL     1      27.494   6.858  48.462  1.00  0.00     0.171 C 
HETATM   26  C1  UNL     1      28.798   6.491  47.843  1.00  0.00     0.034 C 
ENDBRANCH  24  25
ENDBRANCH   1  24
TORSDOF 4
ENDMDL
