MODEL 1
REMARK VINA RESULT:      -7.4      0.000      0.000
REMARK  6 active torsions:
REMARK  status: ('A' for Active; 'I' for Inactive)
REMARK    1  A    between atoms: C2_2  and  O1_3 
REMARK    2  A    between atoms: O1_3  and  C3_4 
REMARK       I    between atoms: C3_4  and  N1_6 
REMARK    3  A    between atoms: N1_6  and  C4_7 
REMARK    4  A    between atoms: C7_10  and  N2_11 
REMARK    5  A    between atoms: N2_11  and  C8_12 
REMARK    6  A    between atoms: C11_17  and  O3_18 
ROOT
HETATM    1  C4  UNL     1      25.069  -0.709  54.322  1.00  0.00     0.036 A 
HETATM    2  C5  UNL     1      24.279  -1.134  55.366  1.00  0.00     0.032 A 
HETATM    3  C6  UNL     1      22.927  -1.042  55.263  1.00  0.00     0.031 A 
HETATM    4  C7  UNL     1      22.248  -0.535  54.149  1.00  0.00     0.028 A 
HETATM    5  C16 UNL     1      23.100  -0.129  53.145  1.00  0.00     0.031 A 
HETATM    6  C17 UNL     1      24.476  -0.195  53.187  1.00  0.00     0.032 A 
ENDROOT
BRANCH   4   7
HETATM    7  N2  UNL     1      20.835  -0.443  54.050  1.00  0.00    -0.377 N 
HETATM    8  H9  UNL     1      20.327  -0.530  54.975  1.00  0.00     0.160 HD
BRANCH   7   9
HETATM    9  C8  UNL     1      20.146  -0.248  52.815  1.00  0.00     0.146 C 
HETATM   10  C9  UNL     1      18.760  -0.762  52.998  1.00  0.00     0.127 C 
HETATM   11  N3  UNL     1      17.708  -0.806  52.259  1.00  0.00    -0.237 NA
HETATM   12  S1  UNL     1      17.327   0.128  50.819  1.00  0.00    -0.076 SA
HETATM   13  C10 UNL     1      16.779   1.584  51.381  1.00  0.00     0.067 C 
HETATM   14  C15 UNL     1      18.930   0.842  50.238  1.00  0.00     0.128 C 
HETATM   15  C11 UNL     1      17.998   2.505  51.426  1.00  0.00     0.180 C 
HETATM   16  C13 UNL     1      19.143   1.517  51.599  1.00  0.00    -0.038 C 
HETATM   17  C14 UNL     1      20.024   1.249  52.589  1.00  0.00     0.010 C 
BRANCH  15  18
HETATM   18  O3  UNL     1      18.100   3.200  50.245  1.00  0.00    -0.382 OA
HETATM   19  C12 UNL     1      18.691   4.452  50.387  1.00  0.00     0.202 C 
ENDBRANCH  15  18
ENDBRANCH   7   9
ENDBRANCH   4   7
BRANCH   1  20
HETATM   20  N1  UNL     1      26.472  -0.840  54.514  1.00  0.00    -0.303 N 
HETATM   21  C3  UNL     1      27.125   0.399  54.790  1.00  0.00     0.365 C 
HETATM   22  O2  UNL     1      26.391   1.416  54.827  1.00  0.00    -0.238 OA
HETATM   23  H6  UNL     1      27.082  -1.693  54.482  1.00  0.00     0.171 HD
BRANCH  21  24
HETATM   24  O1  UNL     1      28.486   0.547  55.015  1.00  0.00    -0.304 OA
BRANCH  24  25
HETATM   25  C2  UNL     1      29.398   0.569  53.910  1.00  0.00     0.176 C 
HETATM   26  C1  UNL     1      29.940  -0.785  53.579  1.00  0.00     0.034 C 
ENDBRANCH  24  25
ENDBRANCH  21  24
ENDBRANCH   1  20
TORSDOF 6
ENDMDL
MODEL 2
REMARK VINA RESULT:      -7.1      1.964      2.740
REMARK  6 active torsions:
REMARK  status: ('A' for Active; 'I' for Inactive)
REMARK    1  A    between atoms: C2_2  and  O1_3 
REMARK    2  A    between atoms: O1_3  and  C3_4 
REMARK       I    between atoms: C3_4  and  N1_6 
REMARK    3  A    between atoms: N1_6  and  C4_7 
REMARK    4  A    between atoms: C7_10  and  N2_11 
REMARK    5  A    between atoms: N2_11  and  C8_12 
REMARK    6  A    between atoms: C11_17  and  O3_18 
ROOT
HETATM    1  C4  UNL     1      24.988   0.096  53.125  1.00  0.00     0.036 A 
HETATM    2  C5  UNL     1      25.125   1.034  52.127  1.00  0.00     0.032 A 
HETATM    3  C6  UNL     1      24.035   1.728  51.708  1.00  0.00     0.031 A 
HETATM    4  C7  UNL     1      22.743   1.565  52.221  1.00  0.00     0.028 A 
HETATM    5  C16 UNL     1      22.681   0.611  53.215  1.00  0.00     0.031 A 
HETATM    6  C17 UNL     1      23.747  -0.126  53.684  1.00  0.00     0.032 A 
ENDROOT
BRANCH   4   7
HETATM    7  N2  UNL     1      21.609   2.294  51.776  1.00  0.00    -0.377 N 
HETATM    8  H9  UNL     1      21.842   3.203  51.285  1.00  0.00     0.160 HD
BRANCH   7   9
HETATM    9  C8  UNL     1      20.266   1.850  51.967  1.00  0.00     0.146 C 
HETATM   10  C9  UNL     1      19.379   3.030  51.767  1.00  0.00     0.127 C 
HETATM   11  N3  UNL     1      18.106   3.214  51.769  1.00  0.00    -0.237 NA
HETATM   12  S1  UNL     1      16.817   2.032  51.592  1.00  0.00    -0.076 SA
HETATM   13  C10 UNL     1      16.698   1.764  49.963  1.00  0.00     0.067 C 
HETATM   14  C15 UNL     1      17.591   0.384  51.908  1.00  0.00     0.128 C 
HETATM   15  C11 UNL     1      17.589   0.557  49.668  1.00  0.00     0.180 C 
HETATM   16  C13 UNL     1      18.613   0.630  50.792  1.00  0.00    -0.038 C 
HETATM   17  C14 UNL     1      19.942   0.873  50.849  1.00  0.00     0.010 C 
BRANCH  15  18
HETATM   18  O3  UNL     1      16.845  -0.596  49.733  1.00  0.00    -0.382 OA
HETATM   19  C12 UNL     1      15.767  -0.611  48.853  1.00  0.00     0.202 C 
ENDBRANCH  15  18
ENDBRANCH   7   9
ENDBRANCH   4   7
BRANCH   1  20
HETATM   20  N1  UNL     1      26.179  -0.585  53.504  1.00  0.00    -0.303 N 
HETATM   21  C3  UNL     1      26.964   0.135  54.456  1.00  0.00     0.365 C 
HETATM   22  O2  UNL     1      26.510   1.245  54.823  1.00  0.00    -0.238 OA
HETATM   23  H6  UNL     1      26.555  -1.513  53.194  1.00  0.00     0.171 HD
BRANCH  21  24
HETATM   24  O1  UNL     1      28.168  -0.306  54.987  1.00  0.00    -0.304 OA
BRANCH  24  25
HETATM   25  C2  UNL     1      29.375  -0.187  54.224  1.00  0.00     0.176 C 
HETATM   26  C1  UNL     1      29.736  -1.451  53.510  1.00  0.00     0.034 C 
ENDBRANCH  24  25
ENDBRANCH  21  24
ENDBRANCH   1  20
TORSDOF 6
ENDMDL
MODEL 3
REMARK VINA RESULT:      -7.1      6.946      9.243
REMARK  6 active torsions:
REMARK  status: ('A' for Active; 'I' for Inactive)
REMARK    1  A    between atoms: C2_2  and  O1_3 
REMARK    2  A    between atoms: O1_3  and  C3_4 
REMARK       I    between atoms: C3_4  and  N1_6 
REMARK    3  A    between atoms: N1_6  and  C4_7 
REMARK    4  A    between atoms: C7_10  and  N2_11 
REMARK    5  A    between atoms: N2_11  and  C8_12 
REMARK    6  A    between atoms: C11_17  and  O3_18 
ROOT
HETATM    1  C4  UNL     1      26.811   7.068  48.521  1.00  0.00     0.036 A 
HETATM    2  C5  UNL     1      27.629   5.961  48.505  1.00  0.00     0.032 A 
HETATM    3  C6  UNL     1      27.133   4.756  48.891  1.00  0.00     0.031 A 
HETATM    4  C7  UNL     1      25.818   4.538  49.317  1.00  0.00     0.028 A 
HETATM    5  C16 UNL     1      25.057   5.688  49.307  1.00  0.00     0.031 A 
HETATM    6  C17 UNL     1      25.499   6.937  48.928  1.00  0.00     0.032 A 
ENDROOT
BRANCH   4   7
HETATM    7  N2  UNL     1      25.308   3.276  49.719  1.00  0.00    -0.377 N 
HETATM    8  H9  UNL     1      24.851   2.723  48.940  1.00  0.00     0.160 HD
BRANCH   7   9
HETATM    9  C8  UNL     1      25.398   2.783  51.056  1.00  0.00     0.146 C 
HETATM   10  C9  UNL     1      24.306   1.785  51.232  1.00  0.00     0.127 C 
HETATM   11  N3  UNL     1      23.939   1.007  52.188  1.00  0.00    -0.237 NA
HETATM   12  S1  UNL     1      24.852   0.472  53.592  1.00  0.00    -0.076 SA
HETATM   13  C10 UNL     1      25.795  -0.772  53.044  1.00  0.00     0.067 C 
HETATM   14  C15 UNL     1      26.286   1.628  53.737  1.00  0.00     0.128 C 
HETATM   15  C11 UNL     1      27.133  -0.145  52.649  1.00  0.00     0.180 C 
HETATM   16  C13 UNL     1      26.732   1.283  52.310  1.00  0.00    -0.038 C 
HETATM   17  C14 UNL     1      26.705   2.017  51.175  1.00  0.00     0.010 C 
BRANCH  15  18
HETATM   18  O3  UNL     1      28.000  -0.191  53.714  1.00  0.00    -0.382 OA
HETATM   19  C12 UNL     1      29.165  -0.905  53.450  1.00  0.00     0.202 C 
ENDBRANCH  15  18
ENDBRANCH   7   9
ENDBRANCH   4   7
BRANCH   1  20
HETATM   20  N1  UNL     1      27.410   8.288  48.102  1.00  0.00    -0.303 N 
HETATM   21  C3  UNL     1      27.619   9.212  49.170  1.00  0.00     0.365 C 
HETATM   22  O2  UNL     1      27.254   8.835  50.310  1.00  0.00    -0.238 OA
HETATM   23  H6  UNL     1      27.713   8.600  47.148  1.00  0.00     0.171 HD
BRANCH  21  24
HETATM   24  O1  UNL     1      28.185  10.472  49.031  1.00  0.00    -0.304 OA
BRANCH  24  25
HETATM   25  C2  UNL     1      29.530  10.605  48.555  1.00  0.00     0.176 C 
HETATM   26  C1  UNL     1      30.517   9.852  49.388  1.00  0.00     0.034 C 
ENDBRANCH  24  25
ENDBRANCH  21  24
ENDBRANCH   1  20
TORSDOF 6
ENDMDL
MODEL 4
REMARK VINA RESULT:      -7.0      7.530      9.499
REMARK  6 active torsions:
REMARK  status: ('A' for Active; 'I' for Inactive)
REMARK    1  A    between atoms: C2_2  and  O1_3 
REMARK    2  A    between atoms: O1_3  and  C3_4 
REMARK       I    between atoms: C3_4  and  N1_6 
REMARK    3  A    between atoms: N1_6  and  C4_7 
REMARK    4  A    between atoms: C7_10  and  N2_11 
REMARK    5  A    between atoms: N2_11  and  C8_12 
REMARK    6  A    between atoms: C11_17  and  O3_18 
ROOT
HETATM    1  C4  UNL     1      27.741   7.378  47.957  1.00  0.00     0.036 A 
HETATM    2  C5  UNL     1      28.643   6.339  47.934  1.00  0.00     0.032 A 
HETATM    3  C6  UNL     1      28.273   5.121  48.408  1.00  0.00     0.031 A 
HETATM    4  C7  UNL     1      27.011   4.824  48.936  1.00  0.00     0.028 A 
HETATM    5  C16 UNL     1      26.161   5.909  48.928  1.00  0.00     0.031 A 
HETATM    6  C17 UNL     1      26.475   7.168  48.462  1.00  0.00     0.032 A 
ENDROOT
BRANCH   4   7
HETATM    7  N2  UNL     1      26.633   3.548  49.430  1.00  0.00    -0.377 N 
HETATM    8  H9  UNL     1      26.888   2.741  48.793  1.00  0.00     0.160 HD
BRANCH   7   9
HETATM    9  C8  UNL     1      25.965   3.356  50.678  1.00  0.00     0.146 C 
HETATM   10  C9  UNL     1      24.627   2.775  50.376  1.00  0.00     0.127 C 
HETATM   11  N3  UNL     1      23.639   2.364  51.091  1.00  0.00    -0.237 NA
HETATM   12  S1  UNL     1      23.614   1.913  52.790  1.00  0.00    -0.076 SA
HETATM   13  C10 UNL     1      24.191   0.363  52.833  1.00  0.00     0.067 C 
HETATM   14  C15 UNL     1      25.158   2.614  53.525  1.00  0.00     0.128 C 
HETATM   15  C11 UNL     1      25.695   0.479  53.080  1.00  0.00     0.180 C 
HETATM   16  C13 UNL     1      26.012   1.851  52.504  1.00  0.00    -0.038 C 
HETATM   17  C14 UNL     1      26.732   2.294  51.448  1.00  0.00     0.010 C 
BRANCH  15  18
HETATM   18  O3  UNL     1      25.950   0.423  54.429  1.00  0.00    -0.382 OA
HETATM   19  C12 UNL     1      27.277   0.132  54.732  1.00  0.00     0.202 C 
ENDBRANCH  15  18
ENDBRANCH   7   9
ENDBRANCH   4   7
BRANCH   1  20
HETATM   20  N1  UNL     1      28.211   8.618  47.442  1.00  0.00    -0.303 N 
HETATM   21  C3  UNL     1      28.716   9.495  48.449  1.00  0.00     0.365 C 
HETATM   22  O2  UNL     1      28.680   9.066  49.627  1.00  0.00    -0.238 OA
HETATM   23  H6  UNL     1      28.239   8.973  46.455  1.00  0.00     0.171 HD
BRANCH  21  24
HETATM   24  O1  UNL     1      29.233  10.762  48.213  1.00  0.00    -0.304 OA
BRANCH  24  25
HETATM   25  C2  UNL     1      30.548  11.098  48.674  1.00  0.00     0.176 C 
HETATM   26  C1  UNL     1      30.641  12.499  49.188  1.00  0.00     0.034 C 
ENDBRANCH  24  25
ENDBRANCH  21  24
ENDBRANCH   1  20
TORSDOF 6
ENDMDL
MODEL 5
REMARK VINA RESULT:      -6.9      4.177      5.157
REMARK  6 active torsions:
REMARK  status: ('A' for Active; 'I' for Inactive)
REMARK    1  A    between atoms: C2_2  and  O1_3 
REMARK    2  A    between atoms: O1_3  and  C3_4 
REMARK       I    between atoms: C3_4  and  N1_6 
REMARK    3  A    between atoms: N1_6  and  C4_7 
REMARK    4  A    between atoms: C7_10  and  N2_11 
REMARK    5  A    between atoms: N2_11  and  C8_12 
REMARK    6  A    between atoms: C11_17  and  O3_18 
ROOT
HETATM    1  C4  UNL     1      25.201   0.314  53.678  1.00  0.00     0.036 A 
HETATM    2  C5  UNL     1      25.588   1.635  53.661  1.00  0.00     0.032 A 
HETATM    3  C6  UNL     1      24.729   2.578  53.194  1.00  0.00     0.031 A 
HETATM    4  C7  UNL     1      23.442   2.312  52.711  1.00  0.00     0.028 A 
HETATM    5  C16 UNL     1      23.123   0.971  52.757  1.00  0.00     0.031 A 
HETATM    6  C17 UNL     1      23.948  -0.032  53.219  1.00  0.00     0.032 A 
ENDROOT
BRANCH   4   7
HETATM    7  N2  UNL     1      22.551   3.303  52.224  1.00  0.00    -0.377 N 
HETATM    8  H9  UNL     1      21.527   3.056  52.326  1.00  0.00     0.160 HD
BRANCH   7   9
HETATM    9  C8  UNL     1      22.987   4.534  51.644  1.00  0.00     0.146 C 
HETATM   10  C9  UNL     1      23.407   4.237  50.246  1.00  0.00     0.127 C 
HETATM   11  N3  UNL     1      23.833   4.946  49.261  1.00  0.00    -0.237 NA
HETATM   12  S1  UNL     1      23.702   6.681  49.008  1.00  0.00    -0.076 SA
HETATM   13  C10 UNL     1      22.174   6.917  48.418  1.00  0.00     0.067 C 
HETATM   14  C15 UNL     1      23.284   7.405  50.657  1.00  0.00     0.128 C 
HETATM   15  C11 UNL     1      21.294   7.217  49.631  1.00  0.00     0.180 C 
HETATM   16  C13 UNL     1      22.041   6.511  50.754  1.00  0.00    -0.038 C 
HETATM   17  C14 UNL     1      21.778   5.447  51.546  1.00  0.00     0.010 C 
BRANCH  15  18
HETATM   18  O3  UNL     1      21.234   8.575  49.836  1.00  0.00    -0.382 OA
HETATM   19  C12 UNL     1      19.934   9.071  49.880  1.00  0.00     0.202 C 
ENDBRANCH  15  18
ENDBRANCH   7   9
ENDBRANCH   4   7
BRANCH   1  20
HETATM   20  N1  UNL     1      26.161  -0.606  54.183  1.00  0.00    -0.303 N 
HETATM   21  C3  UNL     1      26.979  -1.186  53.166  1.00  0.00     0.365 C 
HETATM   22  O2  UNL     1      26.748  -0.815  51.990  1.00  0.00    -0.238 OA
HETATM   23  H6  UNL     1      26.350  -0.913  55.167  1.00  0.00     0.171 HD
BRANCH  21  24
HETATM   24  O1  UNL     1      27.989  -2.111  53.391  1.00  0.00    -0.304 OA
BRANCH  24  25
HETATM   25  C2  UNL     1      29.358  -1.744  53.184  1.00  0.00     0.176 C 
HETATM   26  C1  UNL     1      29.713  -0.443  53.831  1.00  0.00     0.034 C 
ENDBRANCH  24  25
ENDBRANCH  21  24
ENDBRANCH   1  20
TORSDOF 6
ENDMDL
MODEL 6
REMARK VINA RESULT:      -6.9      5.031      5.930
REMARK  6 active torsions:
REMARK  status: ('A' for Active; 'I' for Inactive)
REMARK    1  A    between atoms: C2_2  and  O1_3 
REMARK    2  A    between atoms: O1_3  and  C3_4 
REMARK       I    between atoms: C3_4  and  N1_6 
REMARK    3  A    between atoms: N1_6  and  C4_7 
REMARK    4  A    between atoms: C7_10  and  N2_11 
REMARK    5  A    between atoms: N2_11  and  C8_12 
REMARK    6  A    between atoms: C11_17  and  O3_18 
ROOT
HETATM    1  C4  UNL     1      25.309   0.148  53.639  1.00  0.00     0.036 A 
HETATM    2  C5  UNL     1      25.812   1.419  53.798  1.00  0.00     0.032 A 
HETATM    3  C6  UNL     1      25.055   2.489  53.439  1.00  0.00     0.031 A 
HETATM    4  C7  UNL     1      23.765   2.404  52.902  1.00  0.00     0.028 A 
HETATM    5  C16 UNL     1      23.327   1.103  52.772  1.00  0.00     0.031 A 
HETATM    6  C17 UNL     1      24.044  -0.022  53.117  1.00  0.00     0.032 A 
ENDROOT
BRANCH   4   7
HETATM    7  N2  UNL     1      22.981   3.527  52.529  1.00  0.00    -0.377 N 
HETATM    8  H9  UNL     1      22.295   3.845  53.271  1.00  0.00     0.160 HD
BRANCH   7   9
HETATM    9  C8  UNL     1      23.098   4.180  51.265  1.00  0.00     0.146 C 
HETATM   10  C9  UNL     1      22.611   5.576  51.444  1.00  0.00     0.127 C 
HETATM   11  N3  UNL     1      22.528   6.609  50.682  1.00  0.00    -0.237 NA
HETATM   12  S1  UNL     1      23.365   6.940  49.172  1.00  0.00    -0.076 SA
HETATM   13  C10 UNL     1      24.861   7.487  49.619  1.00  0.00     0.067 C 
HETATM   14  C15 UNL     1      24.023   5.315  48.588  1.00  0.00     0.128 C 
HETATM   15  C11 UNL     1      25.772   6.258  49.636  1.00  0.00     0.180 C 
HETATM   16  C13 UNL     1      24.786   5.130  49.906  1.00  0.00    -0.038 C 
HETATM   17  C14 UNL     1      24.578   4.279  50.936  1.00  0.00     0.010 C 
BRANCH  15  18
HETATM   18  O3  UNL     1      26.384   6.117  48.414  1.00  0.00    -0.382 OA
HETATM   19  C12 UNL     1      27.334   7.100  48.153  1.00  0.00     0.202 C 
ENDBRANCH  15  18
ENDBRANCH   7   9
ENDBRANCH   4   7
BRANCH   1  20
HETATM   20  N1  UNL     1      26.168  -0.913  54.041  1.00  0.00    -0.303 N 
HETATM   21  C3  UNL     1      26.980  -1.416  52.980  1.00  0.00     0.365 C 
HETATM   22  O2  UNL     1      26.832  -0.869  51.860  1.00  0.00    -0.238 OA
HETATM   23  H6  UNL     1      26.288  -1.368  54.978  1.00  0.00     0.171 HD
BRANCH  21  24
HETATM   24  O1  UNL     1      27.900  -2.448  53.105  1.00  0.00    -0.304 OA
BRANCH  24  25
HETATM   25  C2  UNL     1      29.296  -2.152  53.241  1.00  0.00     0.176 C 
HETATM   26  C1  UNL     1      29.547  -0.789  53.802  1.00  0.00     0.034 C 
ENDBRANCH  24  25
ENDBRANCH  21  24
ENDBRANCH   1  20
TORSDOF 6
ENDMDL
MODEL 7
REMARK VINA RESULT:      -6.9      2.165      2.691
REMARK  6 active torsions:
REMARK  status: ('A' for Active; 'I' for Inactive)
REMARK    1  A    between atoms: C2_2  and  O1_3 
REMARK    2  A    between atoms: O1_3  and  C3_4 
REMARK       I    between atoms: C3_4  and  N1_6 
REMARK    3  A    between atoms: N1_6  and  C4_7 
REMARK    4  A    between atoms: C7_10  and  N2_11 
REMARK    5  A    between atoms: N2_11  and  C8_12 
REMARK    6  A    between atoms: C11_17  and  O3_18 
ROOT
HETATM    1  C4  UNL     1      25.702   0.656  52.966  1.00  0.00     0.036 A 
HETATM    2  C5  UNL     1      24.998   1.838  52.918  1.00  0.00     0.032 A 
HETATM    3  C6  UNL     1      23.647   1.819  53.062  1.00  0.00     0.031 A 
HETATM    4  C7  UNL     1      22.885   0.662  53.261  1.00  0.00     0.028 A 
HETATM    5  C16 UNL     1      23.654  -0.482  53.297  1.00  0.00     0.031 A 
HETATM    6  C17 UNL     1      25.025  -0.531  53.158  1.00  0.00     0.032 A 
ENDROOT
BRANCH   4   7
HETATM    7  N2  UNL     1      21.474   0.651  53.410  1.00  0.00    -0.377 N 
HETATM    8  H9  UNL     1      21.138   0.314  54.356  1.00  0.00     0.160 HD
BRANCH   7   9
HETATM    9  C8  UNL     1      20.573   1.057  52.379  1.00  0.00     0.146 C 
HETATM   10  C9  UNL     1      20.190   2.469  52.661  1.00  0.00     0.127 C 
HETATM   11  N3  UNL     1      19.460   3.343  52.063  1.00  0.00    -0.237 NA
HETATM   12  S1  UNL     1      18.922   3.378  50.389  1.00  0.00    -0.076 SA
HETATM   13  C10 UNL     1      20.206   3.978  49.536  1.00  0.00     0.067 C 
HETATM   14  C15 UNL     1      19.164   1.664  49.742  1.00  0.00     0.128 C 
HETATM   15  C11 UNL     1      21.000   2.762  49.058  1.00  0.00     0.180 C 
HETATM   16  C13 UNL     1      20.653   1.717  50.108  1.00  0.00    -0.038 C 
HETATM   17  C14 UNL     1      21.348   1.074  51.073  1.00  0.00     0.010 C 
BRANCH  15  18
HETATM   18  O3  UNL     1      20.570   2.389  47.807  1.00  0.00    -0.382 OA
HETATM   19  C12 UNL     1      20.713   3.390  46.850  1.00  0.00     0.202 C 
ENDBRANCH  15  18
ENDBRANCH   7   9
ENDBRANCH   4   7
BRANCH   1  20
HETATM   20  N1  UNL     1      27.111   0.766  52.806  1.00  0.00    -0.303 N 
HETATM   21  C3  UNL     1      27.825   0.734  54.042  1.00  0.00     0.365 C 
HETATM   22  O2  UNL     1      27.131   0.615  55.081  1.00  0.00    -0.238 OA
HETATM   23  H6  UNL     1      27.687   0.866  51.936  1.00  0.00     0.171 HD
BRANCH  21  24
HETATM   24  O1  UNL     1      29.204   0.824  54.165  1.00  0.00    -0.304 OA
BRANCH  24  25
HETATM   25  C2  UNL     1      30.048  -0.114  53.484  1.00  0.00     0.176 C 
HETATM   26  C1  UNL     1      29.528  -1.514  53.549  1.00  0.00     0.034 C 
ENDBRANCH  24  25
ENDBRANCH  21  24
ENDBRANCH   1  20
TORSDOF 6
ENDMDL
MODEL 8
REMARK VINA RESULT:      -6.7      2.125      2.694
REMARK  6 active torsions:
REMARK  status: ('A' for Active; 'I' for Inactive)
REMARK    1  A    between atoms: C2_2  and  O1_3 
REMARK    2  A    between atoms: O1_3  and  C3_4 
REMARK       I    between atoms: C3_4  and  N1_6 
REMARK    3  A    between atoms: N1_6  and  C4_7 
REMARK    4  A    between atoms: C7_10  and  N2_11 
REMARK    5  A    between atoms: N2_11  and  C8_12 
REMARK    6  A    between atoms: C11_17  and  O3_18 
ROOT
HETATM    1  C4  UNL     1      24.488   0.296  53.422  1.00  0.00     0.036 A 
HETATM    2  C5  UNL     1      23.440  -0.580  53.595  1.00  0.00     0.032 A 
HETATM    3  C6  UNL     1      22.343  -0.475  52.800  1.00  0.00     0.031 A 
HETATM    4  C7  UNL     1      22.182   0.479  51.789  1.00  0.00     0.028 A 
HETATM    5  C16 UNL     1      23.268   1.321  51.674  1.00  0.00     0.031 A 
HETATM    6  C17 UNL     1      24.408   1.268  52.446  1.00  0.00     0.032 A 
ENDROOT
BRANCH   4   7
HETATM    7  N2  UNL     1      21.032   0.582  50.964  1.00  0.00    -0.377 N 
HETATM    8  H9  UNL     1      20.738  -0.329  50.511  1.00  0.00     0.160 HD
BRANCH   7   9
HETATM    9  C8  UNL     1      20.322   1.804  50.756  1.00  0.00     0.146 C 
HETATM   10  C9  UNL     1      19.524   1.641  49.509  1.00  0.00     0.127 C 
HETATM   11  N3  UNL     1      18.682   2.378  48.873  1.00  0.00    -0.237 NA
HETATM   12  S1  UNL     1      17.771   3.767  49.449  1.00  0.00    -0.076 SA
HETATM   13  C10 UNL     1      16.481   3.129  50.265  1.00  0.00     0.067 C 
HETATM   14  C15 UNL     1      18.609   4.316  51.001  1.00  0.00     0.128 C 
HETATM   15  C11 UNL     1      16.910   3.041  51.730  1.00  0.00     0.180 C 
HETATM   16  C13 UNL     1      18.423   2.924  51.616  1.00  0.00    -0.038 C 
HETATM   17  C14 UNL     1      19.322   1.952  51.891  1.00  0.00     0.010 C 
BRANCH  15  18
HETATM   18  O3  UNL     1      16.537   4.186  52.392  1.00  0.00    -0.382 OA
HETATM   19  C12 UNL     1      15.277   4.102  52.978  1.00  0.00     0.202 C 
ENDBRANCH  15  18
ENDBRANCH   7   9
ENDBRANCH   4   7
BRANCH   1  20
HETATM   20  N1  UNL     1      25.597   0.116  54.296  1.00  0.00    -0.303 N 
HETATM   21  C3  UNL     1      26.701  -0.548  53.679  1.00  0.00     0.365 C 
HETATM   22  O2  UNL     1      26.550  -0.876  52.478  1.00  0.00    -0.238 OA
HETATM   23  H6  UNL     1      25.718   0.392  55.300  1.00  0.00     0.171 HD
BRANCH  21  24
HETATM   24  O1  UNL     1      27.901  -0.845  54.310  1.00  0.00    -0.304 OA
BRANCH  24  25
HETATM   25  C2  UNL     1      29.110  -0.199  53.893  1.00  0.00     0.176 C 
HETATM   26  C1  UNL     1      29.042   1.290  54.014  1.00  0.00     0.034 C 
ENDBRANCH  24  25
ENDBRANCH  21  24
ENDBRANCH   1  20
TORSDOF 6
ENDMDL
MODEL 9
REMARK VINA RESULT:      -6.7      2.743      9.222
REMARK  6 active torsions:
REMARK  status: ('A' for Active; 'I' for Inactive)
REMARK    1  A    between atoms: C2_2  and  O1_3 
REMARK    2  A    between atoms: O1_3  and  C3_4 
REMARK       I    between atoms: C3_4  and  N1_6 
REMARK    3  A    between atoms: N1_6  and  C4_7 
REMARK    4  A    between atoms: C7_10  and  N2_11 
REMARK    5  A    between atoms: N2_11  and  C8_12 
REMARK    6  A    between atoms: C11_17  and  O3_18 
ROOT
HETATM    1  C4  UNL     1      18.920  -0.084  51.737  1.00  0.00     0.036 A 
HETATM    2  C5  UNL     1      20.015   0.421  51.073  1.00  0.00     0.032 A 
HETATM    3  C6  UNL     1      21.204   0.523  51.723  1.00  0.00     0.031 A 
HETATM    4  C7  UNL     1      21.416   0.147  53.054  1.00  0.00     0.028 A 
HETATM    5  C16 UNL     1      20.279  -0.349  53.656  1.00  0.00     0.031 A 
HETATM    6  C17 UNL     1      19.046  -0.478  53.053  1.00  0.00     0.032 A 
ENDROOT
BRANCH   4   7
HETATM    7  N2  UNL     1      22.662   0.258  53.726  1.00  0.00    -0.377 N 
HETATM    8  H9  UNL     1      22.584   0.325  54.780  1.00  0.00     0.160 HD
BRANCH   7   9
HETATM    9  C8  UNL     1      23.919   0.277  53.049  1.00  0.00     0.146 C 
HETATM   10  C9  UNL     1      24.450   1.665  53.147  1.00  0.00     0.127 C 
HETATM   11  N3  UNL     1      25.535   2.245  52.771  1.00  0.00    -0.237 NA
HETATM   12  S1  UNL     1      27.081   1.529  52.337  1.00  0.00    -0.076 SA
HETATM   13  C10 UNL     1      27.834   1.222  53.778  1.00  0.00     0.067 C 
HETATM   14  C15 UNL     1      26.740  -0.260  52.020  1.00  0.00     0.128 C 
HETATM   15  C11 UNL     1      27.480  -0.221  54.140  1.00  0.00     0.180 C 
HETATM   16  C13 UNL     1      26.150  -0.416  53.427  1.00  0.00    -0.038 C 
HETATM   17  C14 UNL     1      24.875  -0.606  53.834  1.00  0.00     0.010 C 
BRANCH  15  18
HETATM   18  O3  UNL     1      28.446  -1.071  53.657  1.00  0.00    -0.382 OA
HETATM   19  C12 UNL     1      29.744  -0.650  53.933  1.00  0.00     0.202 C 
ENDBRANCH  15  18
ENDBRANCH   7   9
ENDBRANCH   4   7
BRANCH   1  20
HETATM   20  N1  UNL     1      17.716  -0.156  50.983  1.00  0.00    -0.303 N 
HETATM   21  C3  UNL     1      16.995   1.076  50.948  1.00  0.00     0.365 C 
HETATM   22  O2  UNL     1      17.506   2.036  51.574  1.00  0.00    -0.238 OA
HETATM   23  H6  UNL     1      17.292  -0.961  50.462  1.00  0.00     0.171 HD
BRANCH  21  24
HETATM   24  O1  UNL     1      15.793   1.274  50.284  1.00  0.00    -0.304 OA
BRANCH  24  25
HETATM   25  C2  UNL     1      14.565   1.330  51.021  1.00  0.00     0.176 C 
HETATM   26  C1  UNL     1      13.765   2.557  50.720  1.00  0.00     0.034 C 
ENDBRANCH  24  25
ENDBRANCH  21  24
ENDBRANCH   1  20
TORSDOF 6
ENDMDL
