MODEL 1
REMARK VINA RESULT:      -7.8      0.000      0.000
REMARK  6 active torsions:
REMARK  status: ('A' for Active; 'I' for Inactive)
REMARK    1  A    between atoms: O1_2  and  C2_3 
REMARK    2  A    between atoms: C9_11  and  N2_12 
REMARK    3  A    between atoms: N2_12  and  C10_13 
REMARK    4  A    between atoms: C12_15  and  O2_16 
REMARK    5  A    between atoms: C14_18  and  O3_19 
REMARK    6  A    between atoms: C17_22  and  O4_23 
ROOT
HETATM    1  N2  UNL     1      24.141   1.714  51.354  1.00  0.00    -0.379 N 
HETATM    2  H9  UNL     1      24.194   1.900  50.307  1.00  0.00     0.160 HD
ENDROOT
BRANCH   1   3
HETATM    3  C9  UNL     1      25.307   2.103  52.096  1.00  0.00     0.123 C 
HETATM    4  C4  UNL     1      26.352   1.032  52.265  1.00  0.00     0.004 C 
HETATM    5  C3  UNL     1      26.553  -0.239  52.398  1.00  0.00     0.021 C 
HETATM    6  C5  UNL     1      27.331   2.115  52.227  1.00  0.00     0.045 C 
HETATM    7  C2  UNL     1      27.521  -0.731  53.115  1.00  0.00     0.081 C 
HETATM    8  C7  UNL     1      28.560  -0.062  53.928  1.00  0.00     0.057 C 
HETATM    9  C6  UNL     1      28.928   1.223  53.787  1.00  0.00     0.119 C 
HETATM   10  N1  UNL     1      28.445   2.215  52.874  1.00  0.00    -0.265 NA
HETATM   11  C8  UNL     1      26.394   2.759  51.238  1.00  0.00     0.090 C 
BRANCH   7  12
HETATM   12  O1  UNL     1      27.557  -2.140  53.089  1.00  0.00    -0.355 OA
HETATM   13  C1  UNL     1      28.845  -2.765  53.142  1.00  0.00     0.210 C 
ENDBRANCH   7  12
ENDBRANCH   1   3
BRANCH   1  14
HETATM   14  C10 UNL     1      22.954   1.120  51.858  1.00  0.00     0.065 A 
HETATM   15  C11 UNL     1      22.955   0.483  53.104  1.00  0.00     0.071 A 
HETATM   16  C12 UNL     1      21.806  -0.091  53.597  1.00  0.00     0.103 A 
HETATM   17  C14 UNL     1      20.643  -0.042  52.862  1.00  0.00     0.104 A 
HETATM   18  C16 UNL     1      20.687   0.594  51.642  1.00  0.00     0.078 A 
HETATM   19  C17 UNL     1      21.793   1.192  51.080  1.00  0.00     0.097 A 
BRANCH  16  20
HETATM   20  O2  UNL     1      21.784  -0.717  54.811  1.00  0.00    -0.353 OA
HETATM   21  C13 UNL     1      22.899  -1.426  55.329  1.00  0.00     0.210 C 
ENDBRANCH  16  20
BRANCH  17  22
HETATM   22  O3  UNL     1      19.496  -0.615  53.354  1.00  0.00    -0.353 OA
HETATM   23  C15 UNL     1      18.294  -0.604  52.593  1.00  0.00     0.210 C 
ENDBRANCH  17  22
BRANCH  19  24
HETATM   24  O4  UNL     1      21.731   1.802  49.855  1.00  0.00    -0.354 OA
HETATM   25  C18 UNL     1      21.424   1.028  48.715  1.00  0.00     0.210 C 
ENDBRANCH  19  24
ENDBRANCH   1  14
TORSDOF 6
ENDMDL
MODEL 2
REMARK VINA RESULT:      -7.2      1.976      3.297
REMARK  6 active torsions:
REMARK  status: ('A' for Active; 'I' for Inactive)
REMARK    1  A    between atoms: O1_2  and  C2_3 
REMARK    2  A    between atoms: C9_11  and  N2_12 
REMARK    3  A    between atoms: N2_12  and  C10_13 
REMARK    4  A    between atoms: C12_15  and  O2_16 
REMARK    5  A    between atoms: C14_18  and  O3_19 
REMARK    6  A    between atoms: C17_22  and  O4_23 
ROOT
HETATM    1  N2  UNL     1      23.876   1.381  51.774  1.00  0.00    -0.379 N 
HETATM    2  H9  UNL     1      23.983   0.509  51.175  1.00  0.00     0.160 HD
ENDROOT
BRANCH   1   3
HETATM    3  C9  UNL     1      25.092   1.860  52.367  1.00  0.00     0.123 C 
HETATM    4  C4  UNL     1      26.215   0.859  52.433  1.00  0.00     0.004 C 
HETATM    5  C3  UNL     1      26.511  -0.393  52.566  1.00  0.00     0.021 C 
HETATM    6  C5  UNL     1      27.113   1.998  52.260  1.00  0.00     0.045 C 
HETATM    7  C2  UNL     1      27.584  -0.806  53.174  1.00  0.00     0.081 C 
HETATM    8  C7  UNL     1      28.666  -0.055  53.847  1.00  0.00     0.057 C 
HETATM    9  C6  UNL     1      28.933   1.247  53.639  1.00  0.00     0.119 C 
HETATM   10  N1  UNL     1      28.285   2.182  52.771  1.00  0.00    -0.265 NA
HETATM   11  C8  UNL     1      26.029   2.558  51.376  1.00  0.00     0.090 C 
BRANCH   7  12
HETATM   12  O1  UNL     1      27.706  -2.211  53.171  1.00  0.00    -0.355 OA
HETATM   13  C1  UNL     1      29.031  -2.755  53.196  1.00  0.00     0.210 C 
ENDBRANCH   7  12
ENDBRANCH   1   3
BRANCH   1  14
HETATM   14  C10 UNL     1      22.575   1.937  51.901  1.00  0.00     0.065 A 
HETATM   15  C11 UNL     1      22.294   3.205  51.379  1.00  0.00     0.071 A 
HETATM   16  C12 UNL     1      21.034   3.746  51.497  1.00  0.00     0.103 A 
HETATM   17  C14 UNL     1      20.039   3.039  52.134  1.00  0.00     0.104 A 
HETATM   18  C16 UNL     1      20.360   1.796  52.632  1.00  0.00     0.078 A 
HETATM   19  C17 UNL     1      21.592   1.186  52.555  1.00  0.00     0.097 A 
BRANCH  16  20
HETATM   20  O2  UNL     1      20.736   4.981  50.995  1.00  0.00    -0.353 OA
HETATM   21  C13 UNL     1      20.870   5.302  49.618  1.00  0.00     0.210 C 
ENDBRANCH  16  20
BRANCH  17  22
HETATM   22  O3  UNL     1      18.782   3.579  52.252  1.00  0.00    -0.353 OA
HETATM   23  C15 UNL     1      17.722   3.142  51.410  1.00  0.00     0.210 C 
ENDBRANCH  17  22
BRANCH  19  24
HETATM   24  O4  UNL     1      21.808  -0.058  53.084  1.00  0.00    -0.354 OA
HETATM   25  C18 UNL     1      21.411  -0.320  54.414  1.00  0.00     0.210 C 
ENDBRANCH  19  24
ENDBRANCH   1  14
TORSDOF 6
ENDMDL
MODEL 3
REMARK VINA RESULT:      -7.2      3.272      6.123
REMARK  6 active torsions:
REMARK  status: ('A' for Active; 'I' for Inactive)
REMARK    1  A    between atoms: O1_2  and  C2_3 
REMARK    2  A    between atoms: C9_11  and  N2_12 
REMARK    3  A    between atoms: N2_12  and  C10_13 
REMARK    4  A    between atoms: C12_15  and  O2_16 
REMARK    5  A    between atoms: C14_18  and  O3_19 
REMARK    6  A    between atoms: C17_22  and  O4_23 
ROOT
HETATM    1  N2  UNL     1      23.124   3.045  52.531  1.00  0.00    -0.379 N 
HETATM    2  H9  UNL     1      22.145   2.690  52.315  1.00  0.00     0.160 HD
ENDROOT
BRANCH   1   3
HETATM    3  C9  UNL     1      23.299   4.463  52.387  1.00  0.00     0.123 C 
HETATM    4  C4  UNL     1      24.038   4.899  51.149  1.00  0.00     0.004 C 
HETATM    5  C3  UNL     1      24.965   4.585  50.304  1.00  0.00     0.021 C 
HETATM    6  C5  UNL     1      23.192   6.089  51.179  1.00  0.00     0.045 C 
HETATM    7  C2  UNL     1      25.729   5.468  49.730  1.00  0.00     0.081 C 
HETATM    8  C7  UNL     1      25.781   6.940  49.871  1.00  0.00     0.057 C 
HETATM    9  C6  UNL     1      24.783   7.695  50.362  1.00  0.00     0.119 C 
HETATM   10  N1  UNL     1      23.494   7.300  50.844  1.00  0.00    -0.265 NA
HETATM   11  C8  UNL     1      22.122   5.162  51.698  1.00  0.00     0.090 C 
BRANCH   7  12
HETATM   12  O1  UNL     1      26.648   4.892  48.830  1.00  0.00    -0.355 OA
HETATM   13  C1  UNL     1      27.761   5.697  48.423  1.00  0.00     0.210 C 
ENDBRANCH   7  12
ENDBRANCH   1   3
BRANCH   1  14
HETATM   14  C10 UNL     1      24.099   2.090  52.924  1.00  0.00     0.065 A 
HETATM   15  C11 UNL     1      25.320   2.507  53.466  1.00  0.00     0.071 A 
HETATM   16  C12 UNL     1      26.266   1.584  53.850  1.00  0.00     0.103 A 
HETATM   17  C14 UNL     1      26.014   0.239  53.702  1.00  0.00     0.104 A 
HETATM   18  C16 UNL     1      24.800  -0.126  53.165  1.00  0.00     0.078 A 
HETATM   19  C17 UNL     1      23.803   0.733  52.757  1.00  0.00     0.097 A 
BRANCH  16  20
HETATM   20  O2  UNL     1      27.464   1.968  54.382  1.00  0.00    -0.353 OA
HETATM   21  C13 UNL     1      28.550   2.413  53.583  1.00  0.00     0.210 C 
ENDBRANCH  16  20
BRANCH  17  22
HETATM   22  O3  UNL     1      26.958  -0.682  54.086  1.00  0.00    -0.353 OA
HETATM   23  C15 UNL     1      27.883  -1.210  53.143  1.00  0.00     0.210 C 
ENDBRANCH  17  22
BRANCH  19  24
HETATM   24  O4  UNL     1      22.627   0.266  52.235  1.00  0.00    -0.354 OA
HETATM   25  C18 UNL     1      21.774  -0.514  53.045  1.00  0.00     0.210 C 
ENDBRANCH  19  24
ENDBRANCH   1  14
TORSDOF 6
ENDMDL
MODEL 4
REMARK VINA RESULT:      -7.1      3.545      6.051
REMARK  6 active torsions:
REMARK  status: ('A' for Active; 'I' for Inactive)
REMARK    1  A    between atoms: O1_2  and  C2_3 
REMARK    2  A    between atoms: C9_11  and  N2_12 
REMARK    3  A    between atoms: N2_12  and  C10_13 
REMARK    4  A    between atoms: C12_15  and  O2_16 
REMARK    5  A    between atoms: C14_18  and  O3_19 
REMARK    6  A    between atoms: C17_22  and  O4_23 
ROOT
HETATM    1  N2  UNL     1      26.041   2.305  50.557  1.00  0.00    -0.379 N 
HETATM    2  H9  UNL     1      26.459   1.845  49.693  1.00  0.00     0.160 HD
ENDROOT
BRANCH   1   3
HETATM    3  C9  UNL     1      25.625   3.667  50.374  1.00  0.00     0.123 C 
HETATM    4  C4  UNL     1      26.409   4.449  49.354  1.00  0.00     0.004 C 
HETATM    5  C3  UNL     1      27.570   4.612  48.808  1.00  0.00     0.021 C 
HETATM    6  C5  UNL     1      25.162   5.159  49.082  1.00  0.00     0.045 C 
HETATM    7  C2  UNL     1      28.006   5.769  48.403  1.00  0.00     0.081 C 
HETATM    8  C7  UNL     1      27.386   7.111  48.459  1.00  0.00     0.057 C 
HETATM    9  C6  UNL     1      26.070   7.336  48.618  1.00  0.00     0.119 C 
HETATM   10  N1  UNL     1      24.997   6.401  48.763  1.00  0.00    -0.265 NA
HETATM   11  C8  UNL     1      24.495   3.836  49.355  1.00  0.00     0.090 C 
BRANCH   7  12
HETATM   12  O1  UNL     1      29.287   5.695  47.818  1.00  0.00    -0.355 OA
HETATM   13  C1  UNL     1      30.327   6.480  48.412  1.00  0.00     0.210 C 
ENDBRANCH   7  12
ENDBRANCH   1   3
BRANCH   1  14
HETATM   14  C10 UNL     1      25.954   1.526  51.741  1.00  0.00     0.065 A 
HETATM   15  C11 UNL     1      27.104   1.236  52.484  1.00  0.00     0.071 A 
HETATM   16  C12 UNL     1      27.023   0.483  53.633  1.00  0.00     0.103 A 
HETATM   17  C14 UNL     1      25.803   0.008  54.059  1.00  0.00     0.104 A 
HETATM   18  C16 UNL     1      24.698   0.317  53.298  1.00  0.00     0.078 A 
HETATM   19  C17 UNL     1      24.695   1.062  52.140  1.00  0.00     0.097 A 
BRANCH  16  20
HETATM   20  O2  UNL     1      28.132   0.190  54.374  1.00  0.00    -0.353 OA
HETATM   21  C13 UNL     1      29.450   0.287  53.855  1.00  0.00     0.210 C 
ENDBRANCH  16  20
BRANCH  17  22
HETATM   22  O3  UNL     1      25.723  -0.743  55.206  1.00  0.00    -0.353 OA
HETATM   23  C15 UNL     1      24.475  -1.262  55.648  1.00  0.00     0.210 C 
ENDBRANCH  17  22
BRANCH  19  24
HETATM   24  O4  UNL     1      23.536   1.313  51.455  1.00  0.00    -0.354 OA
HETATM   25  C18 UNL     1      22.505   2.041  52.088  1.00  0.00     0.210 C 
ENDBRANCH  19  24
ENDBRANCH   1  14
TORSDOF 6
ENDMDL
MODEL 5
REMARK VINA RESULT:      -7.1      1.864      2.376
REMARK  6 active torsions:
REMARK  status: ('A' for Active; 'I' for Inactive)
REMARK    1  A    between atoms: O1_2  and  C2_3 
REMARK    2  A    between atoms: C9_11  and  N2_12 
REMARK    3  A    between atoms: N2_12  and  C10_13 
REMARK    4  A    between atoms: C12_15  and  O2_16 
REMARK    5  A    between atoms: C14_18  and  O3_19 
REMARK    6  A    between atoms: C17_22  and  O4_23 
ROOT
HETATM    1  N2  UNL     1      24.338   1.752  51.461  1.00  0.00    -0.379 N 
HETATM    2  H9  UNL     1      24.540   1.103  50.642  1.00  0.00     0.160 HD
ENDROOT
BRANCH   1   3
HETATM    3  C9  UNL     1      25.491   2.141  52.223  1.00  0.00     0.123 C 
HETATM    4  C4  UNL     1      26.510   1.055  52.450  1.00  0.00     0.004 C 
HETATM    5  C3  UNL     1      26.682  -0.215  52.624  1.00  0.00     0.021 C 
HETATM    6  C5  UNL     1      27.511   2.118  52.408  1.00  0.00     0.045 C 
HETATM    7  C2  UNL     1      27.621  -0.704  53.380  1.00  0.00     0.081 C 
HETATM    8  C7  UNL     1      28.652  -0.033  54.202  1.00  0.00     0.057 C 
HETATM    9  C6  UNL     1      29.049   1.241  54.034  1.00  0.00     0.119 C 
HETATM   10  N1  UNL     1      28.609   2.215  53.082  1.00  0.00    -0.265 NA
HETATM   11  C8  UNL     1      26.613   2.751  51.376  1.00  0.00     0.090 C 
BRANCH   7  12
HETATM   12  O1  UNL     1      27.630  -2.114  53.396  1.00  0.00    -0.355 OA
HETATM   13  C1  UNL     1      28.866  -2.767  53.084  1.00  0.00     0.210 C 
ENDBRANCH   7  12
ENDBRANCH   1   3
BRANCH   1  14
HETATM   14  C10 UNL     1      22.988   2.135  51.680  1.00  0.00     0.065 A 
HETATM   15  C11 UNL     1      22.050   1.197  52.126  1.00  0.00     0.071 A 
HETATM   16  C12 UNL     1      20.742   1.565  52.341  1.00  0.00     0.103 A 
HETATM   17  C14 UNL     1      20.347   2.865  52.118  1.00  0.00     0.104 A 
HETATM   18  C16 UNL     1      21.302   3.754  51.680  1.00  0.00     0.078 A 
HETATM   19  C17 UNL     1      22.628   3.466  51.441  1.00  0.00     0.097 A 
BRANCH  16  20
HETATM   20  O2  UNL     1      19.809   0.667  52.777  1.00  0.00    -0.353 OA
HETATM   21  C13 UNL     1      20.134  -0.427  53.622  1.00  0.00     0.210 C 
ENDBRANCH  16  20
BRANCH  17  22
HETATM   22  O3  UNL     1      19.041   3.231  52.333  1.00  0.00    -0.353 OA
HETATM   23  C15 UNL     1      18.126   3.329  51.249  1.00  0.00     0.210 C 
ENDBRANCH  17  22
BRANCH  19  24
HETATM   24  O4  UNL     1      23.501   4.427  51.005  1.00  0.00    -0.354 OA
HETATM   25  C18 UNL     1      23.453   5.714  51.583  1.00  0.00     0.210 C 
ENDBRANCH  19  24
ENDBRANCH   1  14
TORSDOF 6
ENDMDL
MODEL 6
REMARK VINA RESULT:      -6.8      2.278      3.810
REMARK  6 active torsions:
REMARK  status: ('A' for Active; 'I' for Inactive)
REMARK    1  A    between atoms: O1_2  and  C2_3 
REMARK    2  A    between atoms: C9_11  and  N2_12 
REMARK    3  A    between atoms: N2_12  and  C10_13 
REMARK    4  A    between atoms: C12_15  and  O2_16 
REMARK    5  A    between atoms: C14_18  and  O3_19 
REMARK    6  A    between atoms: C17_22  and  O4_23 
ROOT
HETATM    1  N2  UNL     1      21.749   0.297  53.513  1.00  0.00    -0.379 N 
HETATM    2  H9  UNL     1      21.823   1.124  54.178  1.00  0.00     0.160 HD
ENDROOT
BRANCH   1   3
HETATM    3  C9  UNL     1      22.956  -0.465  53.360  1.00  0.00     0.123 C 
HETATM    4  C4  UNL     1      24.200   0.342  53.097  1.00  0.00     0.004 C 
HETATM    5  C3  UNL     1      24.671   1.411  52.542  1.00  0.00     0.021 C 
HETATM    6  C5  UNL     1      24.913  -0.692  53.842  1.00  0.00     0.045 C 
HETATM    7  C2  UNL     1      25.855   1.468  52.007  1.00  0.00     0.081 C 
HETATM    8  C7  UNL     1      26.904   0.434  51.865  1.00  0.00     0.057 C 
HETATM    9  C6  UNL     1      26.971  -0.689  52.600  1.00  0.00     0.119 C 
HETATM   10  N1  UNL     1      26.105  -1.149  53.643  1.00  0.00    -0.265 NA
HETATM   11  C8  UNL     1      23.665  -0.771  54.683  1.00  0.00     0.090 C 
BRANCH   7  12
HETATM   12  O1  UNL     1      26.158   2.742  51.486  1.00  0.00    -0.355 OA
HETATM   13  C1  UNL     1      25.128   3.414  50.752  1.00  0.00     0.210 C 
ENDBRANCH   7  12
ENDBRANCH   1   3
BRANCH   1  14
HETATM   14  C10 UNL     1      20.496   0.067  52.885  1.00  0.00     0.065 A 
HETATM   15  C11 UNL     1      19.529  -0.730  53.506  1.00  0.00     0.071 A 
HETATM   16  C12 UNL     1      18.313  -0.953  52.901  1.00  0.00     0.103 A 
HETATM   17  C14 UNL     1      18.041  -0.390  51.675  1.00  0.00     0.104 A 
HETATM   18  C16 UNL     1      19.021   0.387  51.100  1.00  0.00     0.078 A 
HETATM   19  C17 UNL     1      20.260   0.658  51.638  1.00  0.00     0.097 A 
BRANCH  16  20
HETATM   20  O2  UNL     1      17.353  -1.727  53.490  1.00  0.00    -0.353 OA
HETATM   21  C13 UNL     1      17.466  -3.137  53.599  1.00  0.00     0.210 C 
ENDBRANCH  16  20
BRANCH  17  22
HETATM   22  O3  UNL     1      16.828  -0.612  51.072  1.00  0.00    -0.353 OA
HETATM   23  C15 UNL     1      16.632  -0.301  49.698  1.00  0.00     0.210 C 
ENDBRANCH  17  22
BRANCH  19  24
HETATM   24  O4  UNL     1      21.167   1.447  50.983  1.00  0.00    -0.354 OA
HETATM   25  C18 UNL     1      21.656   1.036  49.724  1.00  0.00     0.210 C 
ENDBRANCH  19  24
ENDBRANCH   1  14
TORSDOF 6
ENDMDL
MODEL 7
REMARK VINA RESULT:      -6.8      3.358      5.431
REMARK  6 active torsions:
REMARK  status: ('A' for Active; 'I' for Inactive)
REMARK    1  A    between atoms: O1_2  and  C2_3 
REMARK    2  A    between atoms: C9_11  and  N2_12 
REMARK    3  A    between atoms: N2_12  and  C10_13 
REMARK    4  A    between atoms: C12_15  and  O2_16 
REMARK    5  A    between atoms: C14_18  and  O3_19 
REMARK    6  A    between atoms: C17_22  and  O4_23 
ROOT
HETATM    1  N2  UNL     1      24.977   2.526  50.842  1.00  0.00    -0.379 N 
HETATM    2  H9  UNL     1      25.798   2.011  50.403  1.00  0.00     0.160 HD
ENDROOT
BRANCH   1   3
HETATM    3  C9  UNL     1      24.829   3.892  50.427  1.00  0.00     0.123 C 
HETATM    4  C4  UNL     1      25.861   4.384  49.446  1.00  0.00     0.004 C 
HETATM    5  C3  UNL     1      27.093   4.284  49.067  1.00  0.00     0.021 C 
HETATM    6  C5  UNL     1      24.800   5.227  48.900  1.00  0.00     0.045 C 
HETATM    7  C2  UNL     1      27.770   5.287  48.590  1.00  0.00     0.081 C 
HETATM    8  C7  UNL     1      27.389   6.701  48.380  1.00  0.00     0.057 C 
HETATM    9  C6  UNL     1      26.122   7.145  48.307  1.00  0.00     0.119 C 
HETATM   10  N1  UNL     1      24.894   6.416  48.406  1.00  0.00    -0.265 NA
HETATM   11  C8  UNL     1      23.886   4.076  49.235  1.00  0.00     0.090 C 
BRANCH   7  12
HETATM   12  O1  UNL     1      29.084   4.932  48.220  1.00  0.00    -0.355 OA
HETATM   13  C1  UNL     1      30.071   5.970  48.226  1.00  0.00     0.210 C 
ENDBRANCH   7  12
ENDBRANCH   1   3
BRANCH   1  14
HETATM   14  C10 UNL     1      24.162   1.806  51.755  1.00  0.00     0.065 A 
HETATM   15  C11 UNL     1      22.778   2.016  51.786  1.00  0.00     0.071 A 
HETATM   16  C12 UNL     1      21.985   1.319  52.668  1.00  0.00     0.103 A 
HETATM   17  C14 UNL     1      22.551   0.407  53.530  1.00  0.00     0.104 A 
HETATM   18  C16 UNL     1      23.915   0.232  53.465  1.00  0.00     0.078 A 
HETATM   19  C17 UNL     1      24.777   0.888  52.614  1.00  0.00     0.097 A 
BRANCH  16  20
HETATM   20  O2  UNL     1      20.633   1.508  52.714  1.00  0.00    -0.353 OA
HETATM   21  C13 UNL     1      19.737   0.861  51.823  1.00  0.00     0.210 C 
ENDBRANCH  16  20
BRANCH  17  22
HETATM   22  O3  UNL     1      21.758  -0.288  54.409  1.00  0.00    -0.353 OA
HETATM   23  C15 UNL     1      22.104  -1.609  54.810  1.00  0.00     0.210 C 
ENDBRANCH  17  22
BRANCH  19  24
HETATM   24  O4  UNL     1      26.123   0.640  52.629  1.00  0.00    -0.354 OA
HETATM   25  C18 UNL     1      26.594  -0.634  52.243  1.00  0.00     0.210 C 
ENDBRANCH  19  24
ENDBRANCH   1  14
TORSDOF 6
ENDMDL
MODEL 8
REMARK VINA RESULT:      -6.8      3.645      6.457
REMARK  6 active torsions:
REMARK  status: ('A' for Active; 'I' for Inactive)
REMARK    1  A    between atoms: O1_2  and  C2_3 
REMARK    2  A    between atoms: C9_11  and  N2_12 
REMARK    3  A    between atoms: N2_12  and  C10_13 
REMARK    4  A    between atoms: C12_15  and  O2_16 
REMARK    5  A    between atoms: C14_18  and  O3_19 
REMARK    6  A    between atoms: C17_22  and  O4_23 
ROOT
HETATM    1  N2  UNL     1      26.402   2.474  50.848  1.00  0.00    -0.379 N 
HETATM    2  H9  UNL     1      27.226   2.268  50.208  1.00  0.00     0.160 HD
ENDROOT
BRANCH   1   3
HETATM    3  C9  UNL     1      25.683   3.678  50.539  1.00  0.00     0.123 C 
HETATM    4  C4  UNL     1      26.274   4.516  49.436  1.00  0.00     0.004 C 
HETATM    5  C3  UNL     1      27.370   4.889  48.861  1.00  0.00     0.021 C 
HETATM    6  C5  UNL     1      24.899   4.888  49.113  1.00  0.00     0.045 C 
HETATM    7  C2  UNL     1      27.530   6.070  48.340  1.00  0.00     0.081 C 
HETATM    8  C7  UNL     1      26.616   7.231  48.272  1.00  0.00     0.057 C 
HETATM    9  C6  UNL     1      25.282   7.159  48.426  1.00  0.00     0.119 C 
HETATM   10  N1  UNL     1      24.453   6.019  48.677  1.00  0.00    -0.265 NA
HETATM   11  C8  UNL     1      24.554   3.479  49.523  1.00  0.00     0.090 C 
BRANCH   7  12
HETATM   12  O1  UNL     1      28.799   6.238  47.747  1.00  0.00    -0.355 OA
HETATM   13  C1  UNL     1      29.010   7.424  46.972  1.00  0.00     0.210 C 
ENDBRANCH   7  12
ENDBRANCH   1   3
BRANCH   1  14
HETATM   14  C10 UNL     1      26.133   1.551  51.893  1.00  0.00     0.065 A 
HETATM   15  C11 UNL     1      24.860   0.983  52.026  1.00  0.00     0.071 A 
HETATM   16  C12 UNL     1      24.597   0.087  53.037  1.00  0.00     0.103 A 
HETATM   17  C14 UNL     1      25.589  -0.258  53.927  1.00  0.00     0.104 A 
HETATM   18  C16 UNL     1      26.825   0.325  53.759  1.00  0.00     0.078 A 
HETATM   19  C17 UNL     1      27.169   1.228  52.777  1.00  0.00     0.097 A 
BRANCH  16  20
HETATM   20  O2  UNL     1      23.363  -0.480  53.185  1.00  0.00    -0.353 OA
HETATM   21  C13 UNL     1      22.236  -0.075  52.422  1.00  0.00     0.210 C 
ENDBRANCH  16  20
BRANCH  17  22
HETATM   22  O3  UNL     1      25.326  -1.152  54.934  1.00  0.00    -0.353 OA
HETATM   23  C15 UNL     1      25.154  -0.707  56.274  1.00  0.00     0.210 C 
ENDBRANCH  17  22
BRANCH  19  24
HETATM   24  O4  UNL     1      28.432   1.750  52.696  1.00  0.00    -0.354 OA
HETATM   25  C18 UNL     1      28.986   2.392  53.825  1.00  0.00     0.210 C 
ENDBRANCH  19  24
ENDBRANCH   1  14
TORSDOF 6
ENDMDL
MODEL 9
REMARK VINA RESULT:      -6.7      3.138      5.859
REMARK  6 active torsions:
REMARK  status: ('A' for Active; 'I' for Inactive)
REMARK    1  A    between atoms: O1_2  and  C2_3 
REMARK    2  A    between atoms: C9_11  and  N2_12 
REMARK    3  A    between atoms: N2_12  and  C10_13 
REMARK    4  A    between atoms: C12_15  and  O2_16 
REMARK    5  A    between atoms: C14_18  and  O3_19 
REMARK    6  A    between atoms: C17_22  and  O4_23 
ROOT
HETATM    1  N2  UNL     1      25.699   2.067  51.086  1.00  0.00    -0.379 N 
HETATM    2  H9  UNL     1      25.971   1.491  50.234  1.00  0.00     0.160 HD
ENDROOT
BRANCH   1   3
HETATM    3  C9  UNL     1      25.901   1.413  52.348  1.00  0.00     0.123 C 
HETATM    4  C4  UNL     1      24.827   0.434  52.747  1.00  0.00     0.004 C 
HETATM    5  C3  UNL     1      23.565   0.163  52.680  1.00  0.00     0.021 C 
HETATM    6  C5  UNL     1      25.893  -0.321  53.401  1.00  0.00     0.045 C 
HETATM    7  C2  UNL     1      22.918  -0.433  53.638  1.00  0.00     0.081 C 
HETATM    8  C7  UNL     1      23.372  -0.910  54.963  1.00  0.00     0.057 C 
HETATM    9  C6  UNL     1      24.655  -1.146  55.289  1.00  0.00     0.119 C 
HETATM   10  N1  UNL     1      25.837  -1.006  54.494  1.00  0.00    -0.265 NA
HETATM   11  C8  UNL     1      26.755   0.145  52.255  1.00  0.00     0.090 C 
BRANCH   7  12
HETATM   12  O1  UNL     1      21.558  -0.645  53.329  1.00  0.00    -0.355 OA
HETATM   13  C1  UNL     1      20.812  -1.501  54.202  1.00  0.00     0.210 C 
ENDBRANCH   7  12
ENDBRANCH   1   3
BRANCH   1  14
HETATM   14  C10 UNL     1      25.186   3.372  50.862  1.00  0.00     0.065 A 
HETATM   15  C11 UNL     1      23.956   3.754  51.411  1.00  0.00     0.071 A 
HETATM   16  C12 UNL     1      23.458   5.019  51.197  1.00  0.00     0.103 A 
HETATM   17  C14 UNL     1      24.169   5.920  50.438  1.00  0.00     0.104 A 
HETATM   18  C16 UNL     1      25.374   5.502  49.917  1.00  0.00     0.078 A 
HETATM   19  C17 UNL     1      25.940   4.257  50.084  1.00  0.00     0.097 A 
BRANCH  16  20
HETATM   20  O2  UNL     1      22.261   5.413  51.725  1.00  0.00    -0.353 OA
HETATM   21  C13 UNL     1      21.018   4.891  51.280  1.00  0.00     0.210 C 
ENDBRANCH  16  20
BRANCH  17  22
HETATM   22  O3  UNL     1      23.672   7.181  50.225  1.00  0.00    -0.353 OA
HETATM   23  C15 UNL     1      23.820   7.817  48.961  1.00  0.00     0.210 C 
ENDBRANCH  17  22
BRANCH  19  24
HETATM   24  O4  UNL     1      27.148   3.941  49.522  1.00  0.00    -0.354 OA
HETATM   25  C18 UNL     1      27.747   4.847  48.619  1.00  0.00     0.210 C 
ENDBRANCH  19  24
ENDBRANCH   1  14
TORSDOF 6
ENDMDL
