MODEL 1
REMARK VINA RESULT:      -9.2      0.000      0.000
REMARK  5 active torsions:
REMARK  status: ('A' for Active; 'I' for Inactive)
REMARK       I    between atoms: C2_2  and  N1_4 
REMARK    1  A    between atoms: N1_4  and  C3_5 
REMARK    2  A    between atoms: C11_15  and  O2_16 
REMARK    3  A    between atoms: O2_16  and  C12_17 
REMARK    4  A    between atoms: C12_17  and  C13_18 
REMARK    5  A    between atoms: C22_29  and  N4_30 
ROOT
HETATM    1  C3  UNL     1      24.893  -0.741  54.569  1.00  0.00     0.060 A 
HETATM    2  C4  UNL     1      24.039  -1.204  55.462  1.00  0.00     0.037 A 
HETATM    3  C5  UNL     1      22.685  -0.867  55.120  1.00  0.00     0.172 A 
HETATM    4  N2  UNL     1      21.699  -1.925  54.999  1.00  0.00    -0.269 NA
HETATM    5  C6  UNL     1      20.802  -1.669  54.037  1.00  0.00     0.228 C 
HETATM    6  N3  UNL     1      20.677  -0.557  53.124  1.00  0.00    -0.241 NA
HETATM    7  C7  UNL     1      21.553   0.395  53.148  1.00  0.00     0.079 C 
HETATM    8  C8  UNL     1      21.744   1.638  52.436  1.00  0.00    -0.005 A 
HETATM    9  C9  UNL     1      20.815   1.830  51.405  1.00  0.00     0.017 A 
HETATM   10  C10 UNL     1      20.774   2.961  50.617  1.00  0.00     0.039 A 
HETATM   11  C11 UNL     1      21.697   3.956  50.856  1.00  0.00     0.090 A 
HETATM   12  C19 UNL     1      22.599   3.746  51.875  1.00  0.00     0.068 A 
HETATM   13 CL1  UNL     1      23.831   4.953  52.275  1.00  0.00    -0.081 Cl
HETATM   14  C20 UNL     1      22.653   2.624  52.671  1.00  0.00     0.040 A 
HETATM   15  C21 UNL     1      22.749  -0.125  53.861  1.00  0.00     0.028 A 
HETATM   16  C22 UNL     1      24.067  -0.075  53.575  1.00  0.00     0.063 A 
ENDROOT
BRANCH  16  17
HETATM   17  N4  UNL     1      24.711   0.517  52.419  1.00  0.00    -0.397 N 
HETATM   18  H17 UNL     1      25.759   0.513  52.307  1.00  0.00     0.156 HD
HETATM   19  H18 UNL     1      24.420   1.021  51.530  1.00  0.00     0.156 HD
ENDBRANCH  16  17
BRANCH   1  20
HETATM   20  N1  UNL     1      26.298  -0.884  54.589  1.00  0.00    -0.326 N 
HETATM   21  C2  UNL     1      27.170   0.205  54.725  1.00  0.00     0.218 C 
HETATM   22  C1  UNL     1      28.647   0.027  54.743  1.00  0.00     0.117 C 
HETATM   23  O1  UNL     1      26.807   1.400  54.844  1.00  0.00    -0.274 OA
HETATM   24  H4  UNL     1      26.741  -1.804  54.502  1.00  0.00     0.169 HD
ENDBRANCH   1  20
BRANCH  11  25
HETATM   25  O2  UNL     1      21.736   5.138  50.110  1.00  0.00    -0.345 OA
BRANCH  25  26
HETATM   26  C12 UNL     1      22.308   5.170  48.809  1.00  0.00     0.214 C 
BRANCH  26  27
HETATM   27  C13 UNL     1      23.747   5.538  48.849  1.00  0.00    -0.031 A 
HETATM   28  C14 UNL     1      24.245   6.824  48.758  1.00  0.00     0.009 A 
HETATM   29  C15 UNL     1      25.574   7.129  48.798  1.00  0.00     0.004 A 
HETATM   30  C16 UNL     1      26.459   6.086  48.939  1.00  0.00     0.042 A 
HETATM   31  C17 UNL     1      25.979   4.783  49.033  1.00  0.00     0.117 A 
HETATM   32  F1  UNL     1      26.915   3.813  49.170  1.00  0.00    -0.206 F 
HETATM   33  C18 UNL     1      24.632   4.464  48.993  1.00  0.00     0.051 A 
ENDBRANCH  26  27
ENDBRANCH  25  26
ENDBRANCH  11  25
TORSDOF 5
ENDMDL
MODEL 2
REMARK VINA RESULT:      -9.0      3.764      6.992
REMARK  5 active torsions:
REMARK  status: ('A' for Active; 'I' for Inactive)
REMARK       I    between atoms: C2_2  and  N1_4 
REMARK    1  A    between atoms: N1_4  and  C3_5 
REMARK    2  A    between atoms: C11_15  and  O2_16 
REMARK    3  A    between atoms: O2_16  and  C12_17 
REMARK    4  A    between atoms: C12_17  and  C13_18 
REMARK    5  A    between atoms: C22_29  and  N4_30 
ROOT
HETATM    1  C3  UNL     1      18.197   2.524  50.898  1.00  0.00     0.060 A 
HETATM    2  C4  UNL     1      17.418   1.549  50.470  1.00  0.00     0.037 A 
HETATM    3  C5  UNL     1      17.773   0.291  51.068  1.00  0.00     0.172 A 
HETATM    4  N2  UNL     1      16.760  -0.466  51.780  1.00  0.00    -0.269 NA
HETATM    5  C6  UNL     1      17.269  -1.119  52.834  1.00  0.00     0.228 C 
HETATM    6  N3  UNL     1      18.612  -1.170  53.364  1.00  0.00    -0.241 NA
HETATM    7  C7  UNL     1      19.550  -0.478  52.803  1.00  0.00     0.079 C 
HETATM    8  C8  UNL     1      20.967  -0.296  53.021  1.00  0.00    -0.005 A 
HETATM    9  C9  UNL     1      21.437  -0.952  54.166  1.00  0.00     0.017 A 
HETATM   10  C10 UNL     1      22.761  -0.957  54.553  1.00  0.00     0.039 A 
HETATM   11  C11 UNL     1      23.671  -0.281  53.770  1.00  0.00     0.090 A 
HETATM   12  C19 UNL     1      23.186   0.356  52.649  1.00  0.00     0.068 A 
HETATM   13 CL1  UNL     1      24.261   1.256  51.568  1.00  0.00    -0.081 Cl
HETATM   14  C20 UNL     1      21.869   0.370  52.248  1.00  0.00     0.040 A 
HETATM   15  C21 UNL     1      18.891   0.562  51.970  1.00  0.00     0.028 A 
HETATM   16  C22 UNL     1      19.108   1.887  51.837  1.00  0.00     0.063 A 
ENDROOT
BRANCH  16  17
HETATM   17  N4  UNL     1      20.084   2.709  52.525  1.00  0.00    -0.397 N 
HETATM   18  H17 UNL     1      21.072   2.808  52.170  1.00  0.00     0.156 HD
HETATM   19  H18 UNL     1      20.123   3.326  53.389  1.00  0.00     0.156 HD
ENDBRANCH  16  17
BRANCH   1  20
HETATM   20  N1  UNL     1      18.135   3.883  50.521  1.00  0.00    -0.326 N 
HETATM   21  C2  UNL     1      19.163   4.522  49.812  1.00  0.00     0.218 C 
HETATM   22  C1  UNL     1      19.073   5.956  49.427  1.00  0.00     0.117 C 
HETATM   23  O1  UNL     1      20.226   3.969  49.442  1.00  0.00    -0.274 OA
HETATM   24  H4  UNL     1      17.325   4.464  50.755  1.00  0.00     0.169 HD
ENDBRANCH   1  20
BRANCH  11  25
HETATM   25  O2  UNL     1      25.033  -0.227  54.080  1.00  0.00    -0.345 OA
BRANCH  25  26
HETATM   26  C12 UNL     1      25.976  -1.045  53.398  1.00  0.00     0.214 C 
BRANCH  26  27
HETATM   27  C13 UNL     1      27.350  -0.484  53.477  1.00  0.00    -0.031 A 
HETATM   28  C14 UNL     1      28.517  -1.214  53.367  1.00  0.00     0.009 A 
HETATM   29  C15 UNL     1      29.766  -0.669  53.444  1.00  0.00     0.004 A 
HETATM   30  C16 UNL     1      29.852   0.689  53.642  1.00  0.00     0.042 A 
HETATM   31  C17 UNL     1      28.688   1.444  53.757  1.00  0.00     0.117 A 
HETATM   32  F1  UNL     1      28.858   2.774  53.951  1.00  0.00    -0.206 F 
HETATM   33  C18 UNL     1      27.418   0.899  53.680  1.00  0.00     0.051 A 
ENDBRANCH  26  27
ENDBRANCH  25  26
ENDBRANCH  11  25
TORSDOF 5
ENDMDL
MODEL 3
REMARK VINA RESULT:      -8.7      3.474      6.950
REMARK  5 active torsions:
REMARK  status: ('A' for Active; 'I' for Inactive)
REMARK       I    between atoms: C2_2  and  N1_4 
REMARK    1  A    between atoms: N1_4  and  C3_5 
REMARK    2  A    between atoms: C11_15  and  O2_16 
REMARK    3  A    between atoms: O2_16  and  C12_17 
REMARK    4  A    between atoms: C12_17  and  C13_18 
REMARK    5  A    between atoms: C22_29  and  N4_30 
ROOT
HETATM    1  C3  UNL     1      17.414   1.531  50.897  1.00  0.00     0.060 A 
HETATM    2  C4  UNL     1      17.068   0.259  50.947  1.00  0.00     0.037 A 
HETATM    3  C5  UNL     1      18.082  -0.538  51.580  1.00  0.00     0.172 A 
HETATM    4  N2  UNL     1      17.729  -1.358  52.724  1.00  0.00    -0.269 NA
HETATM    5  C6  UNL     1      18.724  -1.427  53.619  1.00  0.00     0.228 C 
HETATM    6  N3  UNL     1      20.036  -0.823  53.633  1.00  0.00    -0.241 NA
HETATM    7  C7  UNL     1      20.393  -0.041  52.665  1.00  0.00     0.079 C 
HETATM    8  C8  UNL     1      21.585   0.701  52.327  1.00  0.00    -0.005 A 
HETATM    9  C9  UNL     1      22.571   0.642  53.320  1.00  0.00     0.017 A 
HETATM   10  C10 UNL     1      23.810   1.237  53.202  1.00  0.00     0.039 A 
HETATM   11  C11 UNL     1      24.093   1.927  52.043  1.00  0.00     0.090 A 
HETATM   12  C19 UNL     1      23.109   1.971  51.080  1.00  0.00     0.068 A 
HETATM   13 CL1  UNL     1      23.358   2.828  49.551  1.00  0.00    -0.081 Cl
HETATM   14  C20 UNL     1      21.869   1.382  51.182  1.00  0.00     0.040 A 
HETATM   15  C21 UNL     1      19.153   0.382  51.962  1.00  0.00     0.028 A 
HETATM   16  C22 UNL     1      18.718   1.587  51.540  1.00  0.00     0.063 A 
ENDROOT
BRANCH  16  17
HETATM   17  N4  UNL     1      19.368   2.875  51.684  1.00  0.00    -0.397 N 
HETATM   18  H17 UNL     1      19.207   3.656  50.994  1.00  0.00     0.156 HD
HETATM   19  H18 UNL     1      20.046   3.342  52.355  1.00  0.00     0.156 HD
ENDBRANCH  16  17
BRANCH   1  20
HETATM   20  N1  UNL     1      16.663   2.591  50.345  1.00  0.00    -0.326 N 
HETATM   21  C2  UNL     1      15.648   3.252  51.053  1.00  0.00     0.218 C 
HETATM   22  C1  UNL     1      14.871   4.367  50.448  1.00  0.00     0.117 C 
HETATM   23  O1  UNL     1      15.305   2.980  52.229  1.00  0.00    -0.274 OA
HETATM   24  H4  UNL     1      16.832   2.924  49.391  1.00  0.00     0.169 HD
ENDBRANCH   1  20
BRANCH  11  25
HETATM   25  O2  UNL     1      25.319   2.564  51.830  1.00  0.00    -0.345 OA
BRANCH  25  26
HETATM   26  C12 UNL     1      26.425   1.867  51.271  1.00  0.00     0.214 C 
BRANCH  26  27
HETATM   27  C13 UNL     1      27.284   1.263  52.323  1.00  0.00    -0.031 A 
HETATM   28  C14 UNL     1      27.342  -0.083  52.629  1.00  0.00     0.009 A 
HETATM   29  C15 UNL     1      28.142  -0.607  53.603  1.00  0.00     0.004 A 
HETATM   30  C16 UNL     1      28.933   0.267  54.310  1.00  0.00     0.042 A 
HETATM   31  C17 UNL     1      28.889   1.628  54.018  1.00  0.00     0.117 A 
HETATM   32  F1  UNL     1      29.698   2.422  54.760  1.00  0.00    -0.206 F 
HETATM   33  C18 UNL     1      28.080   2.168  53.033  1.00  0.00     0.051 A 
ENDBRANCH  26  27
ENDBRANCH  25  26
ENDBRANCH  11  25
TORSDOF 5
ENDMDL
MODEL 4
REMARK VINA RESULT:      -8.4      4.237      8.260
REMARK  5 active torsions:
REMARK  status: ('A' for Active; 'I' for Inactive)
REMARK       I    between atoms: C2_2  and  N1_4 
REMARK    1  A    between atoms: N1_4  and  C3_5 
REMARK    2  A    between atoms: C11_15  and  O2_16 
REMARK    3  A    between atoms: O2_16  and  C12_17 
REMARK    4  A    between atoms: C12_17  and  C13_18 
REMARK    5  A    between atoms: C22_29  and  N4_30 
ROOT
HETATM    1  C3  UNL     1      26.054   9.166  49.226  1.00  0.00     0.060 A 
HETATM    2  C4  UNL     1      25.188   9.644  48.352  1.00  0.00     0.037 A 
HETATM    3  C5  UNL     1      23.961   8.898  48.364  1.00  0.00     0.172 A 
HETATM    4  N2  UNL     1      22.708   9.595  48.588  1.00  0.00    -0.269 NA
HETATM    5  C6  UNL     1      21.838   8.854  49.286  1.00  0.00     0.228 C 
HETATM    6  N3  UNL     1      21.951   7.528  49.848  1.00  0.00    -0.241 NA
HETATM    7  C7  UNL     1      23.060   6.873  49.725  1.00  0.00     0.079 C 
HETATM    8  C8  UNL     1      23.532   5.564  50.115  1.00  0.00    -0.005 A 
HETATM    9  C9  UNL     1      22.607   4.853  50.890  1.00  0.00     0.017 A 
HETATM   10  C10 UNL     1      22.817   3.567  51.342  1.00  0.00     0.039 A 
HETATM   11  C11 UNL     1      24.003   2.947  51.013  1.00  0.00     0.090 A 
HETATM   12  C19 UNL     1      24.897   3.664  50.249  1.00  0.00     0.068 A 
HETATM   13 CL1  UNL     1      26.452   2.972  49.763  1.00  0.00    -0.081 Cl
HETATM   14  C20 UNL     1      24.702   4.947  49.789  1.00  0.00     0.040 A 
HETATM   15  C21 UNL     1      24.118   7.859  49.382  1.00  0.00     0.028 A 
HETATM   16  C22 UNL     1      25.365   8.054  49.862  1.00  0.00     0.063 A 
ENDROOT
BRANCH  16  17
HETATM   17  N4  UNL     1      26.042   7.327  50.917  1.00  0.00    -0.397 N 
HETATM   18  H17 UNL     1      26.760   6.586  50.704  1.00  0.00     0.156 HD
HETATM   19  H18 UNL     1      26.044   7.304  51.979  1.00  0.00     0.156 HD
ENDBRANCH  16  17
BRANCH   1  20
HETATM   20  N1  UNL     1      27.355   9.651  49.479  1.00  0.00    -0.326 N 
HETATM   21  C2  UNL     1      28.512   8.984  49.051  1.00  0.00     0.218 C 
HETATM   22  C1  UNL     1      29.872   9.517  49.331  1.00  0.00     0.117 C 
HETATM   23  O1  UNL     1      28.517   7.907  48.408  1.00  0.00    -0.274 OA
HETATM   24  H4  UNL     1      27.507  10.523  49.995  1.00  0.00     0.169 HD
ENDBRANCH   1  20
BRANCH  11  25
HETATM   25  O2  UNL     1      24.309   1.647  51.424  1.00  0.00    -0.345 OA
BRANCH  25  26
HETATM   26  C12 UNL     1      24.588   1.351  52.786  1.00  0.00     0.214 C 
BRANCH  26  27
HETATM   27  C13 UNL     1      26.025   1.035  52.998  1.00  0.00    -0.031 A 
HETATM   28  C14 UNL     1      26.586  -0.223  52.903  1.00  0.00     0.009 A 
HETATM   29  C15 UNL     1      27.912  -0.482  53.104  1.00  0.00     0.004 A 
HETATM   30  C16 UNL     1      28.723   0.583  53.417  1.00  0.00     0.042 A 
HETATM   31  C17 UNL     1      28.177   1.860  53.519  1.00  0.00     0.117 A 
HETATM   32  F1  UNL     1      29.043   2.854  53.832  1.00  0.00    -0.206 F 
HETATM   33  C18 UNL     1      26.834   2.130  53.317  1.00  0.00     0.051 A 
ENDBRANCH  26  27
ENDBRANCH  25  26
ENDBRANCH  11  25
TORSDOF 5
ENDMDL
MODEL 5
REMARK VINA RESULT:      -8.3      5.878      9.556
REMARK  5 active torsions:
REMARK  status: ('A' for Active; 'I' for Inactive)
REMARK       I    between atoms: C2_2  and  N1_4 
REMARK    1  A    between atoms: N1_4  and  C3_5 
REMARK    2  A    between atoms: C11_15  and  O2_16 
REMARK    3  A    between atoms: O2_16  and  C12_17 
REMARK    4  A    between atoms: C12_17  and  C13_18 
REMARK    5  A    between atoms: C22_29  and  N4_30 
ROOT
HETATM    1  C3  UNL     1      25.635   5.449  50.041  1.00  0.00     0.060 A 
HETATM    2  C4  UNL     1      24.824   6.490  50.062  1.00  0.00     0.037 A 
HETATM    3  C5  UNL     1      25.250   7.508  49.143  1.00  0.00     0.172 A 
HETATM    4  N2  UNL     1      24.325   7.982  48.130  1.00  0.00    -0.269 NA
HETATM    5  C6  UNL     1      24.947   8.287  46.984  1.00  0.00     0.228 C 
HETATM    6  N3  UNL     1      26.338   8.204  46.604  1.00  0.00    -0.241 NA
HETATM    7  C7  UNL     1      27.206   7.743  47.445  1.00  0.00     0.079 C 
HETATM    8  C8  UNL     1      28.636   7.537  47.440  1.00  0.00    -0.005 A 
HETATM    9  C9  UNL     1      29.229   7.816  46.203  1.00  0.00     0.017 A 
HETATM   10  C10 UNL     1      30.586   7.733  45.970  1.00  0.00     0.039 A 
HETATM   11  C11 UNL     1      31.404   7.355  47.014  1.00  0.00     0.090 A 
HETATM   12  C19 UNL     1      30.799   7.086  48.222  1.00  0.00     0.068 A 
HETATM   13 CL1  UNL     1      31.746   6.592  49.633  1.00  0.00    -0.081 Cl
HETATM   14  C20 UNL     1      29.447   7.165  48.470  1.00  0.00     0.040 A 
HETATM   15  C21 UNL     1      26.455   6.998  48.489  1.00  0.00     0.028 A 
HETATM   16  C22 UNL     1      26.644   5.784  49.049  1.00  0.00     0.063 A 
ENDROOT
BRANCH  16  17
HETATM   17  N4  UNL     1      27.680   4.813  48.754  1.00  0.00    -0.397 N 
HETATM   18  H17 UNL     1      27.513   3.778  48.859  1.00  0.00     0.156 HD
HETATM   19  H18 UNL     1      28.689   4.818  48.420  1.00  0.00     0.156 HD
ENDBRANCH  16  17
BRANCH   1  20
HETATM   20  N1  UNL     1      25.522   4.273  50.814  1.00  0.00    -0.326 N 
HETATM   21  C2  UNL     1      24.642   3.231  50.486  1.00  0.00     0.218 C 
HETATM   22  C1  UNL     1      24.543   2.001  51.317  1.00  0.00     0.117 C 
HETATM   23  O1  UNL     1      23.877   3.228  49.492  1.00  0.00    -0.274 OA
HETATM   24  H4  UNL     1      26.087   4.133  51.657  1.00  0.00     0.169 HD
ENDBRANCH   1  20
BRANCH  11  25
HETATM   25  O2  UNL     1      32.790   7.241  46.877  1.00  0.00    -0.345 OA
BRANCH  25  26
HETATM   26  C12 UNL     1      33.367   6.328  45.951  1.00  0.00     0.214 C 
BRANCH  26  27
HETATM   27  C13 UNL     1      33.463   4.957  46.516  1.00  0.00    -0.031 A 
HETATM   28  C14 UNL     1      34.481   4.500  47.330  1.00  0.00     0.009 A 
HETATM   29  C15 UNL     1      34.540   3.233  47.834  1.00  0.00     0.004 A 
HETATM   30  C16 UNL     1      33.520   2.372  47.503  1.00  0.00     0.042 A 
HETATM   31  C17 UNL     1      32.485   2.813  46.683  1.00  0.00     0.117 A 
HETATM   32  F1  UNL     1      31.519   1.904  46.405  1.00  0.00    -0.206 F 
HETATM   33  C18 UNL     1      32.417   4.096  46.168  1.00  0.00     0.051 A 
ENDBRANCH  26  27
ENDBRANCH  25  26
ENDBRANCH  11  25
TORSDOF 5
ENDMDL
MODEL 6
REMARK VINA RESULT:      -8.2      3.920      7.430
REMARK  5 active torsions:
REMARK  status: ('A' for Active; 'I' for Inactive)
REMARK       I    between atoms: C2_2  and  N1_4 
REMARK    1  A    between atoms: N1_4  and  C3_5 
REMARK    2  A    between atoms: C11_15  and  O2_16 
REMARK    3  A    between atoms: O2_16  and  C12_17 
REMARK    4  A    between atoms: C12_17  and  C13_18 
REMARK    5  A    between atoms: C22_29  and  N4_30 
ROOT
HETATM    1  C3  UNL     1      17.172   1.178  51.369  1.00  0.00     0.060 A 
HETATM    2  C4  UNL     1      16.737   2.401  51.606  1.00  0.00     0.037 A 
HETATM    3  C5  UNL     1      17.804   3.360  51.544  1.00  0.00     0.172 A 
HETATM    4  N2  UNL     1      17.688   4.494  50.644  1.00  0.00    -0.269 NA
HETATM    5  C6  UNL     1      18.871   4.843  50.121  1.00  0.00     0.228 C 
HETATM    6  N3  UNL     1      20.191   4.280  50.289  1.00  0.00    -0.241 NA
HETATM    7  C7  UNL     1      20.352   3.238  51.040  1.00  0.00     0.079 C 
HETATM    8  C8  UNL     1      21.478   2.434  51.457  1.00  0.00    -0.005 A 
HETATM    9  C9  UNL     1      22.679   2.804  50.839  1.00  0.00     0.017 A 
HETATM   10  C10 UNL     1      23.893   2.209  51.111  1.00  0.00     0.039 A 
HETATM   11  C11 UNL     1      23.926   1.194  52.043  1.00  0.00     0.090 A 
HETATM   12  C19 UNL     1      22.733   0.848  52.639  1.00  0.00     0.068 A 
HETATM   13 CL1  UNL     1      22.653  -0.440  53.852  1.00  0.00    -0.081 Cl
HETATM   14  C20 UNL     1      21.514   1.433  52.380  1.00  0.00     0.040 A 
HETATM   15  C21 UNL     1      19.016   2.611  51.216  1.00  0.00     0.028 A 
HETATM   16  C22 UNL     1      18.597   1.331  51.124  1.00  0.00     0.063 A 
ENDROOT
BRANCH  16  17
HETATM   17  N4  UNL     1      19.376   0.156  50.789  1.00  0.00    -0.397 N 
HETATM   18  H17 UNL     1      20.137  -0.203  51.424  1.00  0.00     0.156 HD
HETATM   19  H18 UNL     1      19.428  -0.554  50.000  1.00  0.00     0.156 HD
ENDBRANCH  16  17
BRANCH   1  20
HETATM   20  N1  UNL     1      16.402  -0.005  51.352  1.00  0.00    -0.326 N 
HETATM   21  C2  UNL     1      16.432  -0.947  52.391  1.00  0.00     0.218 C 
HETATM   22  C1  UNL     1      15.610  -2.185  52.348  1.00  0.00     0.117 C 
HETATM   23  O1  UNL     1      17.130  -0.843  53.428  1.00  0.00    -0.274 OA
HETATM   24  H4  UNL     1      15.781  -0.225  50.567  1.00  0.00     0.169 HD
ENDBRANCH   1  20
BRANCH  11  25
HETATM   25  O2  UNL     1      25.107   0.529  52.386  1.00  0.00    -0.345 OA
BRANCH  25  26
HETATM   26  C12 UNL     1      25.972   1.037  53.394  1.00  0.00     0.214 C 
BRANCH  26  27
HETATM   27  C13 UNL     1      27.282   0.335  53.400  1.00  0.00    -0.031 A 
HETATM   28  C14 UNL     1      28.503   0.928  53.656  1.00  0.00     0.009 A 
HETATM   29  C15 UNL     1      29.691   0.255  53.654  1.00  0.00     0.004 A 
HETATM   30  C16 UNL     1      29.653  -1.092  53.381  1.00  0.00     0.042 A 
HETATM   31  C17 UNL     1      28.433  -1.709  53.120  1.00  0.00     0.117 A 
HETATM   32  F1  UNL     1      28.482  -3.038  52.860  1.00  0.00    -0.206 F 
HETATM   33  C18 UNL     1      27.225  -1.034  53.120  1.00  0.00     0.051 A 
ENDBRANCH  26  27
ENDBRANCH  25  26
ENDBRANCH  11  25
TORSDOF 5
ENDMDL
MODEL 7
REMARK VINA RESULT:      -8.2      5.423      9.477
REMARK  5 active torsions:
REMARK  status: ('A' for Active; 'I' for Inactive)
REMARK       I    between atoms: C2_2  and  N1_4 
REMARK    1  A    between atoms: N1_4  and  C3_5 
REMARK    2  A    between atoms: C11_15  and  O2_16 
REMARK    3  A    between atoms: O2_16  and  C12_17 
REMARK    4  A    between atoms: C12_17  and  C13_18 
REMARK    5  A    between atoms: C22_29  and  N4_30 
ROOT
HETATM    1  C3  UNL     1      31.611   6.342  47.276  1.00  0.00     0.060 A 
HETATM    2  C4  UNL     1      31.440   7.059  46.182  1.00  0.00     0.037 A 
HETATM    3  C5  UNL     1      30.142   7.675  46.153  1.00  0.00     0.172 A 
HETATM    4  N2  UNL     1      30.043   9.114  45.994  1.00  0.00    -0.269 NA
HETATM    5  C6  UNL     1      29.014   9.626  46.683  1.00  0.00     0.228 C 
HETATM    6  N3  UNL     1      28.037   8.998  47.541  1.00  0.00    -0.241 NA
HETATM    7  C7  UNL     1      28.101   7.725  47.763  1.00  0.00     0.079 C 
HETATM    8  C8  UNL     1      27.320   6.769  48.514  1.00  0.00    -0.005 A 
HETATM    9  C9  UNL     1      26.294   7.362  49.261  1.00  0.00     0.017 A 
HETATM   10  C10 UNL     1      25.393   6.647  50.022  1.00  0.00     0.039 A 
HETATM   11  C11 UNL     1      25.509   5.274  50.049  1.00  0.00     0.090 A 
HETATM   12  C19 UNL     1      26.525   4.713  49.307  1.00  0.00     0.068 A 
HETATM   13 CL1  UNL     1      26.771   2.960  49.265  1.00  0.00    -0.081 Cl
HETATM   14  C20 UNL     1      27.431   5.412  48.542  1.00  0.00     0.040 A 
HETATM   15  C21 UNL     1      29.470   7.282  47.391  1.00  0.00     0.028 A 
HETATM   16  C22 UNL     1      30.371   6.498  48.020  1.00  0.00     0.063 A 
ENDROOT
BRANCH  16  17
HETATM   17  N4  UNL     1      30.249   5.854  49.313  1.00  0.00    -0.397 N 
HETATM   18  H17 UNL     1      30.123   6.411  50.198  1.00  0.00     0.156 HD
HETATM   19  H18 UNL     1      30.247   4.864  49.700  1.00  0.00     0.156 HD
ENDBRANCH  16  17
BRANCH   1  20
HETATM   20  N1  UNL     1      32.760   5.603  47.632  1.00  0.00    -0.326 N 
HETATM   21  C2  UNL     1      32.915   4.244  47.322  1.00  0.00     0.218 C 
HETATM   22  C1  UNL     1      34.136   3.487  47.708  1.00  0.00     0.117 C 
HETATM   23  O1  UNL     1      32.068   3.551  46.706  1.00  0.00    -0.274 OA
HETATM   24  H4  UNL     1      33.537   6.037  48.138  1.00  0.00     0.169 HD
ENDBRANCH   1  20
BRANCH  11  25
HETATM   25  O2  UNL     1      24.645   4.463  50.791  1.00  0.00    -0.345 OA
BRANCH  25  26
HETATM   26  C12 UNL     1      23.620   3.706  50.160  1.00  0.00     0.214 C 
BRANCH  26  27
HETATM   27  C13 UNL     1      23.255   2.503  50.951  1.00  0.00    -0.031 A 
HETATM   28  C14 UNL     1      22.132   1.725  50.749  1.00  0.00     0.009 A 
HETATM   29  C15 UNL     1      21.825   0.624  51.495  1.00  0.00     0.004 A 
HETATM   30  C16 UNL     1      22.695   0.280  52.502  1.00  0.00     0.042 A 
HETATM   31  C17 UNL     1      23.833   1.051  52.724  1.00  0.00     0.117 A 
HETATM   32  F1  UNL     1      24.638   0.646  53.736  1.00  0.00    -0.206 F 
HETATM   33  C18 UNL     1      24.151   2.169  51.973  1.00  0.00     0.051 A 
ENDBRANCH  26  27
ENDBRANCH  25  26
ENDBRANCH  11  25
TORSDOF 5
ENDMDL
MODEL 8
REMARK VINA RESULT:      -8.2      5.904      9.328
REMARK  5 active torsions:
REMARK  status: ('A' for Active; 'I' for Inactive)
REMARK       I    between atoms: C2_2  and  N1_4 
REMARK    1  A    between atoms: N1_4  and  C3_5 
REMARK    2  A    between atoms: C11_15  and  O2_16 
REMARK    3  A    between atoms: O2_16  and  C12_17 
REMARK    4  A    between atoms: C12_17  and  C13_18 
REMARK    5  A    between atoms: C22_29  and  N4_30 
ROOT
HETATM    1  C3  UNL     1      31.795   6.270  47.296  1.00  0.00     0.060 A 
HETATM    2  C4  UNL     1      31.688   6.985  46.193  1.00  0.00     0.037 A 
HETATM    3  C5  UNL     1      30.429   7.675  46.132  1.00  0.00     0.172 A 
HETATM    4  N2  UNL     1      30.417   9.116  45.959  1.00  0.00    -0.269 NA
HETATM    5  C6  UNL     1      29.408   9.694  46.623  1.00  0.00     0.228 C 
HETATM    6  N3  UNL     1      28.378   9.134  47.468  1.00  0.00    -0.241 NA
HETATM    7  C7  UNL     1      28.363   7.861  47.701  1.00  0.00     0.079 C 
HETATM    8  C8  UNL     1      27.513   6.960  48.445  1.00  0.00    -0.005 A 
HETATM    9  C9  UNL     1      26.509   7.619  49.165  1.00  0.00     0.017 A 
HETATM   10  C10 UNL     1      25.553   6.966  49.915  1.00  0.00     0.039 A 
HETATM   11  C11 UNL     1      25.587   5.589  49.956  1.00  0.00     0.090 A 
HETATM   12  C19 UNL     1      26.582   4.962  49.239  1.00  0.00     0.068 A 
HETATM   13 CL1  UNL     1      26.726   3.198  49.217  1.00  0.00    -0.081 Cl
HETATM   14  C20 UNL     1      27.543   5.599  48.487  1.00  0.00     0.040 A 
HETATM   15  C21 UNL     1      29.711   7.335  47.360  1.00  0.00     0.028 A 
HETATM   16  C22 UNL     1      30.552   6.506  48.014  1.00  0.00     0.063 A 
ENDROOT
BRANCH  16  17
HETATM   17  N4  UNL     1      30.367   5.882  49.310  1.00  0.00    -0.397 N 
HETATM   18  H17 UNL     1      30.527   4.850  49.454  1.00  0.00     0.156 HD
HETATM   19  H18 UNL     1      30.085   6.177  50.290  1.00  0.00     0.156 HD
ENDBRANCH  16  17
BRANCH   1  20
HETATM   20  N1  UNL     1      32.891   5.468  47.681  1.00  0.00    -0.326 N 
HETATM   21  C2  UNL     1      32.942   4.086  47.442  1.00  0.00     0.218 C 
HETATM   22  C1  UNL     1      34.109   3.264  47.858  1.00  0.00     0.117 C 
HETATM   23  O1  UNL     1      32.040   3.427  46.871  1.00  0.00    -0.274 OA
HETATM   24  H4  UNL     1      33.704   5.869  48.157  1.00  0.00     0.169 HD
ENDBRANCH   1  20
BRANCH  11  25
HETATM   25  O2  UNL     1      24.663   4.837  50.688  1.00  0.00    -0.345 OA
BRANCH  25  26
HETATM   26  C12 UNL     1      23.264   4.981  50.476  1.00  0.00     0.214 C 
BRANCH  26  27
HETATM   27  C13 UNL     1      22.845   4.427  49.163  1.00  0.00    -0.031 A 
HETATM   28  C14 UNL     1      22.516   5.175  48.050  1.00  0.00     0.009 A 
HETATM   29  C15 UNL     1      22.135   4.634  46.856  1.00  0.00     0.004 A 
HETATM   30  C16 UNL     1      22.081   3.263  46.771  1.00  0.00     0.042 A 
HETATM   31  C17 UNL     1      22.407   2.490  47.881  1.00  0.00     0.117 A 
HETATM   32  F1  UNL     1      22.329   1.148  47.715  1.00  0.00    -0.206 F 
HETATM   33  C18 UNL     1      22.795   3.030  49.096  1.00  0.00     0.051 A 
ENDBRANCH  26  27
ENDBRANCH  25  26
ENDBRANCH  11  25
TORSDOF 5
ENDMDL
MODEL 9
REMARK VINA RESULT:      -8.1      4.766      9.042
REMARK  5 active torsions:
REMARK  status: ('A' for Active; 'I' for Inactive)
REMARK       I    between atoms: C2_2  and  N1_4 
REMARK    1  A    between atoms: N1_4  and  C3_5 
REMARK    2  A    between atoms: C11_15  and  O2_16 
REMARK    3  A    between atoms: O2_16  and  C12_17 
REMARK    4  A    between atoms: C12_17  and  C13_18 
REMARK    5  A    between atoms: C22_29  and  N4_30 
ROOT
HETATM    1  C3  UNL     1      28.644   8.595  47.684  1.00  0.00     0.060 A 
HETATM    2  C4  UNL     1      28.295   8.860  46.441  1.00  0.00     0.037 A 
HETATM    3  C5  UNL     1      26.932   8.483  46.185  1.00  0.00     0.172 A 
HETATM    4  N2  UNL     1      26.005   9.476  45.674  1.00  0.00    -0.269 NA
HETATM    5  C6  UNL     1      24.767   9.302  46.155  1.00  0.00     0.228 C 
HETATM    6  N3  UNL     1      24.232   8.331  47.081  1.00  0.00    -0.241 NA
HETATM    7  C7  UNL     1      25.018   7.449  47.610  1.00  0.00     0.079 C 
HETATM    8  C8  UNL     1      24.857   6.342  48.524  1.00  0.00    -0.005 A 
HETATM    9  C9  UNL     1      23.559   6.238  49.041  1.00  0.00     0.017 A 
HETATM   10  C10 UNL     1      23.157   5.236  49.899  1.00  0.00     0.039 A 
HETATM   11  C11 UNL     1      24.082   4.284  50.267  1.00  0.00     0.090 A 
HETATM   12  C19 UNL     1      25.352   4.405  49.746  1.00  0.00     0.068 A 
HETATM   13 CL1  UNL     1      26.624   3.241  50.147  1.00  0.00    -0.081 Cl
HETATM   14  C20 UNL     1      25.769   5.398  48.889  1.00  0.00     0.040 A 
HETATM   15  C21 UNL     1      26.410   7.942  47.439  1.00  0.00     0.028 A 
HETATM   16  C22 UNL     1      27.452   8.026  48.293  1.00  0.00     0.063 A 
ENDROOT
BRANCH  16  17
HETATM   17  N4  UNL     1      27.494   7.657  49.695  1.00  0.00    -0.397 N 
HETATM   18  H17 UNL     1      26.614   7.492  50.249  1.00  0.00     0.156 HD
HETATM   19  H18 UNL     1      28.232   7.476  50.437  1.00  0.00     0.156 HD
ENDBRANCH  16  17
BRANCH   1  20
HETATM   20  N1  UNL     1      29.904   8.832  48.278  1.00  0.00    -0.326 N 
HETATM   21  C2  UNL     1      30.732   7.799  48.739  1.00  0.00     0.218 C 
HETATM   22  C1  UNL     1      32.055   8.075  49.360  1.00  0.00     0.117 C 
HETATM   23  O1  UNL     1      30.453   6.577  48.676  1.00  0.00    -0.274 OA
HETATM   24  H4  UNL     1      30.266   9.783  48.396  1.00  0.00     0.169 HD
ENDBRANCH   1  20
BRANCH  11  25
HETATM   25  O2  UNL     1      23.771   3.230  51.132  1.00  0.00    -0.345 OA
BRANCH  25  26
HETATM   26  C12 UNL     1      24.079   3.299  52.518  1.00  0.00     0.214 C 
BRANCH  26  27
HETATM   27  C13 UNL     1      24.510   1.981  53.053  1.00  0.00    -0.031 A 
HETATM   28  C14 UNL     1      23.791   0.806  52.952  1.00  0.00     0.009 A 
HETATM   29  C15 UNL     1      24.215  -0.390  53.455  1.00  0.00     0.004 A 
HETATM   30  C16 UNL     1      25.432  -0.412  54.094  1.00  0.00     0.042 A 
HETATM   31  C17 UNL     1      26.173   0.761  54.207  1.00  0.00     0.117 A 
HETATM   32  F1  UNL     1      27.360   0.656  54.852  1.00  0.00    -0.206 F 
HETATM   33  C18 UNL     1      25.750   1.978  53.701  1.00  0.00     0.051 A 
ENDBRANCH  26  27
ENDBRANCH  25  26
ENDBRANCH  11  25
TORSDOF 5
ENDMDL
