MODEL 1
REMARK VINA RESULT:      -8.3      0.000      0.000
REMARK  4 active torsions:
REMARK  status: ('A' for Active; 'I' for Inactive)
REMARK    1  A    between atoms: N1_1  and  C1_2 
REMARK    2  A    between atoms: C1_2  and  C2_3 
REMARK    3  A    between atoms: C6_7  and  O1_8 
REMARK    4  A    between atoms: C9_12  and  N3_13 
ROOT
HETATM    1  C1  UNL     1      22.704   2.781  51.929  1.00  0.00     0.229 C 
HETATM    2  C8  UNL     1      24.114   3.245  51.561  1.00  0.00     0.139 C 
HETATM    3  N2  UNL     1      25.280   2.707  51.824  1.00  0.00    -0.242 NA
HETATM    4  C9  UNL     1      25.218   1.513  52.592  1.00  0.00     0.156 C 
HETATM    5  C14 UNL     1      24.071   1.063  53.008  1.00  0.00     0.113 C 
HETATM    6  O3  UNL     1      23.820  -0.095  53.729  1.00  0.00    -0.291 OA
HETATM    7  C15 UNL     1      22.431  -0.330  53.707  1.00  0.00     0.176 A 
HETATM    8  N4  UNL     1      21.738  -1.385  54.243  1.00  0.00    -0.236 NA
HETATM    9  C16 UNL     1      20.390  -1.451  54.079  1.00  0.00     0.119 A 
HETATM   10  C17 UNL     1      19.701  -0.457  53.371  1.00  0.00     0.020 A 
HETATM   11  C18 UNL     1      20.370   0.641  52.811  1.00  0.00     0.014 A 
HETATM   12  C19 UNL     1      21.725   0.659  53.010  1.00  0.00     0.009 A 
HETATM   13  C20 UNL     1      22.745   1.662  52.863  1.00  0.00     0.133 C 
ENDROOT
BRANCH   1  14
HETATM   14  N1  UNL     1      22.044   3.932  52.511  1.00  0.00     0.099 N 
HETATM   15  H1  UNL     1      21.110   3.672  52.904  1.00  0.00     0.314 HD
HETATM   16  H2  UNL     1      22.618   4.310  53.276  1.00  0.00     0.314 HD
ENDBRANCH   1  14
BRANCH   1  17
HETATM   17  C2  UNL     1      22.047   2.464  50.598  1.00  0.00    -0.011 A 
HETATM   18  C3  UNL     1      22.302   1.477  49.675  1.00  0.00     0.010 A 
HETATM   19  C4  UNL     1      21.551   1.406  48.527  1.00  0.00     0.003 A 
HETATM   20  C5  UNL     1      20.541   2.275  48.230  1.00  0.00     0.036 A 
HETATM   21  C6  UNL     1      20.268   3.273  49.141  1.00  0.00     0.066 A 
HETATM   22  C7  UNL     1      21.013   3.362  50.304  1.00  0.00     0.046 A 
BRANCH  21  23
HETATM   23  O1  UNL     1      19.238   4.142  48.817  1.00  0.00    -0.361 OA
HETATM   24  H6  UNL     1      19.073   5.025  49.289  1.00  0.00     0.217 HD
ENDBRANCH  21  23
ENDBRANCH   1  17
BRANCH   4  25
HETATM   25  N3  UNL     1      26.440   0.844  52.879  1.00  0.00    -0.360 N 
HETATM   26  C10 UNL     1      26.766  -0.322  52.074  1.00  0.00     0.151 C 
HETATM   27  C11 UNL     1      27.504  -1.350  52.911  1.00  0.00     0.187 C 
HETATM   28  O2  UNL     1      28.636  -0.711  53.417  1.00  0.00    -0.388 OA
HETATM   29  C12 UNL     1      28.203   0.143  54.434  1.00  0.00     0.187 C 
HETATM   30  C13 UNL     1      27.351   1.265  53.917  1.00  0.00     0.151 C 
ENDBRANCH   4  25
TORSDOF 4
ENDMDL
MODEL 2
REMARK VINA RESULT:      -8.1      1.571      2.015
REMARK  4 active torsions:
REMARK  status: ('A' for Active; 'I' for Inactive)
REMARK    1  A    between atoms: N1_1  and  C1_2 
REMARK    2  A    between atoms: C1_2  and  C2_3 
REMARK    3  A    between atoms: C6_7  and  O1_8 
REMARK    4  A    between atoms: C9_12  and  N3_13 
ROOT
HETATM    1  C1  UNL     1      24.323   2.689  52.163  1.00  0.00     0.229 C 
HETATM    2  C8  UNL     1      25.821   2.618  51.864  1.00  0.00     0.139 C 
HETATM    3  N2  UNL     1      26.696   1.679  52.132  1.00  0.00    -0.242 NA
HETATM    4  C9  UNL     1      26.165   0.561  52.829  1.00  0.00     0.156 C 
HETATM    5  C14 UNL     1      24.914   0.546  53.185  1.00  0.00     0.113 C 
HETATM    6  O3  UNL     1      24.223  -0.467  53.832  1.00  0.00    -0.291 OA
HETATM    7  C15 UNL     1      22.847  -0.174  53.754  1.00  0.00     0.176 A 
HETATM    8  N4  UNL     1      21.791  -0.922  54.209  1.00  0.00    -0.236 NA
HETATM    9  C16 UNL     1      20.522  -0.482  54.002  1.00  0.00     0.119 A 
HETATM   10  C17 UNL     1      20.279   0.724  53.330  1.00  0.00     0.020 A 
HETATM   11  C18 UNL     1      21.329   1.522  52.853  1.00  0.00     0.014 A 
HETATM   12  C19 UNL     1      22.585   1.033  53.094  1.00  0.00     0.009 A 
HETATM   13  C20 UNL     1      23.908   1.596  53.034  1.00  0.00     0.133 C 
ENDROOT
BRANCH   1  14
HETATM   14  N1  UNL     1      24.102   3.977  52.788  1.00  0.00     0.099 N 
HETATM   15  H1  UNL     1      24.812   4.162  53.534  1.00  0.00     0.314 HD
HETATM   16  H2  UNL     1      24.180   4.722  52.083  1.00  0.00     0.314 HD
ENDBRANCH   1  14
BRANCH   1  17
HETATM   17  C2  UNL     1      23.661   2.691  50.797  1.00  0.00    -0.011 A 
HETATM   18  C3  UNL     1      22.954   1.717  50.133  1.00  0.00     0.010 A 
HETATM   19  C4  UNL     1      22.450   1.974  48.881  1.00  0.00     0.003 A 
HETATM   20  C5  UNL     1      22.610   3.163  48.231  1.00  0.00     0.036 A 
HETATM   21  C6  UNL     1      23.317   4.154  48.878  1.00  0.00     0.066 A 
HETATM   22  C7  UNL     1      23.833   3.916  50.140  1.00  0.00     0.046 A 
BRANCH  21  23
HETATM   23  O1  UNL     1      23.467   5.353  48.198  1.00  0.00    -0.361 OA
HETATM   24  H6  UNL     1      24.265   5.576  47.613  1.00  0.00     0.217 HD
ENDBRANCH  21  23
ENDBRANCH   1  17
BRANCH   4  25
HETATM   25  N3  UNL     1      27.042  -0.521  53.115  1.00  0.00    -0.360 N 
HETATM   26  C10 UNL     1      28.234  -0.225  53.894  1.00  0.00     0.151 C 
HETATM   27  C11 UNL     1      29.389  -1.098  53.442  1.00  0.00     0.187 C 
HETATM   28  O2  UNL     1      28.967  -2.420  53.584  1.00  0.00    -0.388 OA
HETATM   29  C12 UNL     1      28.069  -2.676  52.547  1.00  0.00     0.187 C 
HETATM   30  C13 UNL     1      26.806  -1.875  52.671  1.00  0.00     0.151 C 
ENDBRANCH   4  25
TORSDOF 4
ENDMDL
MODEL 3
REMARK VINA RESULT:      -7.5      3.029      5.609
REMARK  4 active torsions:
REMARK  status: ('A' for Active; 'I' for Inactive)
REMARK    1  A    between atoms: N1_1  and  C1_2 
REMARK    2  A    between atoms: C1_2  and  C2_3 
REMARK    3  A    between atoms: C6_7  and  O1_8 
REMARK    4  A    between atoms: C9_12  and  N3_13 
ROOT
HETATM    1  C1  UNL     1      23.700   4.752  51.114  1.00  0.00     0.229 C 
HETATM    2  C8  UNL     1      24.089   4.154  52.466  1.00  0.00     0.139 C 
HETATM    3  N2  UNL     1      23.690   3.051  53.052  1.00  0.00    -0.242 NA
HETATM    4  C9  UNL     1      22.727   2.309  52.317  1.00  0.00     0.156 C 
HETATM    5  C14 UNL     1      22.282   2.760  51.182  1.00  0.00     0.113 C 
HETATM    6  O3  UNL     1      21.378   2.157  50.319  1.00  0.00    -0.291 OA
HETATM    7  C15 UNL     1      21.413   2.853  49.095  1.00  0.00     0.176 A 
HETATM    8  N4  UNL     1      20.727   2.578  47.940  1.00  0.00    -0.236 NA
HETATM    9  C16 UNL     1      20.929   3.354  46.842  1.00  0.00     0.119 A 
HETATM   10  C17 UNL     1      21.827   4.429  46.875  1.00  0.00     0.020 A 
HETATM   11  C18 UNL     1      22.546   4.748  48.036  1.00  0.00     0.014 A 
HETATM   12  C19 UNL     1      22.300   3.938  49.112  1.00  0.00     0.009 A 
HETATM   13  C20 UNL     1      22.582   4.029  50.520  1.00  0.00     0.133 C 
ENDROOT
BRANCH   1  14
HETATM   14  N1  UNL     1      23.357   6.136  51.374  1.00  0.00     0.099 N 
HETATM   15  H1  UNL     1      23.994   6.554  52.091  1.00  0.00     0.314 HD
HETATM   16  H2  UNL     1      23.449   6.684  50.507  1.00  0.00     0.314 HD
ENDBRANCH   1  14
BRANCH   1  17
HETATM   17  C2  UNL     1      24.979   4.713  50.297  1.00  0.00    -0.011 A 
HETATM   18  C3  UNL     1      25.807   3.668  49.964  1.00  0.00     0.010 A 
HETATM   19  C4  UNL     1      26.926   3.901  49.201  1.00  0.00     0.003 A 
HETATM   20  C5  UNL     1      27.282   5.135  48.738  1.00  0.00     0.036 A 
HETATM   21  C6  UNL     1      26.466   6.198  49.062  1.00  0.00     0.066 A 
HETATM   22  C7  UNL     1      25.334   5.985  49.830  1.00  0.00     0.046 A 
BRANCH  21  23
HETATM   23  O1  UNL     1      26.848   7.441  48.581  1.00  0.00    -0.361 OA
HETATM   24  H6  UNL     1      26.296   8.285  48.692  1.00  0.00     0.217 HD
ENDBRANCH  21  23
ENDBRANCH   1  17
BRANCH   4  25
HETATM   25  N3  UNL     1      22.278   1.076  52.867  1.00  0.00    -0.360 N 
HETATM   26  C10 UNL     1      20.898   1.011  53.321  1.00  0.00     0.151 C 
HETATM   27  C11 UNL     1      20.786   0.110  54.536  1.00  0.00     0.187 C 
HETATM   28  O2  UNL     1      21.287  -1.135  54.154  1.00  0.00    -0.388 OA
HETATM   29  C12 UNL     1      22.676  -1.014  54.087  1.00  0.00     0.187 C 
HETATM   30  C13 UNL     1      23.119  -0.091  52.991  1.00  0.00     0.151 C 
ENDBRANCH   4  25
TORSDOF 4
ENDMDL
MODEL 4
REMARK VINA RESULT:      -7.3      9.222     10.882
REMARK  4 active torsions:
REMARK  status: ('A' for Active; 'I' for Inactive)
REMARK    1  A    between atoms: N1_1  and  C1_2 
REMARK    2  A    between atoms: C1_2  and  C2_3 
REMARK    3  A    between atoms: C6_7  and  O1_8 
REMARK    4  A    between atoms: C9_12  and  N3_13 
ROOT
HETATM    1  C1  UNL     1      30.861   8.876  48.468  1.00  0.00     0.229 C 
HETATM    2  C8  UNL     1      32.333   8.980  48.068  1.00  0.00     0.139 C 
HETATM    3  N2  UNL     1      33.190   8.044  47.737  1.00  0.00    -0.242 NA
HETATM    4  C9  UNL     1      32.666   6.725  47.777  1.00  0.00     0.156 C 
HETATM    5  C14 UNL     1      31.441   6.520  48.162  1.00  0.00     0.113 C 
HETATM    6  O3  UNL     1      30.758   5.314  48.227  1.00  0.00    -0.291 OA
HETATM    7  C15 UNL     1      29.390   5.598  48.416  1.00  0.00     0.176 A 
HETATM    8  N4  UNL     1      28.341   4.719  48.484  1.00  0.00    -0.236 NA
HETATM    9  C16 UNL     1      27.077   5.197  48.633  1.00  0.00     0.119 A 
HETATM   10  C17 UNL     1      26.833   6.575  48.716  1.00  0.00     0.020 A 
HETATM   11  C18 UNL     1      27.878   7.508  48.656  1.00  0.00     0.014 A 
HETATM   12  C19 UNL     1      29.129   6.971  48.511  1.00  0.00     0.009 A 
HETATM   13  C20 UNL     1      30.464   7.487  48.660  1.00  0.00     0.133 C 
ENDROOT
BRANCH   1  14
HETATM   14  N1  UNL     1      30.725   9.640  49.692  1.00  0.00     0.099 N 
HETATM   15  H1  UNL     1      29.871   9.351  50.224  1.00  0.00     0.314 HD
HETATM   16  H2  UNL     1      31.545   9.480  50.293  1.00  0.00     0.314 HD
ENDBRANCH   1  14
BRANCH   1  17
HETATM   17  C2  UNL     1      30.114   9.596  47.360  1.00  0.00    -0.011 A 
HETATM   18  C3  UNL     1      30.021   9.334  46.013  1.00  0.00     0.010 A 
HETATM   19  C4  UNL     1      29.266  10.155  45.210  1.00  0.00     0.003 A 
HETATM   20  C5  UNL     1      28.584  11.244  45.669  1.00  0.00     0.036 A 
HETATM   21  C6  UNL     1      28.664  11.525  47.016  1.00  0.00     0.066 A 
HETATM   22  C7  UNL     1      29.418  10.712  47.843  1.00  0.00     0.046 A 
BRANCH  21  23
HETATM   23  O1  UNL     1      27.963  12.637  47.460  1.00  0.00    -0.361 OA
HETATM   24  H6  UNL     1      28.364  13.364  48.042  1.00  0.00     0.217 HD
ENDBRANCH  21  23
ENDBRANCH   1  17
BRANCH   4  25
HETATM   25  N3  UNL     1      33.522   5.658  47.386  1.00  0.00    -0.360 N 
HETATM   26  C10 UNL     1      33.430   5.201  46.008  1.00  0.00     0.151 C 
HETATM   27  C11 UNL     1      33.669   3.705  45.933  1.00  0.00     0.187 C 
HETATM   28  O2  UNL     1      34.925   3.475  46.495  1.00  0.00    -0.388 OA
HETATM   29  C12 UNL     1      34.787   3.615  47.876  1.00  0.00     0.187 C 
HETATM   30  C13 UNL     1      34.459   5.022  48.281  1.00  0.00     0.151 C 
ENDBRANCH   4  25
TORSDOF 4
ENDMDL
MODEL 5
REMARK VINA RESULT:      -7.1      3.587      5.175
REMARK  4 active torsions:
REMARK  status: ('A' for Active; 'I' for Inactive)
REMARK    1  A    between atoms: N1_1  and  C1_2 
REMARK    2  A    between atoms: C1_2  and  C2_3 
REMARK    3  A    between atoms: C6_7  and  O1_8 
REMARK    4  A    between atoms: C9_12  and  N3_13 
ROOT
HETATM    1  C1  UNL     1      23.386   3.906  51.142  1.00  0.00     0.229 C 
HETATM    2  C8  UNL     1      23.308   5.110  50.203  1.00  0.00     0.139 C 
HETATM    3  N2  UNL     1      24.241   5.689  49.487  1.00  0.00    -0.242 NA
HETATM    4  C9  UNL     1      25.532   5.113  49.624  1.00  0.00     0.156 C 
HETATM    5  C14 UNL     1      25.721   4.121  50.443  1.00  0.00     0.113 C 
HETATM    6  O3  UNL     1      26.894   3.417  50.675  1.00  0.00    -0.291 OA
HETATM    7  C15 UNL     1      26.569   2.259  51.410  1.00  0.00     0.176 A 
HETATM    8  N4  UNL     1      27.401   1.248  51.816  1.00  0.00    -0.236 NA
HETATM    9  C16 UNL     1      26.884   0.187  52.490  1.00  0.00     0.119 A 
HETATM   10  C17 UNL     1      25.514   0.112  52.773  1.00  0.00     0.020 A 
HETATM   11  C18 UNL     1      24.628   1.126  52.381  1.00  0.00     0.014 A 
HETATM   12  C19 UNL     1      25.203   2.173  51.711  1.00  0.00     0.009 A 
HETATM   13  C20 UNL     1      24.769   3.499  51.363  1.00  0.00     0.133 C 
ENDROOT
BRANCH   1  14
HETATM   14  N1  UNL     1      22.753   4.321  52.377  1.00  0.00     0.099 N 
HETATM   15  H1  UNL     1      22.139   5.154  52.225  1.00  0.00     0.314 HD
HETATM   16  H2  UNL     1      22.168   3.556  52.741  1.00  0.00     0.314 HD
ENDBRANCH   1  14
BRANCH   1  17
HETATM   17  C2  UNL     1      22.518   2.851  50.481  1.00  0.00    -0.011 A 
HETATM   18  C3  UNL     1      22.599   2.259  49.243  1.00  0.00     0.010 A 
HETATM   19  C4  UNL     1      21.671   1.314  48.877  1.00  0.00     0.003 A 
HETATM   20  C5  UNL     1      20.644   0.912  49.681  1.00  0.00     0.036 A 
HETATM   21  C6  UNL     1      20.544   1.493  50.926  1.00  0.00     0.066 A 
HETATM   22  C7  UNL     1      21.468   2.447  51.315  1.00  0.00     0.046 A 
BRANCH  21  23
HETATM   23  O1  UNL     1      19.492   1.068  51.725  1.00  0.00    -0.361 OA
HETATM   24  H6  UNL     1      19.099   1.618  52.482  1.00  0.00     0.217 HD
ENDBRANCH  21  23
ENDBRANCH   1  17
BRANCH   4  25
HETATM   25  N3  UNL     1      26.588   5.656  48.842  1.00  0.00    -0.360 N 
HETATM   26  C10 UNL     1      27.694   4.772  48.509  1.00  0.00     0.151 C 
HETATM   27  C11 UNL     1      28.996   5.549  48.469  1.00  0.00     0.187 C 
HETATM   28  O2  UNL     1      28.821   6.569  47.533  1.00  0.00    -0.388 OA
HETATM   29  C12 UNL     1      27.999   7.530  48.124  1.00  0.00     0.187 C 
HETATM   30  C13 UNL     1      26.610   7.022  48.374  1.00  0.00     0.151 C 
ENDBRANCH   4  25
TORSDOF 4
ENDMDL
MODEL 6
REMARK VINA RESULT:      -7.1     10.698     13.638
REMARK  4 active torsions:
REMARK  status: ('A' for Active; 'I' for Inactive)
REMARK    1  A    between atoms: N1_1  and  C1_2 
REMARK    2  A    between atoms: C1_2  and  C2_3 
REMARK    3  A    between atoms: C6_7  and  O1_8 
REMARK    4  A    between atoms: C9_12  and  N3_13 
ROOT
HETATM    1  C1  UNL     1      33.609   7.080  47.569  1.00  0.00     0.229 C 
HETATM    2  C8  UNL     1      33.080   7.292  48.989  1.00  0.00     0.139 C 
HETATM    3  N2  UNL     1      32.087   8.030  49.422  1.00  0.00    -0.242 NA
HETATM    4  C9  UNL     1      31.412   8.763  48.410  1.00  0.00     0.156 C 
HETATM    5  C14 UNL     1      31.819   8.702  47.177  1.00  0.00     0.113 C 
HETATM    6  O3  UNL     1      31.263   9.314  46.063  1.00  0.00    -0.291 OA
HETATM    7  C15 UNL     1      31.847   8.743  44.915  1.00  0.00     0.176 A 
HETATM    8  N4  UNL     1      31.565   9.002  43.599  1.00  0.00    -0.236 NA
HETATM    9  C16 UNL     1      32.217   8.311  42.626  1.00  0.00     0.119 A 
HETATM   10  C17 UNL     1      33.171   7.338  42.952  1.00  0.00     0.020 A 
HETATM   11  C18 UNL     1      33.494   7.044  44.285  1.00  0.00     0.014 A 
HETATM   12  C19 UNL     1      32.811   7.773  45.221  1.00  0.00     0.009 A 
HETATM   13  C20 UNL     1      32.983   8.004  46.631  1.00  0.00     0.133 C 
ENDROOT
BRANCH   1  14
HETATM   14  N1  UNL     1      35.041   7.289  47.642  1.00  0.00     0.099 N 
HETATM   15  H1  UNL     1      35.300   8.245  47.305  1.00  0.00     0.314 HD
HETATM   16  H2  UNL     1      35.355   7.199  48.618  1.00  0.00     0.314 HD
ENDBRANCH   1  14
BRANCH   1  17
HETATM   17  C2  UNL     1      33.344   5.614  47.279  1.00  0.00    -0.011 A 
HETATM   18  C3  UNL     1      32.175   4.890  47.268  1.00  0.00     0.010 A 
HETATM   19  C4  UNL     1      32.207   3.549  46.970  1.00  0.00     0.003 A 
HETATM   20  C5  UNL     1      33.351   2.866  46.676  1.00  0.00     0.036 A 
HETATM   21  C6  UNL     1      34.535   3.573  46.682  1.00  0.00     0.066 A 
HETATM   22  C7  UNL     1      34.526   4.924  46.980  1.00  0.00     0.046 A 
BRANCH  21  23
HETATM   23  O1  UNL     1      35.684   2.858  46.380  1.00  0.00    -0.361 OA
HETATM   24  H6  UNL     1      36.361   2.557  47.073  1.00  0.00     0.217 HD
ENDBRANCH  21  23
ENDBRANCH   1  17
BRANCH   4  25
HETATM   25  N3  UNL     1      30.293   9.552  48.796  1.00  0.00    -0.360 N 
HETATM   26  C10 UNL     1      29.038   8.857  49.034  1.00  0.00     0.151 C 
HETATM   27  C11 UNL     1      27.868   9.724  48.609  1.00  0.00     0.187 C 
HETATM   28  O2  UNL     1      27.971  10.912  49.333  1.00  0.00    -0.388 OA
HETATM   29  C12 UNL     1      29.015  11.646  48.767  1.00  0.00     0.187 C 
HETATM   30  C13 UNL     1      30.349  10.986  48.958  1.00  0.00     0.151 C 
ENDBRANCH   4  25
TORSDOF 4
ENDMDL
MODEL 7
REMARK VINA RESULT:      -7.1      8.216      9.629
REMARK  4 active torsions:
REMARK  status: ('A' for Active; 'I' for Inactive)
REMARK    1  A    between atoms: N1_1  and  C1_2 
REMARK    2  A    between atoms: C1_2  and  C2_3 
REMARK    3  A    between atoms: C6_7  and  O1_8 
REMARK    4  A    between atoms: C9_12  and  N3_13 
ROOT
HETATM    1  C1  UNL     1      28.986   8.579  47.568  1.00  0.00     0.229 C 
HETATM    2  C8  UNL     1      30.373   8.841  46.979  1.00  0.00     0.139 C 
HETATM    3  N2  UNL     1      31.389   8.031  46.807  1.00  0.00    -0.242 NA
HETATM    4  C9  UNL     1      31.166   6.703  47.259  1.00  0.00     0.156 C 
HETATM    5  C14 UNL     1      30.042   6.387  47.830  1.00  0.00     0.113 C 
HETATM    6  O3  UNL     1      29.640   5.143  48.295  1.00  0.00    -0.291 OA
HETATM    7  C15 UNL     1      28.259   5.204  48.566  1.00  0.00     0.176 A 
HETATM    8  N4  UNL     1      27.431   4.198  48.993  1.00  0.00    -0.236 NA
HETATM    9  C16 UNL     1      26.105   4.450  49.161  1.00  0.00     0.119 A 
HETATM   10  C17 UNL     1      25.576   5.722  48.906  1.00  0.00     0.020 A 
HETATM   11  C18 UNL     1      26.388   6.780  48.473  1.00  0.00     0.014 A 
HETATM   12  C19 UNL     1      27.714   6.472  48.325  1.00  0.00     0.009 A 
HETATM   13  C20 UNL     1      28.913   7.252  48.169  1.00  0.00     0.133 C 
ENDROOT
BRANCH   1  14
HETATM   14  N1  UNL     1      28.767   9.619  48.553  1.00  0.00     0.099 N 
HETATM   15  H1  UNL     1      29.462  10.393  48.444  1.00  0.00     0.314 HD
HETATM   16  H2  UNL     1      27.825  10.016  48.433  1.00  0.00     0.314 HD
ENDBRANCH   1  14
BRANCH   1  17
HETATM   17  C2  UNL     1      28.032   8.797  46.408  1.00  0.00    -0.011 A 
HETATM   18  C3  UNL     1      28.042   8.307  45.124  1.00  0.00     0.010 A 
HETATM   19  C4  UNL     1      27.044   8.665  44.250  1.00  0.00     0.003 A 
HETATM   20  C5  UNL     1      26.015   9.500  44.578  1.00  0.00     0.036 A 
HETATM   21  C6  UNL     1      25.986  10.003  45.861  1.00  0.00     0.066 A 
HETATM   22  C7  UNL     1      26.981   9.656  46.757  1.00  0.00     0.046 A 
BRANCH  21  23
HETATM   23  O1  UNL     1      24.931  10.849  46.170  1.00  0.00    -0.361 OA
HETATM   24  H6  UNL     1      23.960  10.638  45.971  1.00  0.00     0.217 HD
ENDBRANCH  21  23
ENDBRANCH   1  17
BRANCH   4  25
HETATM   25  N3  UNL     1      32.205   5.752  47.063  1.00  0.00    -0.360 N 
HETATM   26  C10 UNL     1      32.500   5.358  45.694  1.00  0.00     0.151 C 
HETATM   27  C11 UNL     1      32.916   3.901  45.644  1.00  0.00     0.187 C 
HETATM   28  O2  UNL     1      34.018   3.773  46.490  1.00  0.00    -0.388 OA
HETATM   29  C12 UNL     1      33.536   3.827  47.799  1.00  0.00     0.187 C 
HETATM   30  C13 UNL     1      32.965   5.170  48.145  1.00  0.00     0.151 C 
ENDBRANCH   4  25
TORSDOF 4
ENDMDL
MODEL 8
REMARK VINA RESULT:      -7.1      3.282      6.805
REMARK  4 active torsions:
REMARK  status: ('A' for Active; 'I' for Inactive)
REMARK    1  A    between atoms: N1_1  and  C1_2 
REMARK    2  A    between atoms: C1_2  and  C2_3 
REMARK    3  A    between atoms: C6_7  and  O1_8 
REMARK    4  A    between atoms: C9_12  and  N3_13 
ROOT
HETATM    1  C1  UNL     1      21.122   1.624  50.500  1.00  0.00     0.229 C 
HETATM    2  C8  UNL     1      19.910   2.232  49.792  1.00  0.00     0.139 C 
HETATM    3  N2  UNL     1      18.628   2.050  49.998  1.00  0.00    -0.242 NA
HETATM    4  C9  UNL     1      18.323   1.125  51.032  1.00  0.00     0.156 C 
HETATM    5  C14 UNL     1      19.280   0.506  51.658  1.00  0.00     0.113 C 
HETATM    6  O3  UNL     1      19.170  -0.394  52.708  1.00  0.00    -0.291 OA
HETATM    7  C15 UNL     1      20.454  -0.583  53.256  1.00  0.00     0.176 A 
HETATM    8  N4  UNL     1      20.813  -1.344  54.338  1.00  0.00    -0.236 NA
HETATM    9  C16 UNL     1      22.113  -1.366  54.738  1.00  0.00     0.119 A 
HETATM   10  C17 UNL     1      23.088  -0.624  54.058  1.00  0.00     0.020 A 
HETATM   11  C18 UNL     1      22.765   0.163  52.943  1.00  0.00     0.014 A 
HETATM   12  C19 UNL     1      21.444   0.145  52.583  1.00  0.00     0.009 A 
HETATM   13  C20 UNL     1      20.720   0.559  51.410  1.00  0.00     0.133 C 
ENDROOT
BRANCH   1  14
HETATM   14  N1  UNL     1      21.988   1.126  49.452  1.00  0.00     0.099 N 
HETATM   15  H1  UNL     1      21.463   0.508  48.790  1.00  0.00     0.314 HD
HETATM   16  H2  UNL     1      22.372   1.916  48.915  1.00  0.00     0.314 HD
ENDBRANCH   1  14
BRANCH   1  17
HETATM   17  C2  UNL     1      21.800   2.804  51.173  1.00  0.00    -0.011 A 
HETATM   18  C3  UNL     1      21.309   3.767  52.022  1.00  0.00     0.010 A 
HETATM   19  C4  UNL     1      22.146   4.746  52.500  1.00  0.00     0.003 A 
HETATM   20  C5  UNL     1      23.470   4.830  52.181  1.00  0.00     0.036 A 
HETATM   21  C6  UNL     1      23.984   3.874  51.331  1.00  0.00     0.066 A 
HETATM   22  C7  UNL     1      23.158   2.880  50.838  1.00  0.00     0.046 A 
BRANCH  21  23
HETATM   23  O1  UNL     1      25.332   3.981  51.022  1.00  0.00    -0.361 OA
HETATM   24  H6  UNL     1      25.691   4.065  50.077  1.00  0.00     0.217 HD
ENDBRANCH  21  23
ENDBRANCH   1  17
BRANCH   4  25
HETATM   25  N3  UNL     1      16.953   0.909  51.346  1.00  0.00    -0.360 N 
HETATM   26  C10 UNL     1      16.118   2.085  51.530  1.00  0.00     0.151 C 
HETATM   27  C11 UNL     1      15.068   1.825  52.593  1.00  0.00     0.187 C 
HETATM   28  O2  UNL     1      14.343   0.710  52.170  1.00  0.00    -0.388 OA
HETATM   29  C12 UNL     1      15.155  -0.406  52.374  1.00  0.00     0.187 C 
HETATM   30  C13 UNL     1      16.367  -0.403  51.489  1.00  0.00     0.151 C 
ENDBRANCH   4  25
TORSDOF 4
ENDMDL
MODEL 9
REMARK VINA RESULT:      -7.0      3.583      6.206
REMARK  4 active torsions:
REMARK  status: ('A' for Active; 'I' for Inactive)
REMARK    1  A    between atoms: N1_1  and  C1_2 
REMARK    2  A    between atoms: C1_2  and  C2_3 
REMARK    3  A    between atoms: C6_7  and  O1_8 
REMARK    4  A    between atoms: C9_12  and  N3_13 
ROOT
HETATM    1  C1  UNL     1      23.411   6.029  50.070  1.00  0.00     0.229 C 
HETATM    2  C8  UNL     1      23.871   5.585  51.460  1.00  0.00     0.139 C 
HETATM    3  N2  UNL     1      23.808   4.410  52.039  1.00  0.00    -0.242 NA
HETATM    4  C9  UNL     1      23.196   3.398  51.252  1.00  0.00     0.156 C 
HETATM    5  C14 UNL     1      22.717   3.683  50.078  1.00  0.00     0.113 C 
HETATM    6  O3  UNL     1      22.125   2.822  49.166  1.00  0.00    -0.291 OA
HETATM    7  C15 UNL     1      22.024   3.496  47.932  1.00  0.00     0.176 A 
HETATM    8  N4  UNL     1      21.553   3.017  46.737  1.00  0.00    -0.236 NA
HETATM    9  C16 UNL     1      21.575   3.819  45.640  1.00  0.00     0.119 A 
HETATM   10  C17 UNL     1      22.070   5.128  45.715  1.00  0.00     0.020 A 
HETATM   11  C18 UNL     1      22.556   5.660  46.918  1.00  0.00     0.014 A 
HETATM   12  C19 UNL     1      22.507   4.810  47.991  1.00  0.00     0.009 A 
HETATM   13  C20 UNL     1      22.637   4.983  49.413  1.00  0.00     0.133 C 
ENDROOT
BRANCH   1  14
HETATM   14  N1  UNL     1      22.619   7.225  50.275  1.00  0.00     0.099 N 
HETATM   15  H1  UNL     1      21.932   7.093  51.053  1.00  0.00     0.314 HD
HETATM   16  H2  UNL     1      23.236   8.010  50.524  1.00  0.00     0.314 HD
ENDBRANCH   1  14
BRANCH   1  17
HETATM   17  C2  UNL     1      24.692   6.411  49.350  1.00  0.00    -0.011 A 
HETATM   18  C3  UNL     1      25.017   7.523  48.610  1.00  0.00     0.010 A 
HETATM   19  C4  UNL     1      26.267   7.628  48.051  1.00  0.00     0.003 A 
HETATM   20  C5  UNL     1      27.237   6.676  48.181  1.00  0.00     0.036 A 
HETATM   21  C6  UNL     1      26.932   5.552  48.919  1.00  0.00     0.066 A 
HETATM   22  C7  UNL     1      25.678   5.426  49.490  1.00  0.00     0.046 A 
BRANCH  21  23
HETATM   23  O1  UNL     1      27.932   4.599  49.037  1.00  0.00    -0.361 OA
HETATM   24  H6  UNL     1      27.762   3.599  49.062  1.00  0.00     0.217 HD
ENDBRANCH  21  23
ENDBRANCH   1  17
BRANCH   4  25
HETATM   25  N3  UNL     1      23.133   2.084  51.794  1.00  0.00    -0.360 N 
HETATM   26  C10 UNL     1      21.837   1.617  52.260  1.00  0.00     0.151 C 
HETATM   27  C11 UNL     1      22.006   0.714  53.467  1.00  0.00     0.187 C 
HETATM   28  O2  UNL     1      22.842  -0.328  53.068  1.00  0.00    -0.388 OA
HETATM   29  C12 UNL     1      24.135   0.192  52.991  1.00  0.00     0.187 C 
HETATM   30  C13 UNL     1      24.279   1.212  51.899  1.00  0.00     0.151 C 
ENDBRANCH   4  25
TORSDOF 4
ENDMDL
