MODEL 1
REMARK VINA RESULT:      -7.7      0.000      0.000
REMARK  6 active torsions:
REMARK  status: ('A' for Active; 'I' for Inactive)
REMARK    1  A    between atoms: C3_4  and  C4_5 
REMARK    2  A    between atoms: C4_5  and  C5_6 
REMARK    3  A    between atoms: C5_6  and  C6_7 
REMARK    4  A    between atoms: C6_7  and  N1_8 
REMARK    5  A    between atoms: N1_8  and  C7_9 
REMARK    6  A    between atoms: C14_20  and  O2_21 
ROOT
HETATM    1  C7  UNL     1      23.626   2.964  52.216  1.00  0.00     0.139 A 
HETATM    2  N2  UNL     1      22.308   2.743  52.300  1.00  0.00    -0.227 NA
HETATM    3  C8  UNL     1      21.814   1.540  52.716  1.00  0.00     0.237 A 
HETATM    4  N3  UNL     1      22.493   0.440  53.090  1.00  0.00    -0.216 NA
HETATM    5  C9  UNL     1      23.880   0.538  53.048  1.00  0.00     0.196 A 
HETATM    6  C10 UNL     1      24.365   1.839  52.598  1.00  0.00     0.125 A 
HETATM    7  N4  UNL     1      25.775   1.501  52.720  1.00  0.00    -0.372 N 
HETATM    8  C11 UNL     1      26.654   0.764  51.722  1.00  0.00     0.126 C 
HETATM    9  C12 UNL     1      26.492  -0.707  52.155  1.00  0.00     0.055 C 
HETATM   10  C13 UNL     1      25.916  -0.818  53.540  1.00  0.00     0.162 C 
HETATM   11  O1  UNL     1      24.510  -0.673  53.461  1.00  0.00    -0.324 OA
HETATM   12  C14 UNL     1      26.483   0.140  54.557  1.00  0.00     0.168 C 
HETATM   13  C16 UNL     1      26.681   1.563  53.934  1.00  0.00     0.157 C 
ENDROOT
BRANCH   1  14
HETATM   14  N1  UNL     1      24.529   4.037  51.832  1.00  0.00    -0.252 NA
HETATM   15  H7  UNL     1      24.655   4.137  52.826  1.00  0.00     0.134 HD
BRANCH  14  16
HETATM   16  C6  UNL     1      24.188   3.729  50.430  1.00  0.00     0.063 C 
BRANCH  16  17
HETATM   17  C5  UNL     1      25.065   3.770  49.471  1.00  0.00     0.009 C 
BRANCH  17  18
HETATM   18  C4  UNL     1      25.670   5.039  49.204  1.00  0.00    -0.005 C 
BRANCH  18  19
HETATM   19  C3  UNL     1      26.933   5.094  48.875  1.00  0.00     0.113 A 
HETATM   20  C2  UNL     1      28.255   5.367  48.446  1.00  0.00    -0.013 A 
HETATM   21  C1  UNL     1      29.493   5.463  48.105  1.00  0.00     0.027 C 
HETATM   22 BR1  UNL     1      27.490   7.103  48.063  1.00  0.00    -0.118 Br
ENDBRANCH  18  19
ENDBRANCH  17  18
ENDBRANCH  16  17
ENDBRANCH  14  16
ENDBRANCH   1  14
BRANCH  12  23
HETATM   23  O2  UNL     1      27.611  -0.265  55.198  1.00  0.00    -0.386 OA
HETATM   24  C15 UNL     1      28.819   0.177  54.776  1.00  0.00     0.202 C 
ENDBRANCH  12  23
TORSDOF 6
ENDMDL
MODEL 2
REMARK VINA RESULT:      -7.4      1.042      1.228
REMARK  6 active torsions:
REMARK  status: ('A' for Active; 'I' for Inactive)
REMARK    1  A    between atoms: C3_4  and  C4_5 
REMARK    2  A    between atoms: C4_5  and  C5_6 
REMARK    3  A    between atoms: C5_6  and  C6_7 
REMARK    4  A    between atoms: C6_7  and  N1_8 
REMARK    5  A    between atoms: N1_8  and  C7_9 
REMARK    6  A    between atoms: C14_20  and  O2_21 
ROOT
HETATM    1  C7  UNL     1      23.511   3.108  52.387  1.00  0.00     0.139 A 
HETATM    2  N2  UNL     1      22.198   2.840  52.382  1.00  0.00    -0.227 NA
HETATM    3  C8  UNL     1      21.728   1.583  52.632  1.00  0.00     0.237 A 
HETATM    4  N3  UNL     1      22.427   0.467  52.909  1.00  0.00    -0.216 NA
HETATM    5  C9  UNL     1      23.811   0.610  52.946  1.00  0.00     0.196 A 
HETATM    6  C10 UNL     1      24.270   1.967  52.672  1.00  0.00     0.125 A 
HETATM    7  N4  UNL     1      25.684   1.659  52.822  1.00  0.00    -0.372 N 
HETATM    8  C11 UNL     1      26.632   1.069  51.789  1.00  0.00     0.126 C 
HETATM    9  C12 UNL     1      26.501  -0.447  52.041  1.00  0.00     0.055 C 
HETATM   10  C13 UNL     1      25.868  -0.735  53.375  1.00  0.00     0.162 C 
HETATM   11  O1  UNL     1      24.462  -0.623  53.246  1.00  0.00    -0.324 OA
HETATM   12  C14 UNL     1      26.356   0.113  54.521  1.00  0.00     0.168 C 
HETATM   13  C16 UNL     1      26.533   1.604  54.077  1.00  0.00     0.157 C 
ENDROOT
BRANCH   1  14
HETATM   14  N1  UNL     1      24.392   4.243  52.174  1.00  0.00    -0.252 NA
HETATM   15  H7  UNL     1      25.040   3.703  52.724  1.00  0.00     0.134 HD
BRANCH  14  16
HETATM   16  C6  UNL     1      23.294   4.865  51.411  1.00  0.00     0.063 C 
BRANCH  16  17
HETATM   17  C5  UNL     1      23.501   5.742  50.473  1.00  0.00     0.009 C 
BRANCH  17  18
HETATM   18  C4  UNL     1      24.074   5.258  49.254  1.00  0.00    -0.005 C 
BRANCH  18  19
HETATM   19  C3  UNL     1      25.300   5.585  48.945  1.00  0.00     0.113 A 
HETATM   20  C2  UNL     1      26.686   5.732  48.692  1.00  0.00    -0.013 A 
HETATM   21  C1  UNL     1      27.910   6.014  48.404  1.00  0.00     0.027 C 
HETATM   22 BR1  UNL     1      26.731   3.917  49.364  1.00  0.00    -0.118 Br
ENDBRANCH  18  19
ENDBRANCH  17  18
ENDBRANCH  16  17
ENDBRANCH  14  16
ENDBRANCH   1  14
BRANCH  12  23
HETATM   23  O2  UNL     1      27.467  -0.331  55.165  1.00  0.00    -0.386 OA
HETATM   24  C15 UNL     1      28.665   0.248  54.916  1.00  0.00     0.202 C 
ENDBRANCH  12  23
TORSDOF 6
ENDMDL
MODEL 3
REMARK VINA RESULT:      -7.2      4.204      6.263
REMARK  6 active torsions:
REMARK  status: ('A' for Active; 'I' for Inactive)
REMARK    1  A    between atoms: C3_4  and  C4_5 
REMARK    2  A    between atoms: C4_5  and  C5_6 
REMARK    3  A    between atoms: C5_6  and  C6_7 
REMARK    4  A    between atoms: C6_7  and  N1_8 
REMARK    5  A    between atoms: N1_8  and  C7_9 
REMARK    6  A    between atoms: C14_20  and  O2_21 
ROOT
HETATM    1  C7  UNL     1      22.927  -0.198  53.338  1.00  0.00     0.139 A 
HETATM    2  N2  UNL     1      22.327  -0.901  54.307  1.00  0.00    -0.227 NA
HETATM    3  C8  UNL     1      23.033  -1.415  55.355  1.00  0.00     0.237 A 
HETATM    4  N3  UNL     1      24.354  -1.324  55.600  1.00  0.00    -0.216 NA
HETATM    5  C9  UNL     1      25.098  -0.613  54.663  1.00  0.00     0.196 A 
HETATM    6  C10 UNL     1      24.304  -0.082  53.560  1.00  0.00     0.125 A 
HETATM    7  N4  UNL     1      25.426   0.552  52.886  1.00  0.00    -0.372 N 
HETATM    8  C11 UNL     1      26.430  -0.079  51.934  1.00  0.00     0.126 C 
HETATM    9  C12 UNL     1      27.550  -0.542  52.887  1.00  0.00     0.055 C 
HETATM   10  C13 UNL     1      27.443   0.122  54.233  1.00  0.00     0.162 C 
HETATM   11  O1  UNL     1      26.481  -0.571  55.008  1.00  0.00    -0.324 OA
HETATM   12  C14 UNL     1      27.128   1.596  54.206  1.00  0.00     0.168 C 
HETATM   13  C16 UNL     1      26.047   1.916  53.120  1.00  0.00     0.157 C 
ENDROOT
BRANCH   1  14
HETATM   14  N1  UNL     1      22.570   0.483  52.104  1.00  0.00    -0.252 NA
HETATM   15  H7  UNL     1      23.356  -0.024  51.728  1.00  0.00     0.134 HD
BRANCH  14  16
HETATM   16  C6  UNL     1      21.482   1.132  52.857  1.00  0.00     0.063 C 
BRANCH  16  17
HETATM   17  C5  UNL     1      20.502   1.757  52.274  1.00  0.00     0.009 C 
BRANCH  17  18
HETATM   18  C4  UNL     1      19.465   0.947  51.712  1.00  0.00    -0.005 C 
BRANCH  18  19
HETATM   19  C3  UNL     1      19.022  -0.085  52.379  1.00  0.00     0.113 A 
HETATM   20  C2  UNL     1      18.347  -1.174  52.984  1.00  0.00    -0.013 A 
HETATM   21  C1  UNL     1      17.870  -2.187  53.620  1.00  0.00     0.027 C 
HETATM   22 BR1  UNL     1      16.954  -0.657  51.743  1.00  0.00    -0.118 Br
ENDBRANCH  18  19
ENDBRANCH  17  18
ENDBRANCH  16  17
ENDBRANCH  14  16
ENDBRANCH   1  14
BRANCH  12  23
HETATM   23  O2  UNL     1      28.191   2.434  54.088  1.00  0.00    -0.386 OA
HETATM   24  C15 UNL     1      29.421   2.018  54.473  1.00  0.00     0.202 C 
ENDBRANCH  12  23
TORSDOF 6
ENDMDL
MODEL 4
REMARK VINA RESULT:      -7.2      1.447      2.106
REMARK  6 active torsions:
REMARK  status: ('A' for Active; 'I' for Inactive)
REMARK    1  A    between atoms: C3_4  and  C4_5 
REMARK    2  A    between atoms: C4_5  and  C5_6 
REMARK    3  A    between atoms: C5_6  and  C6_7 
REMARK    4  A    between atoms: C6_7  and  N1_8 
REMARK    5  A    between atoms: N1_8  and  C7_9 
REMARK    6  A    between atoms: C14_20  and  O2_21 
ROOT
HETATM    1  C7  UNL     1      22.741   1.395  53.015  1.00  0.00     0.139 A 
HETATM    2  N2  UNL     1      21.794   0.598  53.526  1.00  0.00    -0.227 NA
HETATM    3  C8  UNL     1      22.111  -0.571  54.155  1.00  0.00     0.237 A 
HETATM    4  N3  UNL     1      23.329  -1.104  54.367  1.00  0.00    -0.216 NA
HETATM    5  C9  UNL     1      24.407  -0.370  53.882  1.00  0.00     0.196 A 
HETATM    6  C10 UNL     1      24.023   0.871  53.217  1.00  0.00     0.125 A 
HETATM    7  N4  UNL     1      25.384   1.280  52.909  1.00  0.00    -0.372 N 
HETATM    8  C11 UNL     1      26.251   0.853  51.735  1.00  0.00     0.126 C 
HETATM    9  C12 UNL     1      26.985  -0.384  52.293  1.00  0.00     0.055 C 
HETATM   10  C13 UNL     1      26.899  -0.450  53.793  1.00  0.00     0.162 C 
HETATM   11  O1  UNL     1      25.651  -1.013  54.154  1.00  0.00    -0.324 OA
HETATM   12  C14 UNL     1      27.109   0.858  54.513  1.00  0.00     0.168 C 
HETATM   13  C16 UNL     1      26.385   2.029  53.768  1.00  0.00     0.157 C 
ENDROOT
BRANCH   1  14
HETATM   14  N1  UNL     1      22.834   2.655  52.295  1.00  0.00    -0.252 NA
HETATM   15  H7  UNL     1      23.210   2.996  53.165  1.00  0.00     0.134 HD
BRANCH  14  16
HETATM   16  C6  UNL     1      22.251   1.956  51.135  1.00  0.00     0.063 C 
BRANCH  16  17
HETATM   17  C5  UNL     1      22.796   1.985  49.954  1.00  0.00     0.009 C 
BRANCH  17  18
HETATM   18  C4  UNL     1      23.236   3.261  49.479  1.00  0.00    -0.005 C 
BRANCH  18  19
HETATM   19  C3  UNL     1      24.516   3.513  49.402  1.00  0.00     0.113 A 
HETATM   20  C2  UNL     1      25.839   3.999  49.266  1.00  0.00    -0.013 A 
HETATM   21  C1  UNL     1      27.091   4.291  49.178  1.00  0.00     0.027 C 
HETATM   22 BR1  UNL     1      24.910   5.670  48.960  1.00  0.00    -0.118 Br
ENDBRANCH  18  19
ENDBRANCH  17  18
ENDBRANCH  16  17
ENDBRANCH  14  16
ENDBRANCH   1  14
BRANCH  12  23
HETATM   23  O2  UNL     1      28.398   1.189  54.790  1.00  0.00    -0.386 OA
HETATM   24  C15 UNL     1      29.038   2.100  54.020  1.00  0.00     0.202 C 
ENDBRANCH  12  23
TORSDOF 6
ENDMDL
MODEL 5
REMARK VINA RESULT:      -6.7      3.333      5.970
REMARK  6 active torsions:
REMARK  status: ('A' for Active; 'I' for Inactive)
REMARK    1  A    between atoms: C3_4  and  C4_5 
REMARK    2  A    between atoms: C4_5  and  C5_6 
REMARK    3  A    between atoms: C5_6  and  C6_7 
REMARK    4  A    between atoms: C6_7  and  N1_8 
REMARK    5  A    between atoms: N1_8  and  C7_9 
REMARK    6  A    between atoms: C14_20  and  O2_21 
ROOT
HETATM    1  C7  UNL     1      24.440   1.552  51.681  1.00  0.00     0.139 A 
HETATM    2  N2  UNL     1      24.658   2.594  50.869  1.00  0.00    -0.227 NA
HETATM    3  C8  UNL     1      25.907   3.120  50.705  1.00  0.00     0.237 A 
HETATM    4  N3  UNL     1      27.061   2.730  51.277  1.00  0.00    -0.216 NA
HETATM    5  C9  UNL     1      26.973   1.649  52.148  1.00  0.00     0.196 A 
HETATM    6  C10 UNL     1      25.621   1.118  52.294  1.00  0.00     0.125 A 
HETATM    7  N4  UNL     1      25.994   0.065  53.226  1.00  0.00    -0.372 N 
HETATM    8  C11 UNL     1      26.179   0.165  54.732  1.00  0.00     0.126 C 
HETATM    9  C12 UNL     1      27.676   0.508  54.864  1.00  0.00     0.055 C 
HETATM   10  C13 UNL     1      28.426   0.223  53.591  1.00  0.00     0.162 C 
HETATM   11  O1  UNL     1      28.243   1.310  52.702  1.00  0.00    -0.324 OA
HETATM   12  C14 UNL     1      28.075  -1.075  52.909  1.00  0.00     0.168 C 
HETATM   13  C16 UNL     1      26.530  -1.326  52.946  1.00  0.00     0.157 C 
ENDROOT
BRANCH   1  14
HETATM   14  N1  UNL     1      23.326   0.733  52.128  1.00  0.00    -0.252 NA
HETATM   15  H7  UNL     1      23.986   0.407  52.817  1.00  0.00     0.134 HD
BRANCH  14  16
HETATM   16  C6  UNL     1      22.537   1.330  51.035  1.00  0.00     0.063 C 
BRANCH  16  17
HETATM   17  C5  UNL     1      21.484   0.754  50.535  1.00  0.00     0.009 C 
BRANCH  17  18
HETATM   18  C4  UNL     1      20.214   1.194  51.027  1.00  0.00    -0.005 C 
BRANCH  18  19
HETATM   19  C3  UNL     1      19.435   0.348  51.647  1.00  0.00     0.113 A 
HETATM   20  C2  UNL     1      18.737  -0.548  52.494  1.00  0.00    -0.013 A 
HETATM   21  C1  UNL     1      17.998  -1.381  53.141  1.00  0.00     0.027 C 
HETATM   22 BR1  UNL     1      20.118  -0.021  53.745  1.00  0.00    -0.118 Br
ENDBRANCH  18  19
ENDBRANCH  17  18
ENDBRANCH  16  17
ENDBRANCH  14  16
ENDBRANCH   1  14
BRANCH  12  23
HETATM   23  O2  UNL     1      28.751  -2.175  53.330  1.00  0.00    -0.386 OA
HETATM   24  C15 UNL     1      30.049  -2.067  53.698  1.00  0.00     0.202 C 
ENDBRANCH  12  23
TORSDOF 6
ENDMDL
MODEL 6
REMARK VINA RESULT:      -6.6      3.098      5.533
REMARK  6 active torsions:
REMARK  status: ('A' for Active; 'I' for Inactive)
REMARK    1  A    between atoms: C3_4  and  C4_5 
REMARK    2  A    between atoms: C4_5  and  C5_6 
REMARK    3  A    between atoms: C5_6  and  C6_7 
REMARK    4  A    between atoms: C6_7  and  N1_8 
REMARK    5  A    between atoms: N1_8  and  C7_9 
REMARK    6  A    between atoms: C14_20  and  O2_21 
ROOT
HETATM    1  C7  UNL     1      24.097   3.305  50.463  1.00  0.00     0.139 A 
HETATM    2  N2  UNL     1      24.643   3.992  49.452  1.00  0.00    -0.227 NA
HETATM    3  C8  UNL     1      25.995   4.040  49.273  1.00  0.00     0.237 A 
HETATM    4  N3  UNL     1      26.959   3.458  50.012  1.00  0.00    -0.216 NA
HETATM    5  C9  UNL     1      26.521   2.709  51.100  1.00  0.00     0.196 A 
HETATM    6  C10 UNL     1      25.071   2.685  51.254  1.00  0.00     0.125 A 
HETATM    7  N4  UNL     1      25.079   1.831  52.431  1.00  0.00    -0.372 N 
HETATM    8  C11 UNL     1      25.283   2.233  53.883  1.00  0.00     0.126 C 
HETATM    9  C12 UNL     1      26.810   2.108  54.054  1.00  0.00     0.055 C 
HETATM   10  C13 UNL     1      27.428   1.298  52.947  1.00  0.00     0.162 C 
HETATM   11  O1  UNL     1      27.611   2.134  51.819  1.00  0.00    -0.324 OA
HETATM   12  C14 UNL     1      26.675   0.052  52.557  1.00  0.00     0.168 C 
HETATM   13  C16 UNL     1      25.132   0.318  52.526  1.00  0.00     0.157 C 
ENDROOT
BRANCH   1  14
HETATM   14  N1  UNL     1      22.775   3.015  50.995  1.00  0.00    -0.252 NA
HETATM   15  H7  UNL     1      22.989   3.767  51.632  1.00  0.00     0.134 HD
BRANCH  14  16
HETATM   16  C6  UNL     1      22.678   1.946  49.985  1.00  0.00     0.063 C 
BRANCH  16  17
HETATM   17  C5  UNL     1      21.800   0.990  50.059  1.00  0.00     0.009 C 
BRANCH  17  18
HETATM   18  C4  UNL     1      21.062   0.887  51.281  1.00  0.00    -0.005 C 
BRANCH  18  19
HETATM   19  C3  UNL     1      21.411  -0.004  52.171  1.00  0.00     0.113 A 
HETATM   20  C2  UNL     1      21.683  -0.833  53.287  1.00  0.00    -0.013 A 
HETATM   21  C1  UNL     1      22.009  -1.685  54.197  1.00  0.00     0.027 C 
HETATM   22 BR1  UNL     1      20.630   0.507  54.204  1.00  0.00    -0.118 Br
ENDBRANCH  18  19
ENDBRANCH  17  18
ENDBRANCH  16  17
ENDBRANCH  14  16
ENDBRANCH   1  14
BRANCH  12  23
HETATM   23  O2  UNL     1      26.955  -1.067  53.276  1.00  0.00    -0.386 OA
HETATM   24  C15 UNL     1      27.172  -2.240  52.637  1.00  0.00     0.202 C 
ENDBRANCH  12  23
TORSDOF 6
ENDMDL
MODEL 7
REMARK VINA RESULT:      -6.6      3.362      5.310
REMARK  6 active torsions:
REMARK  status: ('A' for Active; 'I' for Inactive)
REMARK    1  A    between atoms: C3_4  and  C4_5 
REMARK    2  A    between atoms: C4_5  and  C5_6 
REMARK    3  A    between atoms: C5_6  and  C6_7 
REMARK    4  A    between atoms: C6_7  and  N1_8 
REMARK    5  A    between atoms: N1_8  and  C7_9 
REMARK    6  A    between atoms: C14_20  and  O2_21 
ROOT
HETATM    1  C7  UNL     1      23.828   3.432  50.853  1.00  0.00     0.139 A 
HETATM    2  N2  UNL     1      23.645   4.745  51.038  1.00  0.00    -0.227 NA
HETATM    3  C8  UNL     1      22.563   5.224  51.718  1.00  0.00     0.237 A 
HETATM    4  N3  UNL     1      21.557   4.533  52.284  1.00  0.00    -0.216 NA
HETATM    5  C9  UNL     1      21.626   3.148  52.163  1.00  0.00     0.196 A 
HETATM    6  C10 UNL     1      22.798   2.680  51.430  1.00  0.00     0.125 A 
HETATM    7  N4  UNL     1      22.475   1.267  51.559  1.00  0.00    -0.372 N 
HETATM    8  C11 UNL     1      21.535   0.436  50.701  1.00  0.00     0.126 C 
HETATM    9  C12 UNL     1      20.189   0.583  51.438  1.00  0.00     0.055 C 
HETATM   10  C13 UNL     1      20.377   1.097  52.839  1.00  0.00     0.162 C 
HETATM   11  O1  UNL     1      20.520   2.505  52.793  1.00  0.00    -0.324 OA
HETATM   12  C14 UNL     1      21.519   0.482  53.608  1.00  0.00     0.168 C 
HETATM   13  C16 UNL     1      22.778   0.307  52.693  1.00  0.00     0.157 C 
ENDROOT
BRANCH   1  14
HETATM   14  N1  UNL     1      24.785   2.543  50.214  1.00  0.00    -0.252 NA
HETATM   15  H7  UNL     1      24.042   2.401  49.549  1.00  0.00     0.134 HD
BRANCH  14  16
HETATM   16  C6  UNL     1      25.721   2.882  51.303  1.00  0.00     0.063 C 
BRANCH  16  17
HETATM   17  C5  UNL     1      26.717   2.114  51.634  1.00  0.00     0.009 C 
BRANCH  17  18
HETATM   18  C4  UNL     1      26.439   1.065  52.566  1.00  0.00    -0.005 C 
BRANCH  18  19
HETATM   19  C3  UNL     1      27.316   0.112  52.744  1.00  0.00     0.113 A 
HETATM   20  C2  UNL     1      28.329  -0.802  53.123  1.00  0.00    -0.013 A 
HETATM   21  C1  UNL     1      29.209  -1.718  53.335  1.00  0.00     0.027 C 
HETATM   22 BR1  UNL     1      28.491   0.409  54.625  1.00  0.00    -0.118 Br
ENDBRANCH  18  19
ENDBRANCH  17  18
ENDBRANCH  16  17
ENDBRANCH  14  16
ENDBRANCH   1  14
BRANCH  12  23
HETATM   23  O2  UNL     1      21.243  -0.672  54.270  1.00  0.00    -0.386 OA
HETATM   24  C15 UNL     1      22.238  -1.342  54.897  1.00  0.00     0.202 C 
ENDBRANCH  12  23
TORSDOF 6
ENDMDL
MODEL 8
REMARK VINA RESULT:      -6.5      5.601      9.224
REMARK  6 active torsions:
REMARK  status: ('A' for Active; 'I' for Inactive)
REMARK    1  A    between atoms: C3_4  and  C4_5 
REMARK    2  A    between atoms: C4_5  and  C5_6 
REMARK    3  A    between atoms: C5_6  and  C6_7 
REMARK    4  A    between atoms: C6_7  and  N1_8 
REMARK    5  A    between atoms: N1_8  and  C7_9 
REMARK    6  A    between atoms: C14_20  and  O2_21 
ROOT
HETATM    1  C7  UNL     1      29.209   6.301  47.944  1.00  0.00     0.139 A 
HETATM    2  N2  UNL     1      28.586   7.205  47.177  1.00  0.00    -0.227 NA
HETATM    3  C8  UNL     1      29.272   7.960  46.270  1.00  0.00     0.237 A 
HETATM    4  N3  UNL     1      30.589   7.947  45.994  1.00  0.00    -0.216 NA
HETATM    5  C9  UNL     1      31.355   7.045  46.727  1.00  0.00     0.196 A 
HETATM    6  C10 UNL     1      30.583   6.259  47.684  1.00  0.00     0.125 A 
HETATM    7  N4  UNL     1      31.722   5.499  48.175  1.00  0.00    -0.372 N 
HETATM    8  C11 UNL     1      32.734   5.902  49.236  1.00  0.00     0.126 C 
HETATM    9  C12 UNL     1      33.835   6.591  48.404  1.00  0.00     0.055 C 
HETATM   10  C13 UNL     1      33.714   6.261  46.942  1.00  0.00     0.162 C 
HETATM   11  O1  UNL     1      32.733   7.104  46.364  1.00  0.00    -0.324 OA
HETATM   12  C14 UNL     1      33.413   4.818  46.625  1.00  0.00     0.168 C 
HETATM   13  C16 UNL     1      32.352   4.237  47.619  1.00  0.00     0.157 C 
ENDROOT
BRANCH   1  14
HETATM   14  N1  UNL     1      28.878   5.344  48.988  1.00  0.00    -0.252 NA
HETATM   15  H7  UNL     1      29.865   5.387  49.186  1.00  0.00     0.134 HD
BRANCH  14  16
HETATM   16  C6  UNL     1      27.482   5.421  48.521  1.00  0.00     0.063 C 
BRANCH  16  17
HETATM   17  C5  UNL     1      26.495   4.878  49.171  1.00  0.00     0.009 C 
BRANCH  17  18
HETATM   18  C4  UNL     1      26.631   3.494  49.509  1.00  0.00    -0.005 C 
BRANCH  18  19
HETATM   19  C3  UNL     1      25.805   2.957  50.367  1.00  0.00     0.113 A 
HETATM   20  C2  UNL     1      25.099   2.304  51.407  1.00  0.00    -0.013 A 
HETATM   21  C1  UNL     1      24.321   1.758  52.276  1.00  0.00     0.027 C 
HETATM   22 BR1  UNL     1      26.892   1.994  52.069  1.00  0.00    -0.118 Br
ENDBRANCH  18  19
ENDBRANCH  17  18
ENDBRANCH  16  17
ENDBRANCH  14  16
ENDBRANCH   1  14
BRANCH  12  23
HETATM   23  O2  UNL     1      34.486   3.990  46.529  1.00  0.00    -0.386 OA
HETATM   24  C15 UNL     1      35.113   3.836  45.338  1.00  0.00     0.202 C 
ENDBRANCH  12  23
TORSDOF 6
ENDMDL
MODEL 9
REMARK VINA RESULT:      -6.3      4.113      5.540
REMARK  6 active torsions:
REMARK  status: ('A' for Active; 'I' for Inactive)
REMARK    1  A    between atoms: C3_4  and  C4_5 
REMARK    2  A    between atoms: C4_5  and  C5_6 
REMARK    3  A    between atoms: C5_6  and  C6_7 
REMARK    4  A    between atoms: C6_7  and  N1_8 
REMARK    5  A    between atoms: N1_8  and  C7_9 
REMARK    6  A    between atoms: C14_20  and  O2_21 
ROOT
HETATM    1  C7  UNL     1      24.761   5.666  50.733  1.00  0.00     0.139 A 
HETATM    2  N2  UNL     1      24.852   7.001  50.691  1.00  0.00    -0.227 NA
HETATM    3  C8  UNL     1      23.738   7.790  50.680  1.00  0.00     0.237 A 
HETATM    4  N3  UNL     1      22.446   7.415  50.707  1.00  0.00    -0.216 NA
HETATM    5  C9  UNL     1      22.211   6.044  50.751  1.00  0.00     0.196 A 
HETATM    6  C10 UNL     1      23.428   5.238  50.761  1.00  0.00     0.125 A 
HETATM    7  N4  UNL     1      22.737   3.959  50.821  1.00  0.00    -0.372 N 
HETATM    8  C11 UNL     1      22.147   3.156  49.674  1.00  0.00     0.126 C 
HETATM    9  C12 UNL     1      20.700   3.683  49.605  1.00  0.00     0.055 C 
HETATM   10  C13 UNL     1      20.318   4.422  50.858  1.00  0.00     0.162 C 
HETATM   11  O1  UNL     1      20.817   5.745  50.777  1.00  0.00    -0.324 OA
HETATM   12  C14 UNL     1      20.755   3.778  52.149  1.00  0.00     0.168 C 
HETATM   13  C16 UNL     1      22.206   3.205  52.024  1.00  0.00     0.157 C 
ENDROOT
BRANCH   1  14
HETATM   14  N1  UNL     1      25.646   4.513  50.748  1.00  0.00    -0.252 NA
HETATM   15  H7  UNL     1      25.322   4.416  51.697  1.00  0.00     0.134 HD
BRANCH  14  16
HETATM   16  C6  UNL     1      25.993   4.847  49.354  1.00  0.00     0.063 C 
BRANCH  16  17
HETATM   17  C5  UNL     1      27.159   4.585  48.841  1.00  0.00     0.009 C 
BRANCH  17  18
HETATM   18  C4  UNL     1      27.944   5.705  48.421  1.00  0.00    -0.005 C 
BRANCH  18  19
HETATM   19  C3  UNL     1      29.212   5.539  48.154  1.00  0.00     0.113 A 
HETATM   20  C2  UNL     1      30.600   5.587  47.873  1.00  0.00    -0.013 A 
HETATM   21  C1  UNL     1      31.855   5.468  47.609  1.00  0.00     0.027 C 
HETATM   22 BR1  UNL     1      30.315   7.485  48.125  1.00  0.00    -0.118 Br
ENDBRANCH  18  19
ENDBRANCH  17  18
ENDBRANCH  16  17
ENDBRANCH  14  16
ENDBRANCH   1  14
BRANCH  12  23
HETATM   23  O2  UNL     1      19.913   2.846  52.668  1.00  0.00    -0.386 OA
HETATM   24  C15 UNL     1      20.370   1.600  52.933  1.00  0.00     0.202 C 
ENDBRANCH  12  23
TORSDOF 6
ENDMDL
