MODEL 1
REMARK VINA RESULT:      -8.4      0.000      0.000
REMARK  0 active torsions:
REMARK  status: ('A' for Active; 'I' for Inactive)
ROOT
HETATM    1  N1  UNL     1      20.094   0.985  50.446  1.00  0.00    -0.190 NA
HETATM    2  C1  UNL     1      21.033   1.190  51.138  1.00  0.00     0.118 C 
HETATM    3  C2  UNL     1      22.205   1.419  51.994  1.00  0.00     0.119 A 
HETATM    4  C3  UNL     1      22.849   0.278  52.340  1.00  0.00     0.073 A 
HETATM    5  C4  UNL     1      24.042   0.533  53.120  1.00  0.00     0.065 A 
HETATM    6  N2  UNL     1      24.759  -0.469  53.599  1.00  0.00    -0.285 NA
HETATM    7  C5  UNL     1      25.910   0.002  54.494  1.00  0.00     0.185 C 
HETATM    8  C6  UNL     1      26.275   1.317  53.884  1.00  0.00    -0.035 C 
HETATM    9  C7  UNL     1      25.683   2.482  53.910  1.00  0.00     0.021 C 
HETATM   10  C8  UNL     1      24.393   1.906  53.432  1.00  0.00     0.008 A 
HETATM   11  C9  UNL     1      23.709   2.980  53.083  1.00  0.00     0.107 A 
HETATM   12  N3  UNL     1      22.497   2.818  52.284  1.00  0.00    -0.332 N 
HETATM   13  C10 UNL     1      21.591   3.758  51.715  1.00  0.00     0.101 A 
HETATM   14  O1  UNL     1      22.368   3.640  50.712  1.00  0.00     0.000 OA
HETATM   15  C11 UNL     1      21.440   4.466  50.409  1.00  0.00     0.052 A 
HETATM   16  C12 UNL     1      22.385   4.252  49.464  1.00  0.00     0.096 A 
HETATM   17  N4  UNL     1      23.555   3.716  48.876  1.00  0.00    -0.435 NA
HETATM   18  C13 UNL     1      24.731   3.660  49.401  1.00  0.00     0.293 C 
HETATM   19  C14 UNL     1      26.161   3.495  49.820  1.00  0.00     0.059 C 
HETATM   20  C15 UNL     1      26.418   2.218  50.489  1.00  0.00     0.015 C 
HETATM   21  C16 UNL     1      26.831   1.432  51.516  1.00  0.00     0.113 C 
HETATM   22  F1  UNL     1      26.777   0.046  51.450  1.00  0.00    -0.209 F 
HETATM   23  C17 UNL     1      27.400   1.572  52.931  1.00  0.00     0.174 C 
HETATM   24 CL1  UNL     1      28.793   0.535  53.192  1.00  0.00    -0.113 Cl
ENDROOT
TORSDOF 0
ENDMDL
MODEL 2
REMARK VINA RESULT:      -7.9      2.995      5.736
REMARK  0 active torsions:
REMARK  status: ('A' for Active; 'I' for Inactive)
ROOT
HETATM    1  N1  UNL     1      27.499  -2.122  53.086  1.00  0.00    -0.190 NA
HETATM    2  C1  UNL     1      27.043  -1.034  52.979  1.00  0.00     0.118 C 
HETATM    3  C2  UNL     1      26.478   0.313  52.822  1.00  0.00     0.119 A 
HETATM    4  C3  UNL     1      26.523   0.768  51.548  1.00  0.00     0.073 A 
HETATM    5  C4  UNL     1      25.894   2.065  51.403  1.00  0.00     0.065 A 
HETATM    6  N2  UNL     1      25.903   2.690  50.238  1.00  0.00    -0.285 NA
HETATM    7  C5  UNL     1      25.294   4.094  50.317  1.00  0.00     0.185 C 
HETATM    8  C6  UNL     1      24.258   3.938  51.382  1.00  0.00    -0.035 C 
HETATM    9  C7  UNL     1      24.355   3.829  52.682  1.00  0.00     0.021 C 
HETATM   10  C8  UNL     1      25.322   2.700  52.576  1.00  0.00     0.008 A 
HETATM   11  C9  UNL     1      25.330   2.211  53.803  1.00  0.00     0.107 A 
HETATM   12  N3  UNL     1      25.933   0.902  54.040  1.00  0.00    -0.332 N 
HETATM   13  C10 UNL     1      26.049   0.097  55.209  1.00  0.00     0.101 A 
HETATM   14  O1  UNL     1      24.957  -0.393  54.770  1.00  0.00     0.000 OA
HETATM   15  C11 UNL     1      25.263  -0.997  55.854  1.00  0.00     0.052 A 
HETATM   16  C12 UNL     1      24.101  -1.368  55.269  1.00  0.00     0.096 A 
HETATM   17  N4  UNL     1      23.049  -1.366  54.322  1.00  0.00    -0.435 NA
HETATM   18  C13 UNL     1      22.406  -0.341  53.880  1.00  0.00     0.293 C 
HETATM   19  C14 UNL     1      21.543   0.705  53.241  1.00  0.00     0.059 C 
HETATM   20  C15 UNL     1      22.105   1.227  51.993  1.00  0.00     0.015 C 
HETATM   21  C16 UNL     1      22.564   2.202  51.167  1.00  0.00     0.113 C 
HETATM   22  F1  UNL     1      23.031   1.923  49.889  1.00  0.00    -0.209 F 
HETATM   23  C17 UNL     1      22.793   3.716  51.171  1.00  0.00     0.174 C 
HETATM   24 CL1  UNL     1      22.166   4.485  49.721  1.00  0.00    -0.113 Cl
ENDROOT
TORSDOF 0
ENDMDL
MODEL 3
REMARK VINA RESULT:      -7.6      8.816     10.473
REMARK  0 active torsions:
REMARK  status: ('A' for Active; 'I' for Inactive)
ROOT
HETATM    1  N1  UNL     1      27.818   8.475  48.163  1.00  0.00    -0.190 NA
HETATM    2  C1  UNL     1      28.842   7.889  48.272  1.00  0.00     0.118 C 
HETATM    3  C2  UNL     1      30.103   7.144  48.392  1.00  0.00     0.119 A 
HETATM    4  C3  UNL     1      30.048   5.904  47.850  1.00  0.00     0.073 A 
HETATM    5  C4  UNL     1      31.321   5.218  47.912  1.00  0.00     0.065 A 
HETATM    6  N2  UNL     1      31.435   3.971  47.487  1.00  0.00    -0.285 NA
HETATM    7  C5  UNL     1      32.826   3.383  47.746  1.00  0.00     0.185 C 
HETATM    8  C6  UNL     1      33.710   4.582  47.633  1.00  0.00    -0.035 C 
HETATM    9  C7  UNL     1      33.910   5.595  48.437  1.00  0.00     0.021 C 
HETATM   10  C8  UNL     1      32.452   5.895  48.521  1.00  0.00     0.008 A 
HETATM   11  C9  UNL     1      32.436   7.103  49.055  1.00  0.00     0.107 A 
HETATM   12  N3  UNL     1      31.196   7.874  49.026  1.00  0.00    -0.332 N 
HETATM   13  C10 UNL     1      30.876   9.192  49.457  1.00  0.00     0.101 A 
HETATM   14  O1  UNL     1      31.177   9.474  48.252  1.00  0.00     0.000 OA
HETATM   15  C11 UNL     1      30.841  10.555  48.847  1.00  0.00     0.052 A 
HETATM   16  C12 UNL     1      31.233  10.678  47.557  1.00  0.00     0.096 A 
HETATM   17  N4  UNL     1      31.708  10.277  46.287  1.00  0.00    -0.435 NA
HETATM   18  C13 UNL     1      32.730   9.530  46.041  1.00  0.00     0.293 C 
HETATM   19  C14 UNL     1      33.865   8.689  45.538  1.00  0.00     0.059 C 
HETATM   20  C15 UNL     1      33.506   7.277  45.385  1.00  0.00     0.015 C 
HETATM   21  C16 UNL     1      33.637   5.946  45.617  1.00  0.00     0.113 C 
HETATM   22  F1  UNL     1      32.793   5.012  45.032  1.00  0.00    -0.209 F 
HETATM   23  C17 UNL     1      34.508   4.989  46.435  1.00  0.00     0.174 C 
HETATM   24 CL1  UNL     1      35.081   3.631  45.478  1.00  0.00    -0.113 Cl
ENDROOT
TORSDOF 0
ENDMDL
MODEL 4
REMARK VINA RESULT:      -7.5      2.470      4.692
REMARK  0 active torsions:
REMARK  status: ('A' for Active; 'I' for Inactive)
ROOT
HETATM    1  N1  UNL     1      17.467   3.816  51.962  1.00  0.00    -0.190 NA
HETATM    2  C1  UNL     1      18.561   3.611  51.556  1.00  0.00     0.118 C 
HETATM    3  C2  UNL     1      19.927   3.375  51.068  1.00  0.00     0.119 A 
HETATM    4  C3  UNL     1      20.823   4.285  51.519  1.00  0.00     0.073 A 
HETATM    5  C4  UNL     1      22.173   3.990  51.087  1.00  0.00     0.065 A 
HETATM    6  N2  UNL     1      23.167   4.811  51.381  1.00  0.00    -0.285 NA
HETATM    7  C5  UNL     1      24.492   4.388  50.738  1.00  0.00     0.185 C 
HETATM    8  C6  UNL     1      24.375   2.899  50.706  1.00  0.00    -0.035 C 
HETATM    9  C7  UNL     1      23.670   2.097  49.951  1.00  0.00     0.021 C 
HETATM   10  C8  UNL     1      22.404   2.820  50.261  1.00  0.00     0.008 A 
HETATM   11  C9  UNL     1      21.479   1.978  49.835  1.00  0.00     0.107 A 
HETATM   12  N3  UNL     1      20.090   2.191  50.231  1.00  0.00    -0.332 N 
HETATM   13  C10 UNL     1      18.899   1.451  49.988  1.00  0.00     0.101 A 
HETATM   14  O1  UNL     1      19.218   0.905  51.094  1.00  0.00     0.000 OA
HETATM   15  C11 UNL     1      18.131   0.373  50.681  1.00  0.00     0.052 A 
HETATM   16  C12 UNL     1      18.639  -0.121  51.835  1.00  0.00     0.096 A 
HETATM   17  N4  UNL     1      19.544  -0.269  52.912  1.00  0.00    -0.435 NA
HETATM   18  C13 UNL     1      20.825  -0.392  52.837  1.00  0.00     0.293 C 
HETATM   19  C14 UNL     1      22.310  -0.545  52.976  1.00  0.00     0.059 C 
HETATM   20  C15 UNL     1      23.007   0.735  53.116  1.00  0.00     0.015 C 
HETATM   21  C16 UNL     1      23.913   1.684  52.765  1.00  0.00     0.113 C 
HETATM   22  F1  UNL     1      24.051   2.867  53.479  1.00  0.00    -0.209 F 
HETATM   23  C17 UNL     1      24.971   1.940  51.688  1.00  0.00     0.174 C 
HETATM   24 CL1  UNL     1      26.494   2.486  52.371  1.00  0.00    -0.113 Cl
ENDROOT
TORSDOF 0
ENDMDL
MODEL 5
REMARK VINA RESULT:      -7.5      1.034      1.105
REMARK  0 active torsions:
REMARK  status: ('A' for Active; 'I' for Inactive)
ROOT
HETATM    1  N1  UNL     1      19.995   2.413  49.203  1.00  0.00    -0.190 NA
HETATM    2  C1  UNL     1      20.814   2.400  50.058  1.00  0.00     0.118 C 
HETATM    3  C2  UNL     1      21.833   2.358  51.115  1.00  0.00     0.119 A 
HETATM    4  C3  UNL     1      22.206   1.100  51.452  1.00  0.00     0.073 A 
HETATM    5  C4  UNL     1      23.264   1.085  52.441  1.00  0.00     0.065 A 
HETATM    6  N2  UNL     1      23.707  -0.059  52.935  1.00  0.00    -0.285 NA
HETATM    7  C5  UNL     1      24.739   0.139  54.050  1.00  0.00     0.185 C 
HETATM    8  C6  UNL     1      25.421   1.403  53.639  1.00  0.00    -0.035 C 
HETATM    9  C7  UNL     1      25.034   2.652  53.677  1.00  0.00     0.021 C 
HETATM   10  C8  UNL     1      23.775   2.349  52.938  1.00  0.00     0.008 A 
HETATM   11  C9  UNL     1      23.352   3.549  52.584  1.00  0.00     0.107 A 
HETATM   12  N3  UNL     1      22.296   3.660  51.582  1.00  0.00    -0.332 N 
HETATM   13  C10 UNL     1      21.675   4.782  50.964  1.00  0.00     0.101 A 
HETATM   14  O1  UNL     1      22.590   4.593  50.098  1.00  0.00     0.000 OA
HETATM   15  C11 UNL     1      21.883   5.591  49.725  1.00  0.00     0.052 A 
HETATM   16  C12 UNL     1      22.934   5.272  48.934  1.00  0.00     0.096 A 
HETATM   17  N4  UNL     1      24.086   4.575  48.501  1.00  0.00    -0.435 NA
HETATM   18  C13 UNL     1      25.121   4.274  49.207  1.00  0.00     0.293 C 
HETATM   19  C14 UNL     1      26.405   3.828  49.840  1.00  0.00     0.059 C 
HETATM   20  C15 UNL     1      26.322   2.484  50.417  1.00  0.00     0.015 C 
HETATM   21  C16 UNL     1      26.407   1.572  51.419  1.00  0.00     0.113 C 
HETATM   22  F1  UNL     1      26.137   0.225  51.211  1.00  0.00    -0.209 F 
HETATM   23  C17 UNL     1      26.726   1.514  52.915  1.00  0.00     0.174 C 
HETATM   24 CL1  UNL     1      27.858   0.228  53.304  1.00  0.00    -0.113 Cl
ENDROOT
TORSDOF 0
ENDMDL
MODEL 6
REMARK VINA RESULT:      -7.3      2.688      4.377
REMARK  0 active torsions:
REMARK  status: ('A' for Active; 'I' for Inactive)
ROOT
HETATM    1  N1  UNL     1      22.207   3.043  46.527  1.00  0.00    -0.190 NA
HETATM    2  C1  UNL     1      21.816   2.900  47.637  1.00  0.00     0.118 C 
HETATM    3  C2  UNL     1      21.327   2.698  49.007  1.00  0.00     0.119 A 
HETATM    4  C3  UNL     1      20.769   1.480  49.204  1.00  0.00     0.073 A 
HETATM    5  C4  UNL     1      20.363   1.276  50.580  1.00  0.00     0.065 A 
HETATM    6  N2  UNL     1      19.740   0.166  50.939  1.00  0.00    -0.285 NA
HETATM    7  C5  UNL     1      19.289   0.189  52.403  1.00  0.00     0.185 C 
HETATM    8  C6  UNL     1      20.346   1.021  53.054  1.00  0.00    -0.035 C 
HETATM    9  C7  UNL     1      20.578   2.308  53.030  1.00  0.00     0.021 C 
HETATM   10  C8  UNL     1      20.582   2.342  51.539  1.00  0.00     0.008 A 
HETATM   11  C9  UNL     1      21.114   3.522  51.279  1.00  0.00     0.107 A 
HETATM   12  N3  UNL     1      21.564   3.812  49.920  1.00  0.00    -0.332 N 
HETATM   13  C10 UNL     1      22.212   4.941  49.344  1.00  0.00     0.101 A 
HETATM   14  O1  UNL     1      23.257   4.274  49.637  1.00  0.00     0.000 OA
HETATM   15  C11 UNL     1      23.620   5.368  49.083  1.00  0.00     0.052 A 
HETATM   16  C12 UNL     1      24.613   4.548  49.498  1.00  0.00     0.096 A 
HETATM   17  N4  UNL     1      25.218   3.415  50.091  1.00  0.00    -0.435 NA
HETATM   18  C13 UNL     1      24.945   2.903  51.242  1.00  0.00     0.293 C 
HETATM   19  C14 UNL     1      24.787   2.156  52.532  1.00  0.00     0.059 C 
HETATM   20  C15 UNL     1      23.809   1.069  52.447  1.00  0.00     0.015 C 
HETATM   21  C16 UNL     1      22.687   0.396  52.813  1.00  0.00     0.113 C 
HETATM   22  F1  UNL     1      22.295  -0.776  52.180  1.00  0.00    -0.209 F 
HETATM   23  C17 UNL     1      21.533   0.516  53.811  1.00  0.00     0.174 C 
HETATM   24 CL1  UNL     1      21.235  -0.991  54.664  1.00  0.00    -0.113 Cl
ENDROOT
TORSDOF 0
ENDMDL
MODEL 7
REMARK VINA RESULT:      -7.2      3.408      5.223
REMARK  0 active torsions:
REMARK  status: ('A' for Active; 'I' for Inactive)
ROOT
HETATM    1  N1  UNL     1      24.696   6.551  50.832  1.00  0.00    -0.190 NA
HETATM    2  C1  UNL     1      24.238   5.460  50.780  1.00  0.00     0.118 C 
HETATM    3  C2  UNL     1      23.673   4.105  50.740  1.00  0.00     0.119 A 
HETATM    4  C3  UNL     1      23.784   3.442  51.915  1.00  0.00     0.073 A 
HETATM    5  C4  UNL     1      23.153   2.138  51.875  1.00  0.00     0.065 A 
HETATM    6  N2  UNL     1      23.222   1.326  52.916  1.00  0.00    -0.285 NA
HETATM    7  C5  UNL     1      22.599  -0.046  52.637  1.00  0.00     0.185 C 
HETATM    8  C6  UNL     1      21.507   0.285  51.672  1.00  0.00    -0.035 C 
HETATM    9  C7  UNL     1      21.533   0.611  50.406  1.00  0.00     0.021 C 
HETATM   10  C8  UNL     1      22.513   1.709  50.646  1.00  0.00     0.008 A 
HETATM   11  C9  UNL     1      22.458   2.397  49.520  1.00  0.00     0.107 A 
HETATM   12  N3  UNL     1      23.056   3.727  49.472  1.00  0.00    -0.332 N 
HETATM   13  C10 UNL     1      23.114   4.718  48.451  1.00  0.00     0.101 A 
HETATM   14  O1  UNL     1      22.053   5.125  49.025  1.00  0.00     0.000 OA
HETATM   15  C11 UNL     1      22.303   5.903  48.042  1.00  0.00     0.052 A 
HETATM   16  C12 UNL     1      21.177   6.169  48.745  1.00  0.00     0.096 A 
HETATM   17  N4  UNL     1      20.180   6.006  49.735  1.00  0.00    -0.435 NA
HETATM   18  C13 UNL     1      19.554   4.920  50.034  1.00  0.00     0.293 C 
HETATM   19  C14 UNL     1      18.719   3.780  50.535  1.00  0.00     0.059 C 
HETATM   20  C15 UNL     1      19.345   3.057  51.645  1.00  0.00     0.015 C 
HETATM   21  C16 UNL     1      19.841   1.958  52.269  1.00  0.00     0.113 C 
HETATM   22  F1  UNL     1      20.380   2.019  53.547  1.00  0.00    -0.209 F 
HETATM   23  C17 UNL     1      20.058   0.467  51.999  1.00  0.00     0.174 C 
HETATM   24 CL1  UNL     1      19.505  -0.536  53.331  1.00  0.00    -0.113 Cl
ENDROOT
TORSDOF 0
ENDMDL
MODEL 8
REMARK VINA RESULT:      -7.2      2.329      4.033
REMARK  0 active torsions:
REMARK  status: ('A' for Active; 'I' for Inactive)
ROOT
HETATM    1  N1  UNL     1      21.173   7.206  49.999  1.00  0.00    -0.190 NA
HETATM    2  C1  UNL     1      21.934   6.336  50.258  1.00  0.00     0.118 C 
HETATM    3  C2  UNL     1      22.871   5.259  50.605  1.00  0.00     0.119 A 
HETATM    4  C3  UNL     1      23.003   5.071  51.940  1.00  0.00     0.073 A 
HETATM    5  C4  UNL     1      23.872   3.956  52.256  1.00  0.00     0.065 A 
HETATM    6  N2  UNL     1      24.166   3.669  53.513  1.00  0.00    -0.285 NA
HETATM    7  C5  UNL     1      25.189   2.535  53.635  1.00  0.00     0.185 C 
HETATM    8  C6  UNL     1      24.880   1.690  52.442  1.00  0.00    -0.035 C 
HETATM    9  C7  UNL     1      25.119   1.864  51.168  1.00  0.00     0.021 C 
HETATM   10  C8  UNL     1      24.475   3.209  51.169  1.00  0.00     0.008 A 
HETATM   11  C9  UNL     1      24.324   3.457  49.880  1.00  0.00     0.107 A 
HETATM   12  N3  UNL     1      23.455   4.556  49.468  1.00  0.00    -0.332 N 
HETATM   13  C10 UNL     1      23.052   5.031  48.188  1.00  0.00     0.101 A 
HETATM   14  O1  UNL     1      22.082   4.229  48.386  1.00  0.00     0.000 OA
HETATM   15  C11 UNL     1      21.913   4.792  47.251  1.00  0.00     0.052 A 
HETATM   16  C12 UNL     1      20.988   3.871  47.607  1.00  0.00     0.096 A 
HETATM   17  N4  UNL     1      20.356   2.885  48.400  1.00  0.00    -0.435 NA
HETATM   18  C13 UNL     1      20.910   1.860  48.952  1.00  0.00     0.293 C 
HETATM   19  C14 UNL     1      21.350   0.622  49.672  1.00  0.00     0.059 C 
HETATM   20  C15 UNL     1      21.753   0.877  51.057  1.00  0.00     0.015 C 
HETATM   21  C16 UNL     1      22.614   0.864  52.107  1.00  0.00     0.113 C 
HETATM   22  F1  UNL     1      22.262   1.365  53.353  1.00  0.00    -0.209 F 
HETATM   23  C17 UNL     1      24.052   0.445  52.426  1.00  0.00     0.174 C 
HETATM   24 CL1  UNL     1      24.156  -0.490  53.910  1.00  0.00    -0.113 Cl
ENDROOT
TORSDOF 0
ENDMDL
MODEL 9
REMARK VINA RESULT:      -7.0      8.039     10.960
REMARK  0 active torsions:
REMARK  status: ('A' for Active; 'I' for Inactive)
ROOT
HETATM    1  N1  UNL     1      33.910   7.784  45.717  1.00  0.00    -0.190 NA
HETATM    2  C1  UNL     1      33.034   8.214  46.389  1.00  0.00     0.118 C 
HETATM    3  C2  UNL     1      31.936   8.757  47.200  1.00  0.00     0.119 A 
HETATM    4  C3  UNL     1      31.129   9.601  46.515  1.00  0.00     0.073 A 
HETATM    5  C4  UNL     1      30.012  10.065  47.312  1.00  0.00     0.065 A 
HETATM    6  N2  UNL     1      29.158  10.947  46.824  1.00  0.00    -0.285 NA
HETATM    7  C5  UNL     1      28.120  11.399  47.857  1.00  0.00     0.185 C 
HETATM    8  C6  UNL     1      27.952  10.179  48.702  1.00  0.00    -0.035 C 
HETATM    9  C7  UNL     1      28.723   9.635  49.608  1.00  0.00     0.021 C 
HETATM   10  C8  UNL     1      29.891   9.603  48.683  1.00  0.00     0.008 A 
HETATM   11  C9  UNL     1      30.729   8.791  49.303  1.00  0.00     0.107 A 
HETATM   12  N3  UNL     1      31.878   8.265  48.572  1.00  0.00    -0.332 N 
HETATM   13  C10 UNL     1      32.907   7.349  48.933  1.00  0.00     0.101 A 
HETATM   14  O1  UNL     1      32.095   6.506  48.430  1.00  0.00     0.000 OA
HETATM   15  C11 UNL     1      33.134   5.877  48.830  1.00  0.00     0.052 A 
HETATM   16  C12 UNL     1      32.143   5.122  48.300  1.00  0.00     0.096 A 
HETATM   17  N4  UNL     1      30.888   4.825  47.719  1.00  0.00    -0.435 NA
HETATM   18  C13 UNL     1      29.732   5.232  48.120  1.00  0.00     0.293 C 
HETATM   19  C14 UNL     1      28.306   5.588  48.412  1.00  0.00     0.059 C 
HETATM   20  C15 UNL     1      27.866   6.804  47.722  1.00  0.00     0.015 C 
HETATM   21  C16 UNL     1      27.360   8.061  47.655  1.00  0.00     0.113 C 
HETATM   22  F1  UNL     1      27.192   8.723  46.445  1.00  0.00    -0.209 F 
HETATM   23  C17 UNL     1      26.858   9.164  48.591  1.00  0.00     0.174 C 
HETATM   24 CL1  UNL     1      25.325   9.838  48.061  1.00  0.00    -0.113 Cl
ENDROOT
TORSDOF 0
ENDMDL
