MODEL 1
REMARK VINA RESULT:      -8.9      0.000      0.000
REMARK  5 active torsions:
REMARK  status: ('A' for Active; 'I' for Inactive)
REMARK    1  A    between atoms: C3_4  and  C4_5 
REMARK    2  A    between atoms: C8_9  and  O1_10 
REMARK    3  A    between atoms: O1_10  and  C9_11 
REMARK    4  A    between atoms: C9_11  and  C10_12 
REMARK    5  A    between atoms: N2_19  and  C17_20 
ROOT
HETATM    1  C4  UNL     1      23.937   3.430  51.208  1.00  0.00    -0.032 A 
HETATM    2  C5  UNL     1      24.178   4.056  50.018  1.00  0.00     0.009 A 
HETATM    3  C6  UNL     1      25.403   4.095  49.392  1.00  0.00     0.003 A 
HETATM    4  C7  UNL     1      26.473   3.453  50.012  1.00  0.00     0.037 A 
HETATM    5  C8  UNL     1      26.254   2.804  51.231  1.00  0.00     0.069 A 
HETATM    6  C16 UNL     1      24.994   2.798  51.816  1.00  0.00     0.046 A 
ENDROOT
BRANCH   1   7
HETATM    7  C3  UNL     1      22.643   3.373  51.897  1.00  0.00     0.131 C 
HETATM    8  C2  UNL     1      21.449   3.344  50.934  1.00  0.00     0.108 C 
HETATM    9  C1  UNL     1      21.950   1.944  50.759  1.00  0.00     0.101 C 
HETATM   10  N1  UNL     1      22.039   1.180  49.728  1.00  0.00    -0.287 NA
HETATM   11  N2  UNL     1      22.210   1.996  52.180  1.00  0.00    -0.326 N 
HETATM   12  H1  UNL     1      22.433   0.227  49.875  1.00  0.00     0.188 HD
BRANCH  11  13
HETATM   13  C17 UNL     1      21.955   0.864  53.004  1.00  0.00     0.036 A 
HETATM   14  C18 UNL     1      23.116   0.224  53.447  1.00  0.00     0.029 A 
HETATM   15  C19 UNL     1      22.997  -0.891  54.256  1.00  0.00     0.002 A 
HETATM   16  C20 UNL     1      21.709  -1.322  54.592  1.00  0.00     0.000 A 
HETATM   17  C21 UNL     1      20.540  -0.699  54.163  1.00  0.00     0.002 A 
HETATM   18  C22 UNL     1      20.699   0.412  53.355  1.00  0.00     0.029 A 
ENDBRANCH  11  13
ENDBRANCH   1   7
BRANCH   5  19
HETATM   19  O1  UNL     1      27.404   2.204  51.743  1.00  0.00    -0.347 OA
BRANCH  19  20
HETATM   20  C9  UNL     1      27.536   1.668  53.024  1.00  0.00     0.214 C 
BRANCH  20  21
HETATM   21  C10 UNL     1      27.850   0.209  53.013  1.00  0.00    -0.034 A 
HETATM   22  C11 UNL     1      26.818  -0.621  52.564  1.00  0.00     0.009 A 
HETATM   23  C12 UNL     1      26.954  -1.994  52.495  1.00  0.00     0.001 A 
HETATM   24  C13 UNL     1      28.169  -2.507  52.893  1.00  0.00     0.000 A 
HETATM   25  C14 UNL     1      29.216  -1.735  53.343  1.00  0.00     0.001 A 
HETATM   26  C15 UNL     1      29.049  -0.364  53.400  1.00  0.00     0.009 A 
ENDBRANCH  20  21
ENDBRANCH  19  20
ENDBRANCH   5  19
TORSDOF 5
ENDMDL
MODEL 2
REMARK VINA RESULT:      -8.9      1.604      5.083
REMARK  5 active torsions:
REMARK  status: ('A' for Active; 'I' for Inactive)
REMARK    1  A    between atoms: C3_4  and  C4_5 
REMARK    2  A    between atoms: C8_9  and  O1_10 
REMARK    3  A    between atoms: O1_10  and  C9_11 
REMARK    4  A    between atoms: C9_11  and  C10_12 
REMARK    5  A    between atoms: N2_19  and  C17_20 
ROOT
HETATM    1  C4  UNL     1      22.577   1.879  52.083  1.00  0.00    -0.032 A 
HETATM    2  C5  UNL     1      21.631   1.405  52.946  1.00  0.00     0.009 A 
HETATM    3  C6  UNL     1      21.815   0.339  53.797  1.00  0.00     0.003 A 
HETATM    4  C7  UNL     1      23.052  -0.305  53.777  1.00  0.00     0.037 A 
HETATM    5  C8  UNL     1      24.039   0.161  52.902  1.00  0.00     0.069 A 
HETATM    6  C16 UNL     1      23.794   1.243  52.067  1.00  0.00     0.046 A 
ENDROOT
BRANCH   1   7
HETATM    7  C3  UNL     1      22.407   3.013  51.168  1.00  0.00     0.131 C 
HETATM    8  C2  UNL     1      21.982   4.304  51.880  1.00  0.00     0.108 C 
HETATM    9  C1  UNL     1      23.419   4.247  52.295  1.00  0.00     0.101 C 
HETATM   10  N1  UNL     1      24.012   4.537  53.399  1.00  0.00    -0.287 NA
HETATM   11  N2  UNL     1      23.655   3.763  50.954  1.00  0.00    -0.326 N 
HETATM   12  H1  UNL     1      25.046   4.406  53.432  1.00  0.00     0.188 HD
BRANCH  11  13
HETATM   13  C17 UNL     1      24.797   4.190  50.220  1.00  0.00     0.036 A 
HETATM   14  C18 UNL     1      24.643   5.449  49.633  1.00  0.00     0.029 A 
HETATM   15  C19 UNL     1      25.687   5.972  48.892  1.00  0.00     0.002 A 
HETATM   16  C20 UNL     1      26.852   5.206  48.769  1.00  0.00     0.000 A 
HETATM   17  C21 UNL     1      27.025   3.951  49.345  1.00  0.00     0.002 A 
HETATM   18  C22 UNL     1      25.960   3.461  50.077  1.00  0.00     0.029 A 
ENDBRANCH  11  13
ENDBRANCH   1   7
BRANCH   5  19
HETATM   19  O1  UNL     1      25.224  -0.569  52.983  1.00  0.00    -0.347 OA
BRANCH  19  20
HETATM   20  C9  UNL     1      26.340  -0.392  52.164  1.00  0.00     0.214 C 
BRANCH  20  21
HETATM   21  C10 UNL     1      27.488   0.240  52.877  1.00  0.00    -0.034 A 
HETATM   22  C11 UNL     1      27.459   1.636  52.938  1.00  0.00     0.009 A 
HETATM   23  C12 UNL     1      28.449   2.368  53.564  1.00  0.00     0.001 A 
HETATM   24  C13 UNL     1      29.475   1.645  54.131  1.00  0.00     0.000 A 
HETATM   25  C14 UNL     1      29.552   0.271  54.100  1.00  0.00     0.001 A 
HETATM   26  C15 UNL     1      28.545  -0.432  53.466  1.00  0.00     0.009 A 
ENDBRANCH  20  21
ENDBRANCH  19  20
ENDBRANCH   5  19
TORSDOF 5
ENDMDL
MODEL 3
REMARK VINA RESULT:      -8.6      2.021      5.289
REMARK  5 active torsions:
REMARK  status: ('A' for Active; 'I' for Inactive)
REMARK    1  A    between atoms: C3_4  and  C4_5 
REMARK    2  A    between atoms: C8_9  and  O1_10 
REMARK    3  A    between atoms: O1_10  and  C9_11 
REMARK    4  A    between atoms: C9_11  and  C10_12 
REMARK    5  A    between atoms: N2_19  and  C17_20 
ROOT
HETATM    1  C4  UNL     1      22.973   3.059  50.926  1.00  0.00    -0.032 A 
HETATM    2  C5  UNL     1      21.991   2.703  51.806  1.00  0.00     0.009 A 
HETATM    3  C6  UNL     1      22.097   1.680  52.720  1.00  0.00     0.003 A 
HETATM    4  C7  UNL     1      23.288   0.956  52.753  1.00  0.00     0.037 A 
HETATM    5  C8  UNL     1      24.310   1.300  51.864  1.00  0.00     0.069 A 
HETATM    6  C16 UNL     1      24.145   2.343  50.962  1.00  0.00     0.046 A 
ENDROOT
BRANCH   1   7
HETATM    7  C3  UNL     1      22.887   4.145  49.943  1.00  0.00     0.131 C 
HETATM    8  C2  UNL     1      22.318   5.444  50.528  1.00  0.00     0.108 C 
HETATM    9  C1  UNL     1      23.687   5.469  51.135  1.00  0.00     0.101 C 
HETATM   10  N1  UNL     1      24.112   5.832  52.294  1.00  0.00    -0.287 NA
HETATM   11  N2  UNL     1      24.122   4.939  49.863  1.00  0.00    -0.326 N 
HETATM   12  H1  UNL     1      25.135   5.749  52.472  1.00  0.00     0.188 HD
BRANCH  11  13
HETATM   13  C17 UNL     1      25.336   5.385  49.269  1.00  0.00     0.036 A 
HETATM   14  C18 UNL     1      26.363   4.439  49.322  1.00  0.00     0.029 A 
HETATM   15  C19 UNL     1      27.594   4.758  48.778  1.00  0.00     0.002 A 
HETATM   16  C20 UNL     1      27.746   6.022  48.198  1.00  0.00     0.000 A 
HETATM   17  C21 UNL     1      26.737   6.979  48.134  1.00  0.00     0.002 A 
HETATM   18  C22 UNL     1      25.521   6.624  48.689  1.00  0.00     0.029 A 
ENDBRANCH  11  13
ENDBRANCH   1   7
BRANCH   5  19
HETATM   19  O1  UNL     1      25.443   0.499  52.001  1.00  0.00    -0.347 OA
BRANCH  19  20
HETATM   20  C9  UNL     1      25.708  -0.351  53.074  1.00  0.00     0.214 C 
BRANCH  20  21
HETATM   21  C10 UNL     1      27.163  -0.641  53.239  1.00  0.00    -0.034 A 
HETATM   22  C11 UNL     1      27.553  -1.944  52.913  1.00  0.00     0.009 A 
HETATM   23  C12 UNL     1      28.863  -2.368  53.012  1.00  0.00     0.001 A 
HETATM   24  C13 UNL     1      29.775  -1.433  53.451  1.00  0.00     0.000 A 
HETATM   25  C14 UNL     1      29.444  -0.139  53.784  1.00  0.00     0.001 A 
HETATM   26  C15 UNL     1      28.124   0.254  53.674  1.00  0.00     0.009 A 
ENDBRANCH  20  21
ENDBRANCH  19  20
ENDBRANCH   5  19
TORSDOF 5
ENDMDL
MODEL 4
REMARK VINA RESULT:      -8.1      1.432      2.063
REMARK  5 active torsions:
REMARK  status: ('A' for Active; 'I' for Inactive)
REMARK    1  A    between atoms: C3_4  and  C4_5 
REMARK    2  A    between atoms: C8_9  and  O1_10 
REMARK    3  A    between atoms: O1_10  and  C9_11 
REMARK    4  A    between atoms: C9_11  and  C10_12 
REMARK    5  A    between atoms: N2_19  and  C17_20 
ROOT
HETATM    1  C4  UNL     1      22.181   3.707  51.116  1.00  0.00    -0.032 A 
HETATM    2  C5  UNL     1      21.983   4.601  50.103  1.00  0.00     0.009 A 
HETATM    3  C6  UNL     1      22.917   4.907  49.139  1.00  0.00     0.003 A 
HETATM    4  C7  UNL     1      24.151   4.261  49.198  1.00  0.00     0.037 A 
HETATM    5  C8  UNL     1      24.380   3.341  50.225  1.00  0.00     0.069 A 
HETATM    6  C16 UNL     1      23.399   3.072  51.171  1.00  0.00     0.046 A 
ENDROOT
BRANCH   1   7
HETATM    7  C3  UNL     1      21.204   3.362  52.155  1.00  0.00     0.131 C 
HETATM    8  C2  UNL     1      19.780   3.191  51.610  1.00  0.00     0.108 C 
HETATM    9  C1  UNL     1      20.398   1.923  51.108  1.00  0.00     0.101 C 
HETATM   10  N1  UNL     1      20.260   1.271  50.008  1.00  0.00    -0.287 NA
HETATM   11  N2  UNL     1      21.095   1.911  52.374  1.00  0.00    -0.326 N 
HETATM   12  H1  UNL     1      20.817   0.396  49.901  1.00  0.00     0.188 HD
BRANCH  11  13
HETATM   13  C17 UNL     1      21.292   0.692  53.081  1.00  0.00     0.036 A 
HETATM   14  C18 UNL     1      22.638   0.388  53.303  1.00  0.00     0.029 A 
HETATM   15  C19 UNL     1      22.956  -0.775  53.981  1.00  0.00     0.002 A 
HETATM   16  C20 UNL     1      21.905  -1.591  54.412  1.00  0.00     0.000 A 
HETATM   17  C21 UNL     1      20.558  -1.307  54.201  1.00  0.00     0.002 A 
HETATM   18  C22 UNL     1      20.280  -0.136  53.520  1.00  0.00     0.029 A 
ENDBRANCH  11  13
ENDBRANCH   1   7
BRANCH   5  19
HETATM   19  O1  UNL     1      25.650   2.768  50.169  1.00  0.00    -0.347 OA
BRANCH  19  20
HETATM   20  C9  UNL     1      26.607   2.822  51.183  1.00  0.00     0.214 C 
BRANCH  20  21
HETATM   21  C10 UNL     1      26.566   1.631  52.082  1.00  0.00    -0.034 A 
HETATM   22  C11 UNL     1      26.468   1.916  53.448  1.00  0.00     0.009 A 
HETATM   23  C12 UNL     1      26.419   0.923  54.407  1.00  0.00     0.001 A 
HETATM   24  C13 UNL     1      26.471  -0.374  53.945  1.00  0.00     0.000 A 
HETATM   25  C14 UNL     1      26.567  -0.709  52.613  1.00  0.00     0.001 A 
HETATM   26  C15 UNL     1      26.614   0.308  51.678  1.00  0.00     0.009 A 
ENDBRANCH  20  21
ENDBRANCH  19  20
ENDBRANCH   5  19
TORSDOF 5
ENDMDL
MODEL 5
REMARK VINA RESULT:      -8.1      2.495      3.716
REMARK  5 active torsions:
REMARK  status: ('A' for Active; 'I' for Inactive)
REMARK    1  A    between atoms: C3_4  and  C4_5 
REMARK    2  A    between atoms: C8_9  and  O1_10 
REMARK    3  A    between atoms: O1_10  and  C9_11 
REMARK    4  A    between atoms: C9_11  and  C10_12 
REMARK    5  A    between atoms: N2_19  and  C17_20 
ROOT
HETATM    1  C4  UNL     1      22.151   1.090  50.968  1.00  0.00    -0.032 A 
HETATM    2  C5  UNL     1      21.753   1.354  49.689  1.00  0.00     0.009 A 
HETATM    3  C6  UNL     1      22.405   2.209  48.830  1.00  0.00     0.003 A 
HETATM    4  C7  UNL     1      23.552   2.851  49.296  1.00  0.00     0.037 A 
HETATM    5  C8  UNL     1      23.981   2.599  50.601  1.00  0.00     0.069 A 
HETATM    6  C16 UNL     1      23.281   1.725  51.424  1.00  0.00     0.046 A 
ENDROOT
BRANCH   1   7
HETATM    7  C3  UNL     1      21.476   0.184  51.904  1.00  0.00     0.131 C 
HETATM    8  C2  UNL     1      21.333   0.771  53.314  1.00  0.00     0.108 C 
HETATM    9  C1  UNL     1      20.288   1.570  52.599  1.00  0.00     0.101 C 
HETATM   10  N1  UNL     1      19.926   2.801  52.693  1.00  0.00    -0.287 NA
HETATM   11  N2  UNL     1      20.013   0.340  51.892  1.00  0.00    -0.326 N 
HETATM   12  H1  UNL     1      19.155   3.119  52.068  1.00  0.00     0.188 HD
BRANCH  11  13
HETATM   13  C17 UNL     1      18.675  -0.038  51.589  1.00  0.00     0.036 A 
HETATM   14  C18 UNL     1      18.249   0.380  50.326  1.00  0.00     0.029 A 
HETATM   15  C19 UNL     1      16.964   0.072  49.918  1.00  0.00     0.002 A 
HETATM   16  C20 UNL     1      16.153  -0.649  50.799  1.00  0.00     0.000 A 
HETATM   17  C21 UNL     1      16.556  -1.076  52.062  1.00  0.00     0.002 A 
HETATM   18  C22 UNL     1      17.847  -0.749  52.434  1.00  0.00     0.029 A 
ENDBRANCH  11  13
ENDBRANCH   1   7
BRANCH   5  19
HETATM   19  O1  UNL     1      25.137   3.303  50.940  1.00  0.00    -0.347 OA
BRANCH  19  20
HETATM   20  C9  UNL     1      26.414   2.754  51.057  1.00  0.00     0.214 C 
BRANCH  20  21
HETATM   21  C10 UNL     1      26.507   1.729  52.138  1.00  0.00    -0.034 A 
HETATM   22  C11 UNL     1      26.731   0.419  51.702  1.00  0.00     0.009 A 
HETATM   23  C12 UNL     1      26.841  -0.641  52.579  1.00  0.00     0.001 A 
HETATM   24  C13 UNL     1      26.720  -0.340  53.918  1.00  0.00     0.000 A 
HETATM   25  C14 UNL     1      26.500   0.931  54.400  1.00  0.00     0.001 A 
HETATM   26  C15 UNL     1      26.394   1.971  53.496  1.00  0.00     0.009 A 
ENDBRANCH  20  21
ENDBRANCH  19  20
ENDBRANCH   5  19
TORSDOF 5
ENDMDL
MODEL 6
REMARK VINA RESULT:      -8.0      1.644      4.800
REMARK  5 active torsions:
REMARK  status: ('A' for Active; 'I' for Inactive)
REMARK    1  A    between atoms: C3_4  and  C4_5 
REMARK    2  A    between atoms: C8_9  and  O1_10 
REMARK    3  A    between atoms: O1_10  and  C9_11 
REMARK    4  A    between atoms: C9_11  and  C10_12 
REMARK    5  A    between atoms: N2_19  and  C17_20 
ROOT
HETATM    1  C4  UNL     1      21.394  -0.010  52.301  1.00  0.00    -0.032 A 
HETATM    2  C5  UNL     1      20.617  -0.422  53.345  1.00  0.00     0.009 A 
HETATM    3  C6  UNL     1      21.106  -0.901  54.539  1.00  0.00     0.003 A 
HETATM    4  C7  UNL     1      22.489  -0.972  54.696  1.00  0.00     0.037 A 
HETATM    5  C8  UNL     1      23.308  -0.555  53.643  1.00  0.00     0.069 A 
HETATM    6  C16 UNL     1      22.758  -0.080  52.459  1.00  0.00     0.046 A 
ENDROOT
BRANCH   1   7
HETATM    7  C3  UNL     1      20.901   0.505  51.019  1.00  0.00     0.131 C 
HETATM    8  C2  UNL     1      19.572   1.261  51.145  1.00  0.00     0.108 C 
HETATM    9  C1  UNL     1      20.499   2.279  51.733  1.00  0.00     0.101 C 
HETATM   10  N1  UNL     1      20.374   3.095  52.719  1.00  0.00    -0.287 NA
HETATM   11  N2  UNL     1      21.420   1.846  50.706  1.00  0.00    -0.326 N 
HETATM   12  H1  UNL     1      21.186   3.713  52.931  1.00  0.00     0.188 HD
BRANCH  11  13
HETATM   13  C17 UNL     1      22.235   2.789  50.020  1.00  0.00     0.036 A 
HETATM   14  C18 UNL     1      21.538   3.543  49.072  1.00  0.00     0.029 A 
HETATM   15  C19 UNL     1      22.225   4.494  48.339  1.00  0.00     0.002 A 
HETATM   16  C20 UNL     1      23.592   4.652  48.588  1.00  0.00     0.000 A 
HETATM   17  C21 UNL     1      24.305   3.911  49.527  1.00  0.00     0.002 A 
HETATM   18  C22 UNL     1      23.585   2.971  50.240  1.00  0.00     0.029 A 
ENDBRANCH  11  13
ENDBRANCH   1   7
BRANCH   5  19
HETATM   19  O1  UNL     1      24.668  -0.677  53.930  1.00  0.00    -0.347 OA
BRANCH  19  20
HETATM   20  C9  UNL     1      25.633   0.304  53.704  1.00  0.00     0.214 C 
BRANCH  20  21
HETATM   21  C10 UNL     1      27.015  -0.253  53.611  1.00  0.00    -0.034 A 
HETATM   22  C11 UNL     1      27.109  -1.522  53.031  1.00  0.00     0.009 A 
HETATM   23  C12 UNL     1      28.318  -2.172  52.873  1.00  0.00     0.001 A 
HETATM   24  C13 UNL     1      29.435  -1.500  53.319  1.00  0.00     0.000 A 
HETATM   25  C14 UNL     1      29.397  -0.251  53.897  1.00  0.00     0.001 A 
HETATM   26  C15 UNL     1      28.172   0.373  54.040  1.00  0.00     0.009 A 
ENDBRANCH  20  21
ENDBRANCH  19  20
ENDBRANCH   5  19
TORSDOF 5
ENDMDL
MODEL 7
REMARK VINA RESULT:      -8.0      2.358      5.636
REMARK  5 active torsions:
REMARK  status: ('A' for Active; 'I' for Inactive)
REMARK    1  A    between atoms: C3_4  and  C4_5 
REMARK    2  A    between atoms: C8_9  and  O1_10 
REMARK    3  A    between atoms: O1_10  and  C9_11 
REMARK    4  A    between atoms: C9_11  and  C10_12 
REMARK    5  A    between atoms: N2_19  and  C17_20 
ROOT
HETATM    1  C4  UNL     1      20.820  -0.082  52.454  1.00  0.00    -0.032 A 
HETATM    2  C5  UNL     1      20.410  -0.580  53.658  1.00  0.00     0.009 A 
HETATM    3  C6  UNL     1      21.257  -0.945  54.680  1.00  0.00     0.003 A 
HETATM    4  C7  UNL     1      22.628  -0.797  54.475  1.00  0.00     0.037 A 
HETATM    5  C8  UNL     1      23.075  -0.289  53.252  1.00  0.00     0.069 A 
HETATM    6  C16 UNL     1      22.172   0.062  52.256  1.00  0.00     0.046 A 
ENDROOT
BRANCH   1   7
HETATM    7  C3  UNL     1      19.941   0.315  51.349  1.00  0.00     0.131 C 
HETATM    8  C2  UNL     1      18.785   1.221  51.794  1.00  0.00     0.108 C 
HETATM    9  C1  UNL     1      19.917   2.198  51.866  1.00  0.00     0.101 C 
HETATM   10  N1  UNL     1      20.192   3.143  52.695  1.00  0.00    -0.287 NA
HETATM   11  N2  UNL     1      20.395   1.539  50.672  1.00  0.00    -0.326 N 
HETATM   12  H1  UNL     1      21.061   3.691  52.520  1.00  0.00     0.188 HD
BRANCH  11  13
HETATM   13  C17 UNL     1      20.972   2.292  49.611  1.00  0.00     0.036 A 
HETATM   14  C18 UNL     1      21.848   1.550  48.814  1.00  0.00     0.029 A 
HETATM   15  C19 UNL     1      22.472   2.173  47.749  1.00  0.00     0.002 A 
HETATM   16  C20 UNL     1      22.192   3.526  47.526  1.00  0.00     0.000 A 
HETATM   17  C21 UNL     1      21.324   4.283  48.308  1.00  0.00     0.002 A 
HETATM   18  C22 UNL     1      20.719   3.625  49.362  1.00  0.00     0.029 A 
ENDBRANCH  11  13
ENDBRANCH   1   7
BRANCH   5  19
HETATM   19  O1  UNL     1      24.464  -0.193  53.178  1.00  0.00    -0.347 OA
BRANCH  19  20
HETATM   20  C9  UNL     1      25.208   0.966  53.404  1.00  0.00     0.214 C 
BRANCH  20  21
HETATM   21  C10 UNL     1      24.849   2.076  52.473  1.00  0.00    -0.034 A 
HETATM   22  C11 UNL     1      24.087   3.105  53.036  1.00  0.00     0.009 A 
HETATM   23  C12 UNL     1      23.675   4.202  52.306  1.00  0.00     0.001 A 
HETATM   24  C13 UNL     1      24.059   4.232  50.982  1.00  0.00     0.000 A 
HETATM   25  C14 UNL     1      24.808   3.247  50.380  1.00  0.00     0.001 A 
HETATM   26  C15 UNL     1      25.204   2.161  51.139  1.00  0.00     0.009 A 
ENDBRANCH  20  21
ENDBRANCH  19  20
ENDBRANCH   5  19
TORSDOF 5
ENDMDL
MODEL 8
REMARK VINA RESULT:      -8.0      2.687      7.209
REMARK  5 active torsions:
REMARK  status: ('A' for Active; 'I' for Inactive)
REMARK    1  A    between atoms: C3_4  and  C4_5 
REMARK    2  A    between atoms: C8_9  and  O1_10 
REMARK    3  A    between atoms: O1_10  and  C9_11 
REMARK    4  A    between atoms: C9_11  and  C10_12 
REMARK    5  A    between atoms: N2_19  and  C17_20 
ROOT
HETATM    1  C4  UNL     1      24.085   2.237  50.897  1.00  0.00    -0.032 A 
HETATM    2  C5  UNL     1      25.334   1.999  51.394  1.00  0.00     0.009 A 
HETATM    3  C6  UNL     1      25.608   1.149  52.441  1.00  0.00     0.003 A 
HETATM    4  C7  UNL     1      24.537   0.483  53.037  1.00  0.00     0.037 A 
HETATM    5  C8  UNL     1      23.248   0.709  52.547  1.00  0.00     0.069 A 
HETATM    6  C16 UNL     1      23.032   1.579  51.487  1.00  0.00     0.046 A 
ENDROOT
BRANCH   1   7
HETATM    7  C3  UNL     1      23.765   3.136  49.782  1.00  0.00     0.131 C 
HETATM    8  C2  UNL     1      22.753   4.226  50.159  1.00  0.00     0.108 C 
HETATM    9  C1  UNL     1      23.968   4.756  50.856  1.00  0.00     0.101 C 
HETATM   10  N1  UNL     1      24.127   5.345  51.988  1.00  0.00    -0.287 NA
HETATM   11  N2  UNL     1      24.685   4.281  49.694  1.00  0.00    -0.326 N 
HETATM   12  H1  UNL     1      25.098   5.620  52.249  1.00  0.00     0.188 HD
BRANCH  11  13
HETATM   13  C17 UNL     1      25.750   5.044  49.139  1.00  0.00     0.036 A 
HETATM   14  C18 UNL     1      26.968   4.359  49.108  1.00  0.00     0.029 A 
HETATM   15  C19 UNL     1      28.081   4.998  48.591  1.00  0.00     0.002 A 
HETATM   16  C20 UNL     1      27.926   6.307  48.122  1.00  0.00     0.000 A 
HETATM   17  C21 UNL     1      26.722   7.007  48.144  1.00  0.00     0.002 A 
HETATM   18  C22 UNL     1      25.633   6.336  48.668  1.00  0.00     0.029 A 
ENDBRANCH  11  13
ENDBRANCH   1   7
BRANCH   5  19
HETATM   19  O1  UNL     1      22.272  -0.017  53.231  1.00  0.00    -0.347 OA
BRANCH  19  20
HETATM   20  C9  UNL     1      21.108   0.517  53.786  1.00  0.00     0.214 C 
BRANCH  20  21
HETATM   21  C10 UNL     1      19.872   0.079  53.072  1.00  0.00    -0.034 A 
HETATM   22  C11 UNL     1      19.574   0.788  51.904  1.00  0.00     0.009 A 
HETATM   23  C12 UNL     1      18.465   0.504  51.132  1.00  0.00     0.001 A 
HETATM   24  C13 UNL     1      17.662  -0.525  51.574  1.00  0.00     0.000 A 
HETATM   25  C14 UNL     1      17.910  -1.254  52.715  1.00  0.00     0.001 A 
HETATM   26  C15 UNL     1      19.028  -0.944  53.466  1.00  0.00     0.009 A 
ENDBRANCH  20  21
ENDBRANCH  19  20
ENDBRANCH   5  19
TORSDOF 5
ENDMDL
MODEL 9
REMARK VINA RESULT:      -7.8      3.500      7.398
REMARK  5 active torsions:
REMARK  status: ('A' for Active; 'I' for Inactive)
REMARK    1  A    between atoms: C3_4  and  C4_5 
REMARK    2  A    between atoms: C8_9  and  O1_10 
REMARK    3  A    between atoms: O1_10  and  C9_11 
REMARK    4  A    between atoms: C9_11  and  C10_12 
REMARK    5  A    between atoms: N2_19  and  C17_20 
ROOT
HETATM    1  C4  UNL     1      25.060   4.565  49.525  1.00  0.00    -0.032 A 
HETATM    2  C5  UNL     1      26.264   3.934  49.663  1.00  0.00     0.009 A 
HETATM    3  C6  UNL     1      26.502   2.890  50.527  1.00  0.00     0.003 A 
HETATM    4  C7  UNL     1      25.444   2.443  51.318  1.00  0.00     0.037 A 
HETATM    5  C8  UNL     1      24.201   3.071  51.196  1.00  0.00     0.069 A 
HETATM    6  C16 UNL     1      24.020   4.121  50.305  1.00  0.00     0.046 A 
ENDROOT
BRANCH   1   7
HETATM    7  C3  UNL     1      24.779   5.678  48.612  1.00  0.00     0.131 C 
HETATM    8  C2  UNL     1      24.173   6.898  49.319  1.00  0.00     0.108 C 
HETATM    9  C1  UNL     1      25.593   7.017  49.779  1.00  0.00     0.101 C 
HETATM   10  N1  UNL     1      26.110   7.367  50.903  1.00  0.00    -0.287 NA
HETATM   11  N2  UNL     1      25.928   6.580  48.443  1.00  0.00    -0.326 N 
HETATM   12  H1  UNL     1      27.150   7.366  50.968  1.00  0.00     0.188 HD
BRANCH  11  13
HETATM   13  C17 UNL     1      27.030   7.154  47.748  1.00  0.00     0.036 A 
HETATM   14  C18 UNL     1      26.667   8.198  46.893  1.00  0.00     0.029 A 
HETATM   15  C19 UNL     1      27.652   8.836  46.162  1.00  0.00     0.002 A 
HETATM   16  C20 UNL     1      28.971   8.399  46.320  1.00  0.00     0.000 A 
HETATM   17  C21 UNL     1      29.355   7.362  47.166  1.00  0.00     0.002 A 
HETATM   18  C22 UNL     1      28.342   6.748  47.879  1.00  0.00     0.029 A 
ENDBRANCH  11  13
ENDBRANCH   1   7
BRANCH   5  19
HETATM   19  O1  UNL     1      23.233   2.529  52.040  1.00  0.00    -0.347 OA
BRANCH  19  20
HETATM   20  C9  UNL     1      22.614   1.290  51.871  1.00  0.00     0.214 C 
BRANCH  20  21
HETATM   21  C10 UNL     1      22.792   0.388  53.048  1.00  0.00    -0.034 A 
HETATM   22  C11 UNL     1      21.614   0.041  53.717  1.00  0.00     0.009 A 
HETATM   23  C12 UNL     1      21.612  -0.786  54.824  1.00  0.00     0.001 A 
HETATM   24  C13 UNL     1      22.840  -1.255  55.237  1.00  0.00     0.000 A 
HETATM   25  C14 UNL     1      24.028  -0.944  54.614  1.00  0.00     0.001 A 
HETATM   26  C15 UNL     1      23.996  -0.115  53.509  1.00  0.00     0.009 A 
ENDBRANCH  20  21
ENDBRANCH  19  20
ENDBRANCH   5  19
TORSDOF 5
ENDMDL
