MODEL 1
REMARK VINA RESULT:      -9.1      0.000      0.000
REMARK  5 active torsions:
REMARK  status: ('A' for Active; 'I' for Inactive)
REMARK    1  A    between atoms: C5_5  and  C6_6 
REMARK       I    between atoms: C6_6  and  N1_8 
REMARK    2  A    between atoms: N1_8  and  C7_9 
REMARK    3  A    between atoms: C10_14  and  N4_15 
REMARK    4  A    between atoms: N4_15  and  C11_16 
REMARK    5  A    between atoms: N5_28  and  O2_29 
ROOT
HETATM    1  C7  UNL     1      26.670   2.011  52.458  1.00  0.00     0.123 A 
HETATM    2  C8  UNL     1      27.267   2.641  53.715  1.00  0.00     0.146 A 
HETATM    3  N2  UNL     1      28.631   2.417  54.030  1.00  0.00    -0.275 NA
HETATM    4  C9  UNL     1      29.054   1.269  54.411  1.00  0.00     0.229 A 
HETATM    5  N3  UNL     1      28.204   0.137  54.550  1.00  0.00    -0.229 NA
HETATM    6  C10 UNL     1      26.947   0.295  54.270  1.00  0.00     0.114 A 
HETATM    7  C17 UNL     1      26.320   1.536  53.820  1.00  0.00     0.107 A 
ENDROOT
BRANCH   1   8
HETATM    8  N1  UNL     1      25.834   2.883  51.693  1.00  0.00    -0.353 N 
HETATM    9  C6  UNL     1      26.100   3.087  50.304  1.00  0.00     0.222 C 
HETATM   10  O1  UNL     1      27.076   2.485  49.787  1.00  0.00    -0.273 OA
HETATM   11  H10 UNL     1      25.058   3.316  52.260  1.00  0.00     0.163 HD
BRANCH   9  12
HETATM   12  C5  UNL     1      25.166   4.017  49.604  1.00  0.00     0.082 C 
HETATM   13  C4  UNL     1      24.121   4.402  50.599  1.00  0.00     0.046 C 
HETATM   14  C2  UNL     1      23.142   5.416  50.066  1.00  0.00     0.048 C 
HETATM   15  C1  UNL     1      22.103   4.627  49.279  1.00  0.00     0.040 C 
HETATM   16  C3  UNL     1      22.424   6.152  51.169  1.00  0.00     0.040 C 
HETATM   17  N5  UNL     1      23.705   6.358  49.169  1.00  0.00    -0.278 N 
HETATM   18  C19 UNL     1      25.127   6.508  49.209  1.00  0.00     0.048 C 
HETATM   19  C18 UNL     1      25.914   5.240  49.184  1.00  0.00     0.046 C 
HETATM   20  C20 UNL     1      25.600   7.363  50.360  1.00  0.00     0.040 C 
HETATM   21  C21 UNL     1      25.493   7.301  47.946  1.00  0.00     0.040 C 
BRANCH  17  22
HETATM   22  O2  UNL     1      23.191   6.330  47.921  1.00  0.00    -0.291 OA
HETATM   23  H28 UNL     1      23.670   5.620  47.397  1.00  0.00     0.244 HD
ENDBRANCH  17  22
ENDBRANCH   9  12
ENDBRANCH   1   8
BRANCH   6  24
HETATM   24  N4  UNL     1      26.126  -0.856  54.419  1.00  0.00    -0.344 N 
HETATM   25  H14 UNL     1      26.493  -1.826  54.648  1.00  0.00     0.167 HD
BRANCH  24  26
HETATM   26  C11 UNL     1      24.711  -0.848  54.279  1.00  0.00     0.035 A 
HETATM   27  C12 UNL     1      24.047  -1.295  55.403  1.00  0.00     0.029 A 
HETATM   28  C13 UNL     1      22.653  -1.341  55.410  1.00  0.00     0.004 A 
HETATM   29  C14 UNL     1      21.929  -0.938  54.284  1.00  0.00     0.024 A 
HETATM   30  C15 UNL     1      22.609  -0.497  53.178  1.00  0.00     0.036 A 
HETATM   31 CL1  UNL     1      21.793   0.025  51.734  1.00  0.00    -0.084 Cl
HETATM   32  C16 UNL     1      23.999  -0.451  53.174  1.00  0.00     0.053 A 
ENDBRANCH  24  26
ENDBRANCH   6  24
TORSDOF 5
ENDMDL
MODEL 2
REMARK VINA RESULT:      -9.1      3.879      6.008
REMARK  5 active torsions:
REMARK  status: ('A' for Active; 'I' for Inactive)
REMARK    1  A    between atoms: C5_5  and  C6_6 
REMARK       I    between atoms: C6_6  and  N1_8 
REMARK    2  A    between atoms: N1_8  and  C7_9 
REMARK    3  A    between atoms: C10_14  and  N4_15 
REMARK    4  A    between atoms: N4_15  and  C11_16 
REMARK    5  A    between atoms: N5_28  and  O2_29 
ROOT
HETATM    1  C7  UNL     1      26.257   4.392  49.933  1.00  0.00     0.123 A 
HETATM    2  C8  UNL     1      25.364   3.337  49.282  1.00  0.00     0.146 A 
HETATM    3  N2  UNL     1      23.955   3.462  49.369  1.00  0.00    -0.275 NA
HETATM    4  C9  UNL     1      23.332   3.296  50.477  1.00  0.00     0.229 A 
HETATM    5  N3  UNL     1      23.990   2.978  51.697  1.00  0.00    -0.229 NA
HETATM    6  C10 UNL     1      25.282   2.856  51.665  1.00  0.00     0.114 A 
HETATM    7  C17 UNL     1      26.128   3.020  50.484  1.00  0.00     0.107 A 
ENDROOT
BRANCH   1   8
HETATM    8  N1  UNL     1      27.362   4.815  49.133  1.00  0.00    -0.353 N 
HETATM    9  C6  UNL     1      27.386   6.137  48.591  1.00  0.00     0.222 C 
HETATM   10  O1  UNL     1      26.417   6.901  48.839  1.00  0.00    -0.273 OA
HETATM   11  H10 UNL     1      28.097   4.068  49.012  1.00  0.00     0.163 HD
BRANCH   9  12
HETATM   12  C5  UNL     1      28.586   6.471  47.771  1.00  0.00     0.082 C 
HETATM   13  C4  UNL     1      29.053   7.816  48.223  1.00  0.00     0.046 C 
HETATM   14  C2  UNL     1      30.322   8.261  47.544  1.00  0.00     0.048 C 
HETATM   15  C1  UNL     1      29.899   8.857  46.207  1.00  0.00     0.040 C 
HETATM   16  C3  UNL     1      31.039   9.335  48.321  1.00  0.00     0.040 C 
HETATM   17  N5  UNL     1      31.230   7.212  47.254  1.00  0.00    -0.278 N 
HETATM   18  C19 UNL     1      31.054   5.994  47.984  1.00  0.00     0.048 C 
HETATM   19  C18 UNL     1      29.659   5.467  48.040  1.00  0.00     0.046 C 
HETATM   20  C20 UNL     1      31.617   6.058  49.384  1.00  0.00     0.040 C 
HETATM   21  C21 UNL     1      31.913   4.950  47.256  1.00  0.00     0.040 C 
BRANCH  17  22
HETATM   22  O2  UNL     1      31.488   7.031  45.941  1.00  0.00    -0.291 OA
HETATM   23  H28 UNL     1      32.317   7.547  45.707  1.00  0.00     0.244 HD
ENDBRANCH  17  22
ENDBRANCH   9  12
ENDBRANCH   1   8
BRANCH   6  24
HETATM   24  N4  UNL     1      25.908   2.537  52.900  1.00  0.00    -0.344 N 
HETATM   25  H14 UNL     1      25.744   3.065  53.807  1.00  0.00     0.167 HD
BRANCH  24  26
HETATM   26  C11 UNL     1      26.834   1.471  53.072  1.00  0.00     0.035 A 
HETATM   27  C12 UNL     1      28.043   1.874  53.599  1.00  0.00     0.029 A 
HETATM   28  C13 UNL     1      29.048   0.933  53.823  1.00  0.00     0.004 A 
HETATM   29  C14 UNL     1      28.834  -0.413  53.516  1.00  0.00     0.024 A 
HETATM   30  C15 UNL     1      27.624  -0.792  52.993  1.00  0.00     0.036 A 
HETATM   31 CL1  UNL     1      27.268  -2.444  52.582  1.00  0.00    -0.084 Cl
HETATM   32  C16 UNL     1      26.624   0.148  52.771  1.00  0.00     0.053 A 
ENDBRANCH  24  26
ENDBRANCH   6  24
TORSDOF 5
ENDMDL
MODEL 3
REMARK VINA RESULT:      -9.0      1.227      2.299
REMARK  5 active torsions:
REMARK  status: ('A' for Active; 'I' for Inactive)
REMARK    1  A    between atoms: C5_5  and  C6_6 
REMARK       I    between atoms: C6_6  and  N1_8 
REMARK    2  A    between atoms: N1_8  and  C7_9 
REMARK    3  A    between atoms: C10_14  and  N4_15 
REMARK    4  A    between atoms: N4_15  and  C11_16 
REMARK    5  A    between atoms: N5_28  and  O2_29 
ROOT
HETATM    1  C7  UNL     1      26.200   1.794  52.813  1.00  0.00     0.123 A 
HETATM    2  C8  UNL     1      27.483   1.830  53.642  1.00  0.00     0.146 A 
HETATM    3  N2  UNL     1      28.562   0.977  53.298  1.00  0.00    -0.275 NA
HETATM    4  C9  UNL     1      28.496  -0.293  53.464  1.00  0.00     0.229 A 
HETATM    5  N3  UNL     1      27.352  -0.946  54.000  1.00  0.00    -0.229 NA
HETATM    6  C10 UNL     1      26.338  -0.204  54.327  1.00  0.00     0.114 A 
HETATM    7  C17 UNL     1      26.262   1.249  54.192  1.00  0.00     0.107 A 
ENDROOT
BRANCH   1   8
HETATM    8  N1  UNL     1      25.656   3.078  52.501  1.00  0.00    -0.353 N 
HETATM    9  C6  UNL     1      24.788   3.231  51.376  1.00  0.00     0.222 C 
HETATM   10  O1  UNL     1      24.525   2.215  50.682  1.00  0.00    -0.273 OA
HETATM   11  H10 UNL     1      25.964   3.833  53.170  1.00  0.00     0.163 HD
BRANCH   9  12
HETATM   12  C5  UNL     1      24.279   4.614  51.144  1.00  0.00     0.082 C 
HETATM   13  C4  UNL     1      25.048   5.164  49.987  1.00  0.00     0.046 C 
HETATM   14  C2  UNL     1      24.586   6.536  49.569  1.00  0.00     0.048 C 
HETATM   15  C1  UNL     1      25.284   7.519  50.501  1.00  0.00     0.040 C 
HETATM   16  C3  UNL     1      24.996   6.870  48.157  1.00  0.00     0.040 C 
HETATM   17  N5  UNL     1      23.194   6.755  49.714  1.00  0.00    -0.278 N 
HETATM   18  C19 UNL     1      22.370   5.588  49.813  1.00  0.00     0.048 C 
HETATM   19  C18 UNL     1      22.831   4.549  50.780  1.00  0.00     0.046 C 
HETATM   20  C20 UNL     1      22.102   4.939  48.477  1.00  0.00     0.040 C 
HETATM   21  C21 UNL     1      21.002   6.091  50.295  1.00  0.00     0.040 C 
BRANCH  17  22
HETATM   22  O2  UNL     1      22.860   7.737  50.579  1.00  0.00    -0.291 OA
HETATM   23  H28 UNL     1      23.655   8.337  50.699  1.00  0.00     0.244 HD
ENDBRANCH  17  22
ENDBRANCH   9  12
ENDBRANCH   1   8
BRANCH   6  24
HETATM   24  N4  UNL     1      25.212  -0.888  54.860  1.00  0.00    -0.344 N 
HETATM   25  H14 UNL     1      25.250  -1.542  55.696  1.00  0.00     0.167 HD
BRANCH  24  26
HETATM   26  C11 UNL     1      23.894  -0.780  54.337  1.00  0.00     0.035 A 
HETATM   27  C12 UNL     1      22.923  -1.248  55.198  1.00  0.00     0.029 A 
HETATM   28  C13 UNL     1      21.581  -1.203  54.817  1.00  0.00     0.004 A 
HETATM   29  C14 UNL     1      21.220  -0.688  53.569  1.00  0.00     0.024 A 
HETATM   30  C15 UNL     1      22.202  -0.228  52.729  1.00  0.00     0.036 A 
HETATM   31 CL1  UNL     1      21.846   0.430  51.159  1.00  0.00    -0.084 Cl
HETATM   32  C16 UNL     1      23.537  -0.273  53.112  1.00  0.00     0.053 A 
ENDBRANCH  24  26
ENDBRANCH   6  24
TORSDOF 5
ENDMDL
MODEL 4
REMARK VINA RESULT:      -8.7      3.269      5.623
REMARK  5 active torsions:
REMARK  status: ('A' for Active; 'I' for Inactive)
REMARK    1  A    between atoms: C5_5  and  C6_6 
REMARK       I    between atoms: C6_6  and  N1_8 
REMARK    2  A    between atoms: N1_8  and  C7_9 
REMARK    3  A    between atoms: C10_14  and  N4_15 
REMARK    4  A    between atoms: N4_15  and  C11_16 
REMARK    5  A    between atoms: N5_28  and  O2_29 
ROOT
HETATM    1  C7  UNL     1      25.660   4.917  50.054  1.00  0.00     0.123 A 
HETATM    2  C8  UNL     1      25.259   3.690  49.238  1.00  0.00     0.146 A 
HETATM    3  N2  UNL     1      23.971   3.124  49.412  1.00  0.00    -0.275 NA
HETATM    4  C9  UNL     1      23.647   2.507  50.488  1.00  0.00     0.229 A 
HETATM    5  N3  UNL     1      24.538   2.339  51.584  1.00  0.00    -0.229 NA
HETATM    6  C10 UNL     1      25.728   2.844  51.469  1.00  0.00     0.114 A 
HETATM    7  C17 UNL     1      26.240   3.575  50.312  1.00  0.00     0.107 A 
ENDROOT
BRANCH   1   8
HETATM    8  N1  UNL     1      26.335   5.933  49.311  1.00  0.00    -0.353 N 
HETATM    9  C6  UNL     1      26.088   7.311  49.599  1.00  0.00     0.222 C 
HETATM   10  O1  UNL     1      25.271   7.593  50.513  1.00  0.00    -0.273 OA
HETATM   11  H10 UNL     1      26.989   5.547  48.579  1.00  0.00     0.163 HD
BRANCH   9  12
HETATM   12  C5  UNL     1      26.847   8.286  48.762  1.00  0.00     0.082 C 
HETATM   13  C4  UNL     1      27.995   8.760  49.591  1.00  0.00     0.046 C 
HETATM   14  C2  UNL     1      28.915   9.694  48.849  1.00  0.00     0.048 C 
HETATM   15  C1  UNL     1      28.278  11.075  48.939  1.00  0.00     0.040 C 
HETATM   16  C3  UNL     1      30.280   9.773  49.483  1.00  0.00     0.040 C 
HETATM   17  N5  UNL     1      29.059   9.400  47.470  1.00  0.00    -0.278 N 
HETATM   18  C19 UNL     1      28.693   8.081  47.056  1.00  0.00     0.048 C 
HETATM   19  C18 UNL     1      27.375   7.587  47.552  1.00  0.00     0.046 C 
HETATM   20  C20 UNL     1      29.755   7.051  47.357  1.00  0.00     0.040 C 
HETATM   21  C21 UNL     1      28.616   8.137  45.523  1.00  0.00     0.040 C 
BRANCH  17  22
HETATM   22  O2  UNL     1      28.636  10.374  46.635  1.00  0.00    -0.291 OA
HETATM   23  H28 UNL     1      29.020  11.248  46.946  1.00  0.00     0.244 HD
ENDBRANCH  17  22
ENDBRANCH   9  12
ENDBRANCH   1   8
BRANCH   6  24
HETATM   24  N4  UNL     1      26.593   2.658  52.581  1.00  0.00    -0.344 N 
HETATM   25  H14 UNL     1      26.780   3.395  53.322  1.00  0.00     0.167 HD
BRANCH  24  26
HETATM   26  C11 UNL     1      27.315   1.459  52.838  1.00  0.00     0.035 A 
HETATM   27  C12 UNL     1      28.547   1.676  53.420  1.00  0.00     0.029 A 
HETATM   28  C13 UNL     1      29.366   0.590  53.729  1.00  0.00     0.004 A 
HETATM   29  C14 UNL     1      28.943  -0.713  53.451  1.00  0.00     0.024 A 
HETATM   30  C15 UNL     1      27.715  -0.905  52.872  1.00  0.00     0.036 A 
HETATM   31 CL1  UNL     1      27.107  -2.489  52.491  1.00  0.00    -0.084 Cl
HETATM   32  C16 UNL     1      26.901   0.179  52.565  1.00  0.00     0.053 A 
ENDBRANCH  24  26
ENDBRANCH   6  24
TORSDOF 5
ENDMDL
MODEL 5
REMARK VINA RESULT:      -8.6      2.476      4.589
REMARK  5 active torsions:
REMARK  status: ('A' for Active; 'I' for Inactive)
REMARK    1  A    between atoms: C5_5  and  C6_6 
REMARK       I    between atoms: C6_6  and  N1_8 
REMARK    2  A    between atoms: N1_8  and  C7_9 
REMARK    3  A    between atoms: C10_14  and  N4_15 
REMARK    4  A    between atoms: N4_15  and  C11_16 
REMARK    5  A    between atoms: N5_28  and  O2_29 
ROOT
HETATM    1  C7  UNL     1      22.324   1.152  53.318  1.00  0.00     0.123 A 
HETATM    2  C8  UNL     1      21.756  -0.142  52.736  1.00  0.00     0.146 A 
HETATM    3  N2  UNL     1      20.820  -0.896  53.488  1.00  0.00    -0.275 NA
HETATM    4  C9  UNL     1      21.164  -1.530  54.548  1.00  0.00     0.229 A 
HETATM    5  N3  UNL     1      22.494  -1.532  55.053  1.00  0.00    -0.229 NA
HETATM    6  C10 UNL     1      23.384  -0.852  54.397  1.00  0.00     0.114 A 
HETATM    7  C17 UNL     1      23.144  -0.078  53.182  1.00  0.00     0.107 A 
ENDROOT
BRANCH   1   8
HETATM    8  N1  UNL     1      22.387   2.243  52.397  1.00  0.00    -0.353 N 
HETATM    9  C6  UNL     1      23.422   3.220  52.520  1.00  0.00     0.222 C 
HETATM   10  O1  UNL     1      24.260   3.089  53.449  1.00  0.00    -0.273 OA
HETATM   11  H10 UNL     1      21.620   2.221  51.674  1.00  0.00     0.163 HD
BRANCH   9  12
HETATM   12  C5  UNL     1      23.392   4.315  51.507  1.00  0.00     0.082 C 
HETATM   13  C4  UNL     1      24.763   4.391  50.919  1.00  0.00     0.046 C 
HETATM   14  C2  UNL     1      24.874   5.401  49.806  1.00  0.00     0.048 C 
HETATM   15  C1  UNL     1      25.087   6.751  50.480  1.00  0.00     0.040 C 
HETATM   16  C3  UNL     1      26.060   5.140  48.914  1.00  0.00     0.040 C 
HETATM   17  N5  UNL     1      23.710   5.523  49.008  1.00  0.00    -0.278 N 
HETATM   18  C19 UNL     1      22.780   4.437  49.063  1.00  0.00     0.048 C 
HETATM   19  C18 UNL     1      22.419   3.960  50.430  1.00  0.00     0.046 C 
HETATM   20  C20 UNL     1      23.201   3.256  48.221  1.00  0.00     0.040 C 
HETATM   21  C21 UNL     1      21.496   4.960  48.403  1.00  0.00     0.040 C 
BRANCH  17  22
HETATM   22  O2  UNL     1      23.129   6.742  49.032  1.00  0.00    -0.291 OA
HETATM   23  H28 UNL     1      23.648   7.352  48.427  1.00  0.00     0.244 HD
ENDBRANCH  17  22
ENDBRANCH   9  12
ENDBRANCH   1   8
BRANCH   6  24
HETATM   24  N4  UNL     1      24.702  -0.876  54.929  1.00  0.00    -0.344 N 
HETATM   25  H14 UNL     1      24.946  -1.218  55.904  1.00  0.00     0.167 HD
BRANCH  24  26
HETATM   26  C11 UNL     1      25.855  -0.444  54.217  1.00  0.00     0.035 A 
HETATM   27  C12 UNL     1      26.293  -1.356  53.279  1.00  0.00     0.029 A 
HETATM   28  C13 UNL     1      27.416  -1.065  52.504  1.00  0.00     0.004 A 
HETATM   29  C14 UNL     1      28.097   0.143  52.676  1.00  0.00     0.024 A 
HETATM   30  C15 UNL     1      27.644   1.035  53.614  1.00  0.00     0.036 A 
HETATM   31 CL1  UNL     1      28.427   2.562  53.896  1.00  0.00    -0.084 Cl
HETATM   32  C16 UNL     1      26.524   0.743  54.384  1.00  0.00     0.053 A 
ENDBRANCH  24  26
ENDBRANCH   6  24
TORSDOF 5
ENDMDL
MODEL 6
REMARK VINA RESULT:      -8.5      3.797      6.084
REMARK  5 active torsions:
REMARK  status: ('A' for Active; 'I' for Inactive)
REMARK    1  A    between atoms: C5_5  and  C6_6 
REMARK       I    between atoms: C6_6  and  N1_8 
REMARK    2  A    between atoms: N1_8  and  C7_9 
REMARK    3  A    between atoms: C10_14  and  N4_15 
REMARK    4  A    between atoms: N4_15  and  C11_16 
REMARK    5  A    between atoms: N5_28  and  O2_29 
ROOT
HETATM    1  C7  UNL     1      25.754   5.362  49.734  1.00  0.00     0.123 A 
HETATM    2  C8  UNL     1      24.571   4.704  49.024  1.00  0.00     0.146 A 
HETATM    3  N2  UNL     1      23.277   5.269  49.149  1.00  0.00    -0.275 NA
HETATM    4  C9  UNL     1      22.629   5.228  50.255  1.00  0.00     0.229 A 
HETATM    5  N3  UNL     1      23.144   4.621  51.433  1.00  0.00    -0.229 NA
HETATM    6  C10 UNL     1      24.328   4.092  51.365  1.00  0.00     0.114 A 
HETATM    7  C17 UNL     1      25.186   4.066  50.183  1.00  0.00     0.107 A 
ENDROOT
BRANCH   1   8
HETATM    8  N1  UNL     1      26.940   5.467  48.944  1.00  0.00    -0.353 N 
HETATM    9  C6  UNL     1      27.472   6.755  48.624  1.00  0.00     0.222 C 
HETATM   10  O1  UNL     1      26.870   7.773  49.054  1.00  0.00    -0.273 OA
HETATM   11  H10 UNL     1      27.332   4.531  48.657  1.00  0.00     0.163 HD
BRANCH   9  12
HETATM   12  C5  UNL     1      28.712   6.746  47.795  1.00  0.00     0.082 C 
HETATM   13  C4  UNL     1      29.439   8.015  48.100  1.00  0.00     0.046 C 
HETATM   14  C2  UNL     1      30.769   8.118  47.399  1.00  0.00     0.048 C 
HETATM   15  C1  UNL     1      30.468   8.627  45.995  1.00  0.00     0.040 C 
HETATM   16  C3  UNL     1      31.688   9.111  48.063  1.00  0.00     0.040 C 
HETATM   17  N5  UNL     1      31.448   6.884  47.249  1.00  0.00    -0.278 N 
HETATM   18  C19 UNL     1      31.035   5.817  48.110  1.00  0.00     0.048 C 
HETATM   19  C18 UNL     1      29.564   5.587  48.198  1.00  0.00     0.046 C 
HETATM   20  C20 UNL     1      31.604   5.929  49.504  1.00  0.00     0.040 C 
HETATM   21  C21 UNL     1      31.666   4.547  47.522  1.00  0.00     0.040 C 
BRANCH  17  22
HETATM   22  O2  UNL     1      31.661   6.504  45.970  1.00  0.00    -0.291 OA
HETATM   23  H28 UNL     1      31.800   5.510  45.954  1.00  0.00     0.244 HD
ENDBRANCH  17  22
ENDBRANCH   9  12
ENDBRANCH   1   8
BRANCH   6  24
HETATM   24  N4  UNL     1      24.812   3.494  52.560  1.00  0.00    -0.344 N 
HETATM   25  H14 UNL     1      25.194   4.038  53.388  1.00  0.00     0.167 HD
BRANCH  24  26
HETATM   26  C11 UNL     1      24.844   2.091  52.792  1.00  0.00     0.035 A 
HETATM   27  C12 UNL     1      26.118   1.562  52.776  1.00  0.00     0.029 A 
HETATM   28  C13 UNL     1      26.301   0.196  52.990  1.00  0.00     0.004 A 
HETATM   29  C14 UNL     1      25.202  -0.635  53.220  1.00  0.00     0.024 A 
HETATM   30  C15 UNL     1      23.945  -0.088  53.233  1.00  0.00     0.036 A 
HETATM   31 CL1  UNL     1      22.519  -1.045  53.511  1.00  0.00    -0.084 Cl
HETATM   32  C16 UNL     1      23.765   1.274  53.019  1.00  0.00     0.053 A 
ENDBRANCH  24  26
ENDBRANCH   6  24
TORSDOF 5
ENDMDL
MODEL 7
REMARK VINA RESULT:      -8.3      4.573      6.527
REMARK  5 active torsions:
REMARK  status: ('A' for Active; 'I' for Inactive)
REMARK    1  A    between atoms: C5_5  and  C6_6 
REMARK       I    between atoms: C6_6  and  N1_8 
REMARK    2  A    between atoms: N1_8  and  C7_9 
REMARK    3  A    between atoms: C10_14  and  N4_15 
REMARK    4  A    between atoms: N4_15  and  C11_16 
REMARK    5  A    between atoms: N5_28  and  O2_29 
ROOT
HETATM    1  C7  UNL     1      21.717  -0.125  53.267  1.00  0.00     0.123 A 
HETATM    2  C8  UNL     1      21.929  -1.526  53.837  1.00  0.00     0.146 A 
HETATM    3  N2  UNL     1      22.272  -1.681  55.205  1.00  0.00    -0.275 NA
HETATM    4  C9  UNL     1      23.420  -1.330  55.654  1.00  0.00     0.229 A 
HETATM    5  N3  UNL     1      24.434  -0.764  54.833  1.00  0.00    -0.229 NA
HETATM    6  C10 UNL     1      24.163  -0.602  53.574  1.00  0.00     0.114 A 
HETATM    7  C17 UNL     1      22.903  -0.946  52.919  1.00  0.00     0.107 A 
ENDROOT
BRANCH   1   8
HETATM    8  N1  UNL     1      20.577   0.006  52.416  1.00  0.00    -0.353 N 
HETATM    9  C6  UNL     1      20.681   0.736  51.191  1.00  0.00     0.222 C 
HETATM   10  O1  UNL     1      21.791   1.249  50.894  1.00  0.00    -0.273 OA
HETATM   11  H10 UNL     1      19.718  -0.475  52.794  1.00  0.00     0.163 HD
BRANCH   9  12
HETATM   12  C5  UNL     1      19.430   0.810  50.382  1.00  0.00     0.082 C 
HETATM   13  C4  UNL     1      18.292   0.781  51.350  1.00  0.00     0.046 C 
HETATM   14  C2  UNL     1      16.948   0.937  50.687  1.00  0.00     0.048 C 
HETATM   15  C1  UNL     1      16.559  -0.449  50.188  1.00  0.00     0.040 C 
HETATM   16  C3  UNL     1      15.885   1.394  51.653  1.00  0.00     0.040 C 
HETATM   17  N5  UNL     1      16.948   1.792  49.557  1.00  0.00    -0.278 N 
HETATM   18  C19 UNL     1      18.049   2.699  49.442  1.00  0.00     0.048 C 
HETATM   19  C18 UNL     1      19.404   2.104  49.636  1.00  0.00     0.046 C 
HETATM   20  C20 UNL     1      17.909   3.914  50.327  1.00  0.00     0.040 C 
HETATM   21  C21 UNL     1      17.986   3.242  48.006  1.00  0.00     0.040 C 
BRANCH  17  22
HETATM   22  O2  UNL     1      16.604   1.197  48.394  1.00  0.00    -0.291 OA
HETATM   23  H28 UNL     1      15.978   1.806  47.900  1.00  0.00     0.244 HD
ENDBRANCH  17  22
ENDBRANCH   9  12
ENDBRANCH   1   8
BRANCH   6  24
HETATM   24  N4  UNL     1      25.198  -0.034  52.782  1.00  0.00    -0.344 N 
HETATM   25  H14 UNL     1      25.036   0.479  51.867  1.00  0.00     0.167 HD
BRANCH  24  26
HETATM   26  C11 UNL     1      26.578  -0.085  53.121  1.00  0.00     0.035 A 
HETATM   27  C12 UNL     1      27.162  -1.307  52.857  1.00  0.00     0.029 A 
HETATM   28  C13 UNL     1      28.515  -1.502  53.139  1.00  0.00     0.004 A 
HETATM   29  C14 UNL     1      29.277  -0.467  53.686  1.00  0.00     0.024 A 
HETATM   30  C15 UNL     1      28.676   0.740  53.939  1.00  0.00     0.036 A 
HETATM   31 CL1  UNL     1      29.546   2.085  54.618  1.00  0.00    -0.084 Cl
HETATM   32  C16 UNL     1      27.328   0.932  53.657  1.00  0.00     0.053 A 
ENDBRANCH  24  26
ENDBRANCH   6  24
TORSDOF 5
ENDMDL
MODEL 8
REMARK VINA RESULT:      -8.3      3.508      5.561
REMARK  5 active torsions:
REMARK  status: ('A' for Active; 'I' for Inactive)
REMARK    1  A    between atoms: C5_5  and  C6_6 
REMARK       I    between atoms: C6_6  and  N1_8 
REMARK    2  A    between atoms: N1_8  and  C7_9 
REMARK    3  A    between atoms: C10_14  and  N4_15 
REMARK    4  A    between atoms: N4_15  and  C11_16 
REMARK    5  A    between atoms: N5_28  and  O2_29 
ROOT
HETATM    1  C7  UNL     1      25.143   5.200  50.462  1.00  0.00     0.123 A 
HETATM    2  C8  UNL     1      23.660   5.340  50.124  1.00  0.00     0.146 A 
HETATM    3  N2  UNL     1      22.729   5.612  51.158  1.00  0.00    -0.275 NA
HETATM    4  C9  UNL     1      22.437   4.736  52.049  1.00  0.00     0.229 A 
HETATM    5  N3  UNL     1      23.014   3.437  52.075  1.00  0.00    -0.229 NA
HETATM    6  C10 UNL     1      23.874   3.145  51.148  1.00  0.00     0.114 A 
HETATM    7  C17 UNL     1      24.310   4.035  50.074  1.00  0.00     0.107 A 
ENDROOT
BRANCH   1   8
HETATM    8  N1  UNL     1      26.026   5.868  49.559  1.00  0.00    -0.353 N 
HETATM    9  C6  UNL     1      27.171   5.184  49.045  1.00  0.00     0.222 C 
HETATM   10  O1  UNL     1      27.371   3.996  49.409  1.00  0.00    -0.273 OA
HETATM   11  H10 UNL     1      25.732   6.858  49.346  1.00  0.00     0.163 HD
BRANCH   9  12
HETATM   12  C5  UNL     1      28.024   5.976  48.112  1.00  0.00     0.082 C 
HETATM   13  C4  UNL     1      27.977   7.391  48.587  1.00  0.00     0.046 C 
HETATM   14  C2  UNL     1      28.866   8.312  47.791  1.00  0.00     0.048 C 
HETATM   15  C1  UNL     1      28.071   8.701  46.551  1.00  0.00     0.040 C 
HETATM   16  C3  UNL     1      29.196   9.577  48.543  1.00  0.00     0.040 C 
HETATM   17  N5  UNL     1      30.068   7.715  47.336  1.00  0.00    -0.278 N 
HETATM   18  C19 UNL     1      30.484   6.522  48.007  1.00  0.00     0.048 C 
HETATM   19  C18 UNL     1      29.431   5.481  48.193  1.00  0.00     0.046 C 
HETATM   20  C20 UNL     1      31.154   6.793  49.333  1.00  0.00     0.040 C 
HETATM   21  C21 UNL     1      31.582   5.914  47.122  1.00  0.00     0.040 C 
BRANCH  17  22
HETATM   22  O2  UNL     1      30.202   7.664  45.993  1.00  0.00    -0.291 OA
HETATM   23  H28 UNL     1      29.541   8.298  45.583  1.00  0.00     0.244 HD
ENDBRANCH  17  22
ENDBRANCH   9  12
ENDBRANCH   1   8
BRANCH   6  24
HETATM   24  N4  UNL     1      24.430   1.838  51.204  1.00  0.00    -0.344 N 
HETATM   25  H14 UNL     1      24.175   1.051  50.538  1.00  0.00     0.167 HD
BRANCH  24  26
HETATM   26  C11 UNL     1      25.399   1.425  52.161  1.00  0.00     0.035 A 
HETATM   27  C12 UNL     1      25.091   0.225  52.768  1.00  0.00     0.029 A 
HETATM   28  C13 UNL     1      25.953  -0.304  53.729  1.00  0.00     0.004 A 
HETATM   29  C14 UNL     1      27.122   0.376  54.078  1.00  0.00     0.024 A 
HETATM   30  C15 UNL     1      27.408   1.568  53.461  1.00  0.00     0.036 A 
HETATM   31 CL1  UNL     1      28.840   2.483  53.832  1.00  0.00    -0.084 Cl
HETATM   32  C16 UNL     1      26.548   2.092  52.504  1.00  0.00     0.053 A 
ENDBRANCH  24  26
ENDBRANCH   6  24
TORSDOF 5
ENDMDL
MODEL 9
REMARK VINA RESULT:      -8.3      2.450      4.217
REMARK  5 active torsions:
REMARK  status: ('A' for Active; 'I' for Inactive)
REMARK    1  A    between atoms: C5_5  and  C6_6 
REMARK       I    between atoms: C6_6  and  N1_8 
REMARK    2  A    between atoms: N1_8  and  C7_9 
REMARK    3  A    between atoms: C10_14  and  N4_15 
REMARK    4  A    between atoms: N4_15  and  C11_16 
REMARK    5  A    between atoms: N5_28  and  O2_29 
ROOT
HETATM    1  C7  UNL     1      22.216   0.992  52.945  1.00  0.00     0.123 A 
HETATM    2  C8  UNL     1      21.623  -0.379  52.623  1.00  0.00     0.146 A 
HETATM    3  N2  UNL     1      20.678  -0.959  53.507  1.00  0.00    -0.275 NA
HETATM    4  C9  UNL     1      21.016  -1.384  54.668  1.00  0.00     0.229 A 
HETATM    5  N3  UNL     1      22.347  -1.313  55.163  1.00  0.00    -0.229 NA
HETATM    6  C10 UNL     1      23.246  -0.787  54.387  1.00  0.00     0.114 A 
HETATM    7  C17 UNL     1      23.014  -0.256  53.046  1.00  0.00     0.107 A 
ENDROOT
BRANCH   1   8
HETATM    8  N1  UNL     1      22.294   1.884  51.832  1.00  0.00    -0.353 N 
HETATM    9  C6  UNL     1      23.250   2.947  51.836  1.00  0.00     0.222 C 
HETATM   10  O1  UNL     1      24.006   3.066  52.834  1.00  0.00    -0.273 OA
HETATM   11  H10 UNL     1      21.599   1.661  51.071  1.00  0.00     0.163 HD
BRANCH   9  12
HETATM   12  C5  UNL     1      23.243   3.817  50.624  1.00  0.00     0.082 C 
HETATM   13  C4  UNL     1      22.207   4.868  50.859  1.00  0.00     0.046 C 
HETATM   14  C2  UNL     1      22.139   5.888  49.752  1.00  0.00     0.048 C 
HETATM   15  C1  UNL     1      21.268   5.272  48.663  1.00  0.00     0.040 C 
HETATM   16  C3  UNL     1      21.482   7.170  50.196  1.00  0.00     0.040 C 
HETATM   17  N5  UNL     1      23.387   6.188  49.154  1.00  0.00    -0.278 N 
HETATM   18  C19 UNL     1      24.555   5.849  49.908  1.00  0.00     0.048 C 
HETATM   19  C18 UNL     1      24.579   4.472  50.484  1.00  0.00     0.046 C 
HETATM   20  C20 UNL     1      24.867   6.847  50.997  1.00  0.00     0.040 C 
HETATM   21  C21 UNL     1      25.727   5.956  48.921  1.00  0.00     0.040 C 
BRANCH  17  22
HETATM   22  O2  UNL     1      23.476   5.886  47.841  1.00  0.00    -0.291 OA
HETATM   23  H28 UNL     1      22.765   6.396  47.349  1.00  0.00     0.244 HD
ENDBRANCH  17  22
ENDBRANCH   9  12
ENDBRANCH   1   8
BRANCH   6  24
HETATM   24  N4  UNL     1      24.565  -0.732  54.912  1.00  0.00    -0.344 N 
HETATM   25  H14 UNL     1      24.822  -0.983  55.912  1.00  0.00     0.167 HD
BRANCH  24  26
HETATM   26  C11 UNL     1      25.705  -0.333  54.160  1.00  0.00     0.035 A 
HETATM   27  C12 UNL     1      26.077  -1.252  53.201  1.00  0.00     0.029 A 
HETATM   28  C13 UNL     1      27.180  -0.993  52.387  1.00  0.00     0.004 A 
HETATM   29  C14 UNL     1      27.906   0.191  52.540  1.00  0.00     0.024 A 
HETATM   30  C15 UNL     1      27.518   1.091  53.500  1.00  0.00     0.036 A 
HETATM   31 CL1  UNL     1      28.362   2.590  53.761  1.00  0.00    -0.084 Cl
HETATM   32  C16 UNL     1      26.419   0.830  54.309  1.00  0.00     0.053 A 
ENDBRANCH  24  26
ENDBRANCH   6  24
TORSDOF 5
ENDMDL
