MODEL 1
REMARK VINA RESULT:      -8.5      0.000      0.000
REMARK  9 active torsions:
REMARK  status: ('A' for Active; 'I' for Inactive)
REMARK    1  A    between atoms: C2_2  and  C3_3 
REMARK    2  A    between atoms: C3_3  and  C4_4 
REMARK    3  A    between atoms: C4_4  and  C5_5 
REMARK    4  A    between atoms: C4_4  and  C15_17 
REMARK    5  A    between atoms: C6_6  and  C7_7 
REMARK    6  A    between atoms: C15_17  and  C16_18 
REMARK    7  A    between atoms: C16_18  and  C17_19 
REMARK    8  A    between atoms: C17_19  and  O3_21 
REMARK    9  A    between atoms: C18_22  and  N2_23 
ROOT
HETATM    1  C4  UNL     1      25.993   0.434  52.388  1.00  0.00    -0.075 C 
ENDROOT
BRANCH   1   2
HETATM    2  C3  UNL     1      26.373   1.802  52.805  1.00  0.00     0.069 C 
BRANCH   2   3
HETATM    3  C2  UNL     1      27.547   1.779  53.702  1.00  0.00    -0.065 C 
HETATM    4  C1  UNL     1      27.490   0.918  54.911  1.00  0.00     0.045 C 
HETATM    5  C18 UNL     1      28.706   2.455  53.572  1.00  0.00     0.083 C 
BRANCH   5   6
HETATM    6  N2  UNL     1      29.553   2.126  54.671  1.00  0.00    -0.408 N 
HETATM    7  H19 UNL     1      30.214   1.994  55.456  1.00  0.00     0.155 HD
HETATM    8  H20 UNL     1      29.505   1.200  55.163  1.00  0.00     0.155 HD
ENDBRANCH   5   6
ENDBRANCH   2   3
ENDBRANCH   1   2
BRANCH   1   9
HETATM    9  C5  UNL     1      24.736   0.047  52.516  1.00  0.00     0.004 C 
HETATM   10  C6  UNL     1      23.595  -0.167  53.362  1.00  0.00     0.018 C 
BRANCH  10  11
HETATM   11  C7  UNL     1      22.377  -0.516  53.627  1.00  0.00     0.044 A 
HETATM   12  C8  UNL     1      21.979  -1.284  54.805  1.00  0.00     0.257 A 
HETATM   13  O1  UNL     1      22.706  -1.723  55.725  1.00  0.00    -0.267 OA
HETATM   14  N1  UNL     1      20.583  -1.373  54.588  1.00  0.00    -0.322 N 
HETATM   15  C9  UNL     1      20.157  -0.732  53.410  1.00  0.00     0.046 A 
HETATM   16  H8  UNL     1      19.999  -1.894  55.306  1.00  0.00     0.169 HD
HETATM   17  C10 UNL     1      18.887  -0.645  52.934  1.00  0.00     0.030 A 
HETATM   18  C14 UNL     1      21.251  -0.184  52.781  1.00  0.00     0.006 A 
HETATM   19  C11 UNL     1      18.626   0.021  51.757  1.00  0.00     0.002 A 
HETATM   20  C12 UNL     1      19.676   0.591  51.080  1.00  0.00     0.001 A 
HETATM   21  C13 UNL     1      20.939   0.468  51.613  1.00  0.00     0.015 A 
ENDBRANCH  10  11
ENDBRANCH   1   9
BRANCH   1  22
HETATM   22  C15 UNL     1      26.865  -0.636  51.847  1.00  0.00     0.045 C 
BRANCH  22  23
HETATM   23  C16 UNL     1      26.836  -1.930  52.608  1.00  0.00     0.114 C 
BRANCH  23  24
HETATM   24  C17 UNL     1      28.262  -2.221  53.021  1.00  0.00     0.139 C 
HETATM   25  O2  UNL     1      29.228  -1.407  53.121  1.00  0.00    -0.650 OA
BRANCH  24  26
HETATM   26  O3  UNL     1      28.605  -3.536  53.342  1.00  0.00    -0.776 OA
HETATM   27  H17 UNL     1      28.308  -4.326  52.780  1.00  0.00     0.167 HD
ENDBRANCH  24  26
ENDBRANCH  23  24
ENDBRANCH  22  23
ENDBRANCH   1  22
TORSDOF 9
ENDMDL
MODEL 2
REMARK VINA RESULT:      -8.4      1.767      2.835
REMARK  9 active torsions:
REMARK  status: ('A' for Active; 'I' for Inactive)
REMARK    1  A    between atoms: C2_2  and  C3_3 
REMARK    2  A    between atoms: C3_3  and  C4_4 
REMARK    3  A    between atoms: C4_4  and  C5_5 
REMARK    4  A    between atoms: C4_4  and  C15_17 
REMARK    5  A    between atoms: C6_6  and  C7_7 
REMARK    6  A    between atoms: C15_17  and  C16_18 
REMARK    7  A    between atoms: C16_18  and  C17_19 
REMARK    8  A    between atoms: C17_19  and  O3_21 
REMARK    9  A    between atoms: C18_22  and  N2_23 
ROOT
HETATM    1  C4  UNL     1      26.115   0.858  53.017  1.00  0.00    -0.075 C 
ENDROOT
BRANCH   1   2
HETATM    2  C3  UNL     1      26.670   0.085  51.883  1.00  0.00     0.069 C 
BRANCH   2   3
HETATM    3  C2  UNL     1      27.191  -1.222  52.334  1.00  0.00    -0.065 C 
HETATM    4  C1  UNL     1      26.419  -2.443  51.989  1.00  0.00     0.045 C 
HETATM    5  C18 UNL     1      28.311  -1.470  53.042  1.00  0.00     0.083 C 
BRANCH   5   6
HETATM    6  N2  UNL     1      28.418  -2.877  53.250  1.00  0.00    -0.408 N 
HETATM    7  H19 UNL     1      28.480  -3.876  53.513  1.00  0.00     0.155 HD
HETATM    8  H20 UNL     1      28.566  -3.554  52.461  1.00  0.00     0.155 HD
ENDBRANCH   5   6
ENDBRANCH   2   3
ENDBRANCH   1   2
BRANCH   1   9
HETATM    9  C5  UNL     1      24.894   0.588  53.444  1.00  0.00     0.004 C 
HETATM   10  C6  UNL     1      23.669  -0.147  53.286  1.00  0.00     0.018 C 
BRANCH  10  11
HETATM   11  C7  UNL     1      22.464  -0.503  53.594  1.00  0.00     0.044 A 
HETATM   12  C8  UNL     1      22.110  -1.248  54.801  1.00  0.00     0.257 A 
HETATM   13  O1  UNL     1      22.869  -1.657  55.709  1.00  0.00    -0.267 OA
HETATM   14  N1  UNL     1      20.710  -1.357  54.628  1.00  0.00    -0.322 N 
HETATM   15  C9  UNL     1      20.242  -0.748  53.447  1.00  0.00     0.046 A 
HETATM   16  H8  UNL     1      20.153  -1.868  55.374  1.00  0.00     0.169 HD
HETATM   17  C10 UNL     1      18.957  -0.686  53.008  1.00  0.00     0.030 A 
HETATM   18  C14 UNL     1      21.310  -0.203  52.774  1.00  0.00     0.006 A 
HETATM   19  C11 UNL     1      18.655  -0.052  51.824  1.00  0.00     0.002 A 
HETATM   20  C12 UNL     1      19.677   0.514  51.103  1.00  0.00     0.001 A 
HETATM   21  C13 UNL     1      20.957   0.418  51.602  1.00  0.00     0.015 A 
ENDBRANCH  10  11
ENDBRANCH   1   9
BRANCH   1  22
HETATM   22  C15 UNL     1      26.747   1.971  53.765  1.00  0.00     0.045 C 
BRANCH  22  23
HETATM   23  C16 UNL     1      28.149   2.308  53.347  1.00  0.00     0.114 C 
BRANCH  23  24
HETATM   24  C17 UNL     1      29.053   1.888  54.486  1.00  0.00     0.139 C 
HETATM   25  O2  UNL     1      28.873   0.952  55.322  1.00  0.00    -0.650 OA
BRANCH  24  26
HETATM   26  O3  UNL     1      30.244   2.588  54.680  1.00  0.00    -0.776 OA
HETATM   27  H17 UNL     1      30.890   2.363  55.428  1.00  0.00     0.167 HD
ENDBRANCH  24  26
ENDBRANCH  23  24
ENDBRANCH  22  23
ENDBRANCH   1  22
TORSDOF 9
ENDMDL
MODEL 3
REMARK VINA RESULT:      -8.2      1.970      2.431
REMARK  9 active torsions:
REMARK  status: ('A' for Active; 'I' for Inactive)
REMARK    1  A    between atoms: C2_2  and  C3_3 
REMARK    2  A    between atoms: C3_3  and  C4_4 
REMARK    3  A    between atoms: C4_4  and  C5_5 
REMARK    4  A    between atoms: C4_4  and  C15_17 
REMARK    5  A    between atoms: C6_6  and  C7_7 
REMARK    6  A    between atoms: C15_17  and  C16_18 
REMARK    7  A    between atoms: C16_18  and  C17_19 
REMARK    8  A    between atoms: C17_19  and  O3_21 
REMARK    9  A    between atoms: C18_22  and  N2_23 
ROOT
HETATM    1  C4  UNL     1      25.834   0.833  52.530  1.00  0.00    -0.075 C 
ENDROOT
BRANCH   1   2
HETATM    2  C3  UNL     1      25.774   2.308  52.420  1.00  0.00     0.069 C 
BRANCH   2   3
HETATM    3  C2  UNL     1      25.358   2.724  51.064  1.00  0.00    -0.065 C 
HETATM    4  C1  UNL     1      26.412   2.961  50.046  1.00  0.00     0.045 C 
HETATM    5  C18 UNL     1      24.106   2.927  50.606  1.00  0.00     0.083 C 
BRANCH   5   6
HETATM    6  N2  UNL     1      24.179   3.318  49.237  1.00  0.00    -0.408 N 
HETATM    7  H19 UNL     1      24.180   3.502  48.218  1.00  0.00     0.155 HD
HETATM    8  H20 UNL     1      24.595   4.233  48.933  1.00  0.00     0.155 HD
ENDBRANCH   5   6
ENDBRANCH   2   3
ENDBRANCH   1   2
BRANCH   1   9
HETATM    9  C5  UNL     1      24.757   0.172  52.918  1.00  0.00     0.004 C 
HETATM   10  C6  UNL     1      23.348   0.172  53.199  1.00  0.00     0.018 C 
BRANCH  10  11
HETATM   11  C7  UNL     1      22.222  -0.353  53.562  1.00  0.00     0.044 A 
HETATM   12  C8  UNL     1      22.047  -1.184  54.751  1.00  0.00     0.257 A 
HETATM   13  O1  UNL     1      22.911  -1.523  55.593  1.00  0.00    -0.267 OA
HETATM   14  N1  UNL     1      20.665  -1.472  54.656  1.00  0.00    -0.322 N 
HETATM   15  C9  UNL     1      20.046  -0.886  53.536  1.00  0.00     0.046 A 
HETATM   16  H8  UNL     1      20.230  -2.080  55.410  1.00  0.00     0.169 HD
HETATM   17  C10 UNL     1      18.738  -0.979  53.176  1.00  0.00     0.030 A 
HETATM   18  C14 UNL     1      20.988  -0.178  52.826  1.00  0.00     0.006 A 
HETATM   19  C11 UNL     1      18.279  -0.345  52.044  1.00  0.00     0.002 A 
HETATM   20  C12 UNL     1      19.170   0.379  51.290  1.00  0.00     0.001 A 
HETATM   21  C13 UNL     1      20.481   0.435  51.707  1.00  0.00     0.015 A 
ENDBRANCH  10  11
ENDBRANCH   1   9
BRANCH   1  22
HETATM   22  C15 UNL     1      26.992  -0.059  52.286  1.00  0.00     0.045 C 
BRANCH  22  23
HETATM   23  C16 UNL     1      26.749  -1.514  52.565  1.00  0.00     0.114 C 
BRANCH  23  24
HETATM   24  C17 UNL     1      28.056  -2.080  53.077  1.00  0.00     0.139 C 
HETATM   25  O2  UNL     1      28.971  -1.479  53.716  1.00  0.00    -0.650 OA
BRANCH  24  26
HETATM   26  O3  UNL     1      28.333  -3.427  52.840  1.00  0.00    -0.776 OA
HETATM   27  H17 UNL     1      29.252  -3.827  52.993  1.00  0.00     0.167 HD
ENDBRANCH  24  26
ENDBRANCH  23  24
ENDBRANCH  22  23
ENDBRANCH   1  22
TORSDOF 9
ENDMDL
MODEL 4
REMARK VINA RESULT:      -8.2      2.561      3.422
REMARK  9 active torsions:
REMARK  status: ('A' for Active; 'I' for Inactive)
REMARK    1  A    between atoms: C2_2  and  C3_3 
REMARK    2  A    between atoms: C3_3  and  C4_4 
REMARK    3  A    between atoms: C4_4  and  C5_5 
REMARK    4  A    between atoms: C4_4  and  C15_17 
REMARK    5  A    between atoms: C6_6  and  C7_7 
REMARK    6  A    between atoms: C15_17  and  C16_18 
REMARK    7  A    between atoms: C16_18  and  C17_19 
REMARK    8  A    between atoms: C17_19  and  O3_21 
REMARK    9  A    between atoms: C18_22  and  N2_23 
ROOT
HETATM    1  C4  UNL     1      26.418   0.512  52.984  1.00  0.00    -0.075 C 
ENDROOT
BRANCH   1   2
HETATM    2  C3  UNL     1      27.598   0.301  53.852  1.00  0.00     0.069 C 
BRANCH   2   3
HETATM    3  C2  UNL     1      28.243  -0.997  53.566  1.00  0.00    -0.065 C 
HETATM    4  C1  UNL     1      29.712  -1.109  53.755  1.00  0.00     0.045 C 
HETATM    5  C18 UNL     1      27.663  -2.138  53.141  1.00  0.00     0.083 C 
BRANCH   5   6
HETATM    6  N2  UNL     1      28.670  -3.138  52.999  1.00  0.00    -0.408 N 
HETATM    7  H19 UNL     1      29.353  -3.888  52.793  1.00  0.00     0.155 HD
HETATM    8  H20 UNL     1      29.400  -3.311  53.733  1.00  0.00     0.155 HD
ENDBRANCH   5   6
ENDBRANCH   2   3
ENDBRANCH   1   2
BRANCH   1   9
HETATM    9  C5  UNL     1      25.211   0.276  53.469  1.00  0.00     0.004 C 
HETATM   10  C6  UNL     1      23.881  -0.230  53.266  1.00  0.00     0.018 C 
BRANCH  10  11
HETATM   11  C7  UNL     1      22.667  -0.514  53.611  1.00  0.00     0.044 A 
HETATM   12  C8  UNL     1      22.302  -1.186  54.857  1.00  0.00     0.257 A 
HETATM   13  O1  UNL     1      23.058  -1.587  55.770  1.00  0.00    -0.267 OA
HETATM   14  N1  UNL     1      20.895  -1.237  54.712  1.00  0.00    -0.322 N 
HETATM   15  C9  UNL     1      20.433  -0.662  53.512  1.00  0.00     0.046 A 
HETATM   16  H8  UNL     1      20.330  -1.686  55.491  1.00  0.00     0.169 HD
HETATM   17  C10 UNL     1      19.145  -0.561  53.091  1.00  0.00     0.030 A 
HETATM   18  C14 UNL     1      21.513  -0.200  52.797  1.00  0.00     0.006 A 
HETATM   19  C11 UNL     1      18.850   0.031  51.885  1.00  0.00     0.002 A 
HETATM   20  C12 UNL     1      19.883   0.515  51.121  1.00  0.00     0.001 A 
HETATM   21  C13 UNL     1      21.166   0.382  51.602  1.00  0.00     0.015 A 
ENDBRANCH  10  11
ENDBRANCH   1   9
BRANCH   1  22
HETATM   22  C15 UNL     1      26.388   0.943  51.567  1.00  0.00     0.045 C 
BRANCH  22  23
HETATM   23  C16 UNL     1      26.705   2.392  51.332  1.00  0.00     0.114 C 
BRANCH  23  24
HETATM   24  C17 UNL     1      25.396   3.071  50.988  1.00  0.00     0.139 C 
HETATM   25  O2  UNL     1      24.280   2.529  50.729  1.00  0.00    -0.650 OA
BRANCH  24  26
HETATM   26  O3  UNL     1      25.366   4.465  50.937  1.00  0.00    -0.776 OA
HETATM   27  H17 UNL     1      24.863   4.971  50.217  1.00  0.00     0.167 HD
ENDBRANCH  24  26
ENDBRANCH  23  24
ENDBRANCH  22  23
ENDBRANCH   1  22
TORSDOF 9
ENDMDL
MODEL 5
REMARK VINA RESULT:      -8.1      2.352      2.927
REMARK  9 active torsions:
REMARK  status: ('A' for Active; 'I' for Inactive)
REMARK    1  A    between atoms: C2_2  and  C3_3 
REMARK    2  A    between atoms: C3_3  and  C4_4 
REMARK    3  A    between atoms: C4_4  and  C5_5 
REMARK    4  A    between atoms: C4_4  and  C15_17 
REMARK    5  A    between atoms: C6_6  and  C7_7 
REMARK    6  A    between atoms: C15_17  and  C16_18 
REMARK    7  A    between atoms: C16_18  and  C17_19 
REMARK    8  A    between atoms: C17_19  and  O3_21 
REMARK    9  A    between atoms: C18_22  and  N2_23 
ROOT
HETATM    1  C4  UNL     1      25.724   0.964  52.929  1.00  0.00    -0.075 C 
ENDROOT
BRANCH   1   2
HETATM    2  C3  UNL     1      25.922   1.136  51.472  1.00  0.00     0.069 C 
BRANCH   2   3
HETATM    3  C2  UNL     1      25.706   2.540  51.067  1.00  0.00    -0.065 C 
HETATM    4  C1  UNL     1      24.348   3.118  51.231  1.00  0.00     0.045 C 
HETATM    5  C18 UNL     1      26.603   3.402  50.548  1.00  0.00     0.083 C 
BRANCH   5   6
HETATM    6  N2  UNL     1      25.953   4.649  50.309  1.00  0.00    -0.408 N 
HETATM    7  H19 UNL     1      25.451   5.553  50.248  1.00  0.00     0.155 HD
HETATM    8  H20 UNL     1      25.954   5.114  49.368  1.00  0.00     0.155 HD
ENDBRANCH   5   6
ENDBRANCH   2   3
ENDBRANCH   1   2
BRANCH   1   9
HETATM    9  C5  UNL     1      24.622   0.378  53.365  1.00  0.00     0.004 C 
HETATM   10  C6  UNL     1      23.210   0.155  53.225  1.00  0.00     0.018 C 
BRANCH  10  11
HETATM   11  C7  UNL     1      22.063  -0.353  53.544  1.00  0.00     0.044 A 
HETATM   12  C8  UNL     1      21.834  -1.195  54.717  1.00  0.00     0.257 A 
HETATM   13  O1  UNL     1      22.663  -1.560  55.582  1.00  0.00    -0.267 OA
HETATM   14  N1  UNL     1      20.451  -1.456  54.573  1.00  0.00    -0.322 N 
HETATM   15  C9  UNL     1      19.880  -0.846  53.440  1.00  0.00     0.046 A 
HETATM   16  H8  UNL     1      19.980  -2.065  55.305  1.00  0.00     0.169 HD
HETATM   17  C10 UNL     1      18.583  -0.910  53.037  1.00  0.00     0.030 A 
HETATM   18  C14 UNL     1      20.857  -0.147  52.771  1.00  0.00     0.006 A 
HETATM   19  C11 UNL     1      18.173  -0.255  51.899  1.00  0.00     0.002 A 
HETATM   20  C12 UNL     1      19.101   0.462  51.184  1.00  0.00     0.001 A 
HETATM   21  C13 UNL     1      20.398   0.488  51.644  1.00  0.00     0.015 A 
ENDBRANCH  10  11
ENDBRANCH   1   9
BRANCH   1  22
HETATM   22  C15 UNL     1      26.610   1.403  54.033  1.00  0.00     0.045 C 
BRANCH  22  23
HETATM   23  C16 UNL     1      28.004   0.848  53.992  1.00  0.00     0.114 C 
BRANCH  23  24
HETATM   24  C17 UNL     1      28.943   2.034  54.060  1.00  0.00     0.139 C 
HETATM   25  O2  UNL     1      29.682   2.391  55.026  1.00  0.00    -0.650 OA
BRANCH  24  26
HETATM   26  O3  UNL     1      29.041   2.867  52.945  1.00  0.00    -0.776 OA
HETATM   27  H17 UNL     1      28.659   2.611  52.042  1.00  0.00     0.167 HD
ENDBRANCH  24  26
ENDBRANCH  23  24
ENDBRANCH  22  23
ENDBRANCH   1  22
TORSDOF 9
ENDMDL
MODEL 6
REMARK VINA RESULT:      -8.0      2.332      3.103
REMARK  9 active torsions:
REMARK  status: ('A' for Active; 'I' for Inactive)
REMARK    1  A    between atoms: C2_2  and  C3_3 
REMARK    2  A    between atoms: C3_3  and  C4_4 
REMARK    3  A    between atoms: C4_4  and  C5_5 
REMARK    4  A    between atoms: C4_4  and  C15_17 
REMARK    5  A    between atoms: C6_6  and  C7_7 
REMARK    6  A    between atoms: C15_17  and  C16_18 
REMARK    7  A    between atoms: C16_18  and  C17_19 
REMARK    8  A    between atoms: C17_19  and  O3_21 
REMARK    9  A    between atoms: C18_22  and  N2_23 
ROOT
HETATM    1  C4  UNL     1      25.590   1.091  52.581  1.00  0.00    -0.075 C 
ENDROOT
BRANCH   1   2
HETATM    2  C3  UNL     1      26.898   0.408  52.461  1.00  0.00     0.069 C 
BRANCH   2   3
HETATM    3  C2  UNL     1      27.860   0.920  53.459  1.00  0.00    -0.065 C 
HETATM    4  C1  UNL     1      28.002   0.185  54.741  1.00  0.00     0.045 C 
HETATM    5  C18 UNL     1      28.657   2.004  53.364  1.00  0.00     0.083 C 
BRANCH   5   6
HETATM    6  N2  UNL     1      29.420   2.116  54.563  1.00  0.00    -0.408 N 
HETATM    7  H19 UNL     1      29.896   2.126  55.482  1.00  0.00     0.155 HD
HETATM    8  H20 UNL     1      30.288   2.703  54.626  1.00  0.00     0.155 HD
ENDBRANCH   5   6
ENDBRANCH   2   3
ENDBRANCH   1   2
BRANCH   1   9
HETATM    9  C5  UNL     1      24.548   0.414  53.029  1.00  0.00     0.004 C 
HETATM   10  C6  UNL     1      23.121   0.273  53.123  1.00  0.00     0.018 C 
BRANCH  10  11
HETATM   11  C7  UNL     1      22.018  -0.292  53.497  1.00  0.00     0.044 A 
HETATM   12  C8  UNL     1      21.885  -1.129  54.688  1.00  0.00     0.257 A 
HETATM   13  O1  UNL     1      22.769  -1.437  55.520  1.00  0.00    -0.267 OA
HETATM   14  N1  UNL     1      20.513  -1.466  54.607  1.00  0.00    -0.322 N 
HETATM   15  C9  UNL     1      19.862  -0.902  53.494  1.00  0.00     0.046 A 
HETATM   16  H8  UNL     1      20.108  -2.089  55.365  1.00  0.00     0.169 HD
HETATM   17  C10 UNL     1      18.555  -1.042  53.148  1.00  0.00     0.030 A 
HETATM   18  C14 UNL     1      20.771  -0.161  52.775  1.00  0.00     0.006 A 
HETATM   19  C11 UNL     1      18.062  -0.425  52.020  1.00  0.00     0.002 A 
HETATM   20  C12 UNL     1      18.918   0.331  51.258  1.00  0.00     0.001 A 
HETATM   21  C13 UNL     1      20.231   0.433  51.661  1.00  0.00     0.015 A 
ENDBRANCH  10  11
ENDBRANCH   1   9
BRANCH   1  22
HETATM   22  C15 UNL     1      25.250   2.490  52.225  1.00  0.00     0.045 C 
BRANCH  22  23
HETATM   23  C16 UNL     1      24.818   2.700  50.803  1.00  0.00     0.114 C 
BRANCH  23  24
HETATM   24  C17 UNL     1      25.826   3.642  50.180  1.00  0.00     0.139 C 
HETATM   25  O2  UNL     1      25.641   4.478  49.245  1.00  0.00    -0.650 OA
BRANCH  24  26
HETATM   26  O3  UNL     1      27.136   3.624  50.661  1.00  0.00    -0.776 OA
HETATM   27  H17 UNL     1      27.922   3.350  50.083  1.00  0.00     0.167 HD
ENDBRANCH  24  26
ENDBRANCH  23  24
ENDBRANCH  22  23
ENDBRANCH   1  22
TORSDOF 9
ENDMDL
MODEL 7
REMARK VINA RESULT:      -7.7      4.898      6.725
REMARK  9 active torsions:
REMARK  status: ('A' for Active; 'I' for Inactive)
REMARK    1  A    between atoms: C2_2  and  C3_3 
REMARK    2  A    between atoms: C3_3  and  C4_4 
REMARK    3  A    between atoms: C4_4  and  C5_5 
REMARK    4  A    between atoms: C4_4  and  C15_17 
REMARK    5  A    between atoms: C6_6  and  C7_7 
REMARK    6  A    between atoms: C15_17  and  C16_18 
REMARK    7  A    between atoms: C16_18  and  C17_19 
REMARK    8  A    between atoms: C17_19  and  O3_21 
REMARK    9  A    between atoms: C18_22  and  N2_23 
ROOT
HETATM    1  C4  UNL     1      26.514   4.866  49.013  1.00  0.00    -0.075 C 
ENDROOT
BRANCH   1   2
HETATM    2  C3  UNL     1      25.511   5.900  48.674  1.00  0.00     0.069 C 
BRANCH   2   3
HETATM    3  C2  UNL     1      25.181   6.729  49.852  1.00  0.00    -0.065 C 
HETATM    4  C1  UNL     1      26.108   7.828  50.220  1.00  0.00     0.045 C 
HETATM    5  C18 UNL     1      24.114   6.621  50.670  1.00  0.00     0.083 C 
BRANCH   5   6
HETATM    6  N2  UNL     1      24.204   7.631  51.673  1.00  0.00    -0.408 N 
HETATM    7  H19 UNL     1      24.383   8.370  52.376  1.00  0.00     0.155 HD
HETATM    8  H20 UNL     1      23.371   7.957  52.221  1.00  0.00     0.155 HD
ENDBRANCH   5   6
ENDBRANCH   2   3
ENDBRANCH   1   2
BRANCH   1   9
HETATM    9  C5  UNL     1      26.192   3.911  49.868  1.00  0.00     0.004 C 
HETATM   10  C6  UNL     1      26.566   3.070  50.971  1.00  0.00     0.018 C 
BRANCH  10  11
HETATM   11  C7  UNL     1      26.383   2.149  51.862  1.00  0.00     0.044 A 
HETATM   12  C8  UNL     1      27.427   1.648  52.754  1.00  0.00     0.257 A 
HETATM   13  O1  UNL     1      28.626   2.000  52.816  1.00  0.00    -0.267 OA
HETATM   14  N1  UNL     1      26.690   0.688  53.488  1.00  0.00    -0.322 N 
HETATM   15  C9  UNL     1      25.340   0.599  53.100  1.00  0.00     0.046 A 
HETATM   16  H8  UNL     1      27.200   0.138  54.241  1.00  0.00     0.169 HD
HETATM   17  C10 UNL     1      24.388  -0.223  53.615  1.00  0.00     0.030 A 
HETATM   18  C14 UNL     1      25.110   1.498  52.084  1.00  0.00     0.006 A 
HETATM   19  C11 UNL     1      23.102  -0.194  53.126  1.00  0.00     0.002 A 
HETATM   20  C12 UNL     1      22.805   0.682  52.111  1.00  0.00     0.001 A 
HETATM   21  C13 UNL     1      23.813   1.489  51.632  1.00  0.00     0.015 A 
ENDBRANCH  10  11
ENDBRANCH   1   9
BRANCH   1  22
HETATM   22  C15 UNL     1      27.913   4.753  48.535  1.00  0.00     0.045 C 
BRANCH  22  23
HETATM   23  C16 UNL     1      28.592   6.057  48.233  1.00  0.00     0.114 C 
BRANCH  23  24
HETATM   24  C17 UNL     1      30.080   5.812  48.375  1.00  0.00     0.139 C 
HETATM   25  O2  UNL     1      30.938   5.665  47.454  1.00  0.00    -0.650 OA
BRANCH  24  26
HETATM   26  O3  UNL     1      30.619   5.731  49.660  1.00  0.00    -0.776 OA
HETATM   27  H17 UNL     1      31.612   5.611  49.824  1.00  0.00     0.167 HD
ENDBRANCH  24  26
ENDBRANCH  23  24
ENDBRANCH  22  23
ENDBRANCH   1  22
TORSDOF 9
ENDMDL
MODEL 8
REMARK VINA RESULT:      -7.4      4.056      6.758
REMARK  9 active torsions:
REMARK  status: ('A' for Active; 'I' for Inactive)
REMARK    1  A    between atoms: C2_2  and  C3_3 
REMARK    2  A    between atoms: C3_3  and  C4_4 
REMARK    3  A    between atoms: C4_4  and  C5_5 
REMARK    4  A    between atoms: C4_4  and  C15_17 
REMARK    5  A    between atoms: C6_6  and  C7_7 
REMARK    6  A    between atoms: C15_17  and  C16_18 
REMARK    7  A    between atoms: C16_18  and  C17_19 
REMARK    8  A    between atoms: C17_19  and  O3_21 
REMARK    9  A    between atoms: C18_22  and  N2_23 
ROOT
HETATM    1  C4  UNL     1      24.800   0.800  53.174  1.00  0.00    -0.075 C 
ENDROOT
BRANCH   1   2
HETATM    2  C3  UNL     1      23.782  -0.217  52.824  1.00  0.00     0.069 C 
BRANCH   2   3
HETATM    3  C2  UNL     1      22.682  -0.231  53.810  1.00  0.00    -0.065 C 
HETATM    4  C1  UNL     1      22.808  -1.122  54.991  1.00  0.00     0.045 C 
HETATM    5  C18 UNL     1      21.537   0.480  53.785  1.00  0.00     0.083 C 
BRANCH   5   6
HETATM    6  N2  UNL     1      20.769   0.149  54.941  1.00  0.00    -0.408 N 
HETATM    7  H19 UNL     1      20.207  -0.199  55.738  1.00  0.00     0.155 HD
HETATM    8  H20 UNL     1      20.537   0.853  55.685  1.00  0.00     0.155 HD
ENDBRANCH   5   6
ENDBRANCH   2   3
ENDBRANCH   1   2
BRANCH   1   9
HETATM    9  C5  UNL     1      24.699   2.015  52.664  1.00  0.00     0.004 C 
HETATM   10  C6  UNL     1      24.718   2.870  51.510  1.00  0.00     0.018 C 
BRANCH  10  11
HETATM   11  C7  UNL     1      24.642   3.999  50.882  1.00  0.00     0.044 A 
HETATM   12  C8  UNL     1      23.509   4.918  50.976  1.00  0.00     0.257 A 
HETATM   13  O1  UNL     1      22.460   4.786  51.646  1.00  0.00    -0.267 OA
HETATM   14  N1  UNL     1      23.950   5.950  50.115  1.00  0.00    -0.322 N 
HETATM   15  C9  UNL     1      25.215   5.705  49.547  1.00  0.00     0.046 A 
HETATM   16  H8  UNL     1      23.314   6.789  49.976  1.00  0.00     0.169 HD
HETATM   17  C10 UNL     1      25.899   6.505  48.687  1.00  0.00     0.030 A 
HETATM   18  C14 UNL     1      25.680   4.494  50.003  1.00  0.00     0.006 A 
HETATM   19  C11 UNL     1      27.135   6.125  48.215  1.00  0.00     0.002 A 
HETATM   20  C12 UNL     1      27.657   4.926  48.632  1.00  0.00     0.001 A 
HETATM   21  C13 UNL     1      26.915   4.161  49.505  1.00  0.00     0.015 A 
ENDBRANCH  10  11
ENDBRANCH   1   9
BRANCH   1  22
HETATM   22  C15 UNL     1      25.997   0.640  54.034  1.00  0.00     0.045 C 
BRANCH  22  23
HETATM   23  C16 UNL     1      27.294   0.468  53.298  1.00  0.00     0.114 C 
BRANCH  23  24
HETATM   24  C17 UNL     1      28.121   1.703  53.585  1.00  0.00     0.139 C 
HETATM   25  O2  UNL     1      28.834   1.947  54.604  1.00  0.00    -0.650 OA
BRANCH  24  26
HETATM   26  O3  UNL     1      28.130   2.729  52.639  1.00  0.00    -0.776 OA
HETATM   27  H17 UNL     1      28.562   3.628  52.818  1.00  0.00     0.167 HD
ENDBRANCH  24  26
ENDBRANCH  23  24
ENDBRANCH  22  23
ENDBRANCH   1  22
TORSDOF 9
ENDMDL
MODEL 9
REMARK VINA RESULT:      -7.3      3.342      6.678
REMARK  9 active torsions:
REMARK  status: ('A' for Active; 'I' for Inactive)
REMARK    1  A    between atoms: C2_2  and  C3_3 
REMARK    2  A    between atoms: C3_3  and  C4_4 
REMARK    3  A    between atoms: C4_4  and  C5_5 
REMARK    4  A    between atoms: C4_4  and  C15_17 
REMARK    5  A    between atoms: C6_6  and  C7_7 
REMARK    6  A    between atoms: C15_17  and  C16_18 
REMARK    7  A    between atoms: C16_18  and  C17_19 
REMARK    8  A    between atoms: C17_19  and  O3_21 
REMARK    9  A    between atoms: C18_22  and  N2_23 
ROOT
HETATM    1  C4  UNL     1      23.125   2.737  50.343  1.00  0.00    -0.075 C 
ENDROOT
BRANCH   1   2
HETATM    2  C3  UNL     1      23.649   3.854  49.524  1.00  0.00     0.069 C 
BRANCH   2   3
HETATM    3  C2  UNL     1      24.120   4.964  50.378  1.00  0.00    -0.065 C 
HETATM    4  C1  UNL     1      25.427   5.593  50.056  1.00  0.00     0.045 C 
HETATM    5  C18 UNL     1      23.507   5.506  51.450  1.00  0.00     0.083 C 
BRANCH   5   6
HETATM    6  N2  UNL     1      24.327   6.554  51.964  1.00  0.00    -0.408 N 
HETATM    7  H19 UNL     1      24.832   7.386  52.316  1.00  0.00     0.155 HD
HETATM    8  H20 UNL     1      25.305   6.388  52.307  1.00  0.00     0.155 HD
ENDBRANCH   5   6
ENDBRANCH   2   3
ENDBRANCH   1   2
BRANCH   1   9
HETATM    9  C5  UNL     1      23.968   2.008  51.052  1.00  0.00     0.004 C 
HETATM   10  C6  UNL     1      24.398   1.525  52.336  1.00  0.00     0.018 C 
BRANCH  10  11
HETATM   11  C7  UNL     1      25.150   0.853  53.146  1.00  0.00     0.044 A 
HETATM   12  C8  UNL     1      24.718  -0.342  53.870  1.00  0.00     0.257 A 
HETATM   13  O1  UNL     1      23.600  -0.903  53.839  1.00  0.00    -0.267 OA
HETATM   14  N1  UNL     1      25.903  -0.647  54.581  1.00  0.00    -0.322 N 
HETATM   15  C9  UNL     1      26.956   0.253  54.330  1.00  0.00     0.046 A 
HETATM   16  H8  UNL     1      25.897  -1.497  55.218  1.00  0.00     0.169 HD
HETATM   17  C10 UNL     1      28.207   0.224  54.860  1.00  0.00     0.030 A 
HETATM   18  C14 UNL     1      26.523   1.206  53.438  1.00  0.00     0.006 A 
HETATM   19  C11 UNL     1      29.134   1.181  54.515  1.00  0.00     0.002 A 
HETATM   20  C12 UNL     1      28.765   2.162  53.628  1.00  0.00     0.001 A 
HETATM   21  C13 UNL     1      27.483   2.137  53.126  1.00  0.00     0.015 A 
ENDBRANCH  10  11
ENDBRANCH   1   9
BRANCH   1  22
HETATM   22  C15 UNL     1      21.724   2.271  50.468  1.00  0.00     0.045 C 
BRANCH  22  23
HETATM   23  C16 UNL     1      21.510   0.809  50.198  1.00  0.00     0.114 C 
BRANCH  23  24
HETATM   24  C17 UNL     1      20.623   0.290  51.310  1.00  0.00     0.139 C 
HETATM   25  O2  UNL     1      19.357   0.240  51.340  1.00  0.00    -0.650 OA
BRANCH  24  26
HETATM   26  O3  UNL     1      21.230  -0.206  52.465  1.00  0.00    -0.776 OA
HETATM   27  H17 UNL     1      20.803  -0.927  53.035  1.00  0.00     0.167 HD
ENDBRANCH  24  26
ENDBRANCH  23  24
ENDBRANCH  22  23
ENDBRANCH   1  22
TORSDOF 9
ENDMDL
