MODEL 1
REMARK VINA RESULT:      -8.5      0.000      0.000
REMARK  3 active torsions:
REMARK  status: ('A' for Active; 'I' for Inactive)
REMARK    1  A    between atoms: O1_1  and  C1_2 
REMARK    2  A    between atoms: C2_4  and  C3_5 
REMARK    3  A    between atoms: C3_5  and  N1_6 
ROOT
HETATM    1  C1  UNL     1      24.423   2.574  53.094  1.00  0.00     0.296 C 
HETATM    2  O2  UNL     1      24.816   1.410  53.446  1.00  0.00    -0.348 OA
HETATM    3  C2  UNL     1      24.622   0.364  54.172  1.00  0.00     0.167 C 
HETATM    4  C7  UNL     1      25.753  -0.065  55.128  1.00  0.00     0.202 C 
HETATM    5  O3  UNL     1      26.937  -0.518  54.534  1.00  0.00    -0.374 OA
HETATM    6  C8  UNL     1      27.350   0.326  53.640  1.00  0.00     0.188 C 
HETATM    7  C9  UNL     1      27.075  -0.032  52.184  1.00  0.00     0.029 C 
HETATM    8  C10 UNL     1      26.417   0.880  51.492  1.00  0.00     0.117 C 
HETATM    9  N3  UNL     1      27.203   2.000  52.022  1.00  0.00    -0.245 N 
HETATM   10  N4  UNL     1      28.273   2.075  52.933  1.00  0.00    -0.181 NA
HETATM   11  C11 UNL     1      28.690   0.920  53.457  1.00  0.00     0.148 C 
HETATM   12  C12 UNL     1      26.249   2.764  51.268  1.00  0.00     0.070 A 
HETATM   13  C13 UNL     1      26.578   3.287  50.032  1.00  0.00     0.035 A 
HETATM   14  C14 UNL     1      25.757   4.050  49.206  1.00  0.00     0.046 A 
HETATM   15  C15 UNL     1      24.521   4.235  49.778  1.00  0.00     0.139 A 
HETATM   16  F1  UNL     1      23.633   4.966  49.067  1.00  0.00    -0.204 F 
HETATM   17  C16 UNL     1      24.077   3.769  50.992  1.00  0.00     0.086 A 
HETATM   18 CL1  UNL     1      22.445   4.114  51.558  1.00  0.00    -0.080 Cl
HETATM   19  C17 UNL     1      24.930   3.022  51.769  1.00  0.00     0.050 A 
ENDROOT
BRANCH   3  20
HETATM   20  C3  UNL     1      24.056  -0.893  53.525  1.00  0.00     0.163 C 
BRANCH  20  21
HETATM   21  N1  UNL     1      22.606  -0.912  53.586  1.00  0.00    -0.348 N 
HETATM   22  C4  UNL     1      21.756  -0.192  52.799  1.00  0.00     0.111 A 
HETATM   23  C5  UNL     1      20.461  -0.518  53.202  1.00  0.00     0.135 A 
HETATM   24  N2  UNL     1      20.532  -1.410  54.208  1.00  0.00    -0.255 NA
HETATM   25  C6  UNL     1      21.852  -1.643  54.432  1.00  0.00     0.209 A 
ENDBRANCH  20  21
ENDBRANCH   3  20
BRANCH   1  26
HETATM   26  O1  UNL     1      25.201   3.475  54.022  1.00  0.00    -0.367 OA
HETATM   27  H1  UNL     1      25.509   4.218  53.436  1.00  0.00     0.213 HD
ENDBRANCH   1  26
TORSDOF 3
ENDMDL
MODEL 2
REMARK VINA RESULT:      -7.9      3.273      6.982
REMARK  3 active torsions:
REMARK  status: ('A' for Active; 'I' for Inactive)
REMARK    1  A    between atoms: O1_1  and  C1_2 
REMARK    2  A    between atoms: C2_4  and  C3_5 
REMARK    3  A    between atoms: C3_5  and  N1_6 
ROOT
HETATM    1  C1  UNL     1      24.738   3.412  52.544  1.00  0.00     0.296 C 
HETATM    2  O2  UNL     1      24.256   4.010  51.523  1.00  0.00    -0.348 OA
HETATM    3  C2  UNL     1      24.385   4.934  50.636  1.00  0.00     0.167 C 
HETATM    4  C7  UNL     1      23.263   5.987  50.528  1.00  0.00     0.202 C 
HETATM    5  O3  UNL     1      22.016   5.532  50.084  1.00  0.00    -0.374 OA
HETATM    6  C8  UNL     1      21.643   4.491  50.762  1.00  0.00     0.188 C 
HETATM    7  C9  UNL     1      21.818   3.136  50.086  1.00  0.00     0.029 C 
HETATM    8  C10 UNL     1      22.525   2.252  50.764  1.00  0.00     0.117 C 
HETATM    9  N3  UNL     1      21.871   2.555  52.042  1.00  0.00    -0.245 N 
HETATM   10  N4  UNL     1      20.855   3.456  52.411  1.00  0.00    -0.181 NA
HETATM   11  C11 UNL     1      20.357   4.221  51.436  1.00  0.00     0.148 C 
HETATM   12  C12 UNL     1      22.857   1.634  52.535  1.00  0.00     0.070 A 
HETATM   13  C13 UNL     1      22.522   0.324  52.822  1.00  0.00     0.035 A 
HETATM   14  C14 UNL     1      23.372  -0.664  53.312  1.00  0.00     0.046 A 
HETATM   15  C15 UNL     1      24.645  -0.175  53.487  1.00  0.00     0.139 A 
HETATM   16  F1  UNL     1      25.563  -1.045  53.962  1.00  0.00    -0.204 F 
HETATM   17  C16 UNL     1      25.098   1.099  53.239  1.00  0.00     0.086 A 
HETATM   18 CL1  UNL     1      26.779   1.538  53.529  1.00  0.00    -0.080 Cl
HETATM   19  C17 UNL     1      24.215   2.036  52.757  1.00  0.00     0.050 A 
ENDROOT
BRANCH   3  20
HETATM   20  C3  UNL     1      24.802   4.552  49.223  1.00  0.00     0.163 C 
BRANCH  20  21
HETATM   21  N1  UNL     1      26.144   5.015  48.924  1.00  0.00    -0.348 N 
HETATM   22  C4  UNL     1      26.500   6.282  48.565  1.00  0.00     0.111 A 
HETATM   23  C5  UNL     1      27.881   6.274  48.374  1.00  0.00     0.135 A 
HETATM   24  N2  UNL     1      28.344   5.033  48.612  1.00  0.00    -0.255 NA
HETATM   25  C6  UNL     1      27.270   4.273  48.948  1.00  0.00     0.209 A 
ENDBRANCH  20  21
ENDBRANCH   3  20
BRANCH   1  26
HETATM   26  O1  UNL     1      24.090   4.149  53.690  1.00  0.00    -0.367 OA
HETATM   27  H1  UNL     1      23.247   3.648  53.855  1.00  0.00     0.213 HD
ENDBRANCH   1  26
TORSDOF 3
ENDMDL
MODEL 3
REMARK VINA RESULT:      -7.7      3.283      5.136
REMARK  3 active torsions:
REMARK  status: ('A' for Active; 'I' for Inactive)
REMARK    1  A    between atoms: O1_1  and  C1_2 
REMARK    2  A    between atoms: C2_4  and  C3_5 
REMARK    3  A    between atoms: C3_5  and  N1_6 
ROOT
HETATM    1  C1  UNL     1      24.883   3.620  49.795  1.00  0.00     0.296 C 
HETATM    2  O2  UNL     1      24.293   3.063  50.782  1.00  0.00    -0.348 OA
HETATM    3  C2  UNL     1      24.110   2.002  51.488  1.00  0.00     0.167 C 
HETATM    4  C7  UNL     1      22.670   1.470  51.624  1.00  0.00     0.202 C 
HETATM    5  O3  UNL     1      21.768   2.273  52.332  1.00  0.00    -0.374 OA
HETATM    6  C8  UNL     1      21.797   3.491  51.887  1.00  0.00     0.188 C 
HETATM    7  C9  UNL     1      22.576   4.504  52.718  1.00  0.00     0.029 C 
HETATM    8  C10 UNL     1      23.519   5.162  52.070  1.00  0.00     0.117 C 
HETATM    9  N3  UNL     1      22.684   5.403  50.888  1.00  0.00    -0.245 N 
HETATM   10  N4  UNL     1      21.358   5.062  50.564  1.00  0.00    -0.181 NA
HETATM   11  C11 UNL     1      20.680   4.370  51.484  1.00  0.00     0.148 C 
HETATM   12  C12 UNL     1      23.912   5.948  50.379  1.00  0.00     0.070 A 
HETATM   13  C13 UNL     1      24.122   7.314  50.349  1.00  0.00     0.035 A 
HETATM   14  C14 UNL     1      25.255   7.971  49.877  1.00  0.00     0.046 A 
HETATM   15  C15 UNL     1      26.191   7.072  49.422  1.00  0.00     0.139 A 
HETATM   16  F1  UNL     1      27.338   7.594  48.935  1.00  0.00    -0.204 F 
HETATM   17  C16 UNL     1      26.099   5.701  49.399  1.00  0.00     0.086 A 
HETATM   18 CL1  UNL     1      27.415   4.712  48.773  1.00  0.00    -0.080 Cl
HETATM   19  C17 UNL     1      24.957   5.104  49.877  1.00  0.00     0.050 A 
ENDROOT
BRANCH   3  20
HETATM   20  C3  UNL     1      24.776   1.897  52.853  1.00  0.00     0.163 C 
BRANCH  20  21
HETATM   21  N1  UNL     1      25.536   0.667  52.978  1.00  0.00    -0.348 N 
HETATM   22  C4  UNL     1      26.445   0.186  52.083  1.00  0.00     0.111 A 
HETATM   23  C5  UNL     1      26.926  -1.015  52.603  1.00  0.00     0.135 A 
HETATM   24  N2  UNL     1      26.320  -1.250  53.782  1.00  0.00    -0.255 NA
HETATM   25  C6  UNL     1      25.471  -0.211  53.999  1.00  0.00     0.209 A 
ENDBRANCH  20  21
ENDBRANCH   3  20
BRANCH   1  26
HETATM   26  O1  UNL     1      23.886   3.442  48.676  1.00  0.00    -0.367 OA
HETATM   27  H1  UNL     1      23.405   4.312  48.638  1.00  0.00     0.213 HD
ENDBRANCH   1  26
TORSDOF 3
ENDMDL
MODEL 4
REMARK VINA RESULT:      -7.5      8.487     11.574
REMARK  3 active torsions:
REMARK  status: ('A' for Active; 'I' for Inactive)
REMARK    1  A    between atoms: O1_1  and  C1_2 
REMARK    2  A    between atoms: C2_4  and  C3_5 
REMARK    3  A    between atoms: C3_5  and  N1_6 
ROOT
HETATM    1  C1  UNL     1      32.560   6.556  49.248  1.00  0.00     0.296 C 
HETATM    2  O2  UNL     1      31.732   7.459  48.885  1.00  0.00    -0.348 OA
HETATM    3  C2  UNL     1      31.358   8.689  48.950  1.00  0.00     0.167 C 
HETATM    4  C7  UNL     1      29.920   8.978  49.424  1.00  0.00     0.202 C 
HETATM    5  O3  UNL     1      28.885   8.557  48.581  1.00  0.00    -0.374 OA
HETATM    6  C8  UNL     1      29.047   7.314  48.247  1.00  0.00     0.188 C 
HETATM    7  C9  UNL     1      29.613   7.048  46.856  1.00  0.00     0.029 C 
HETATM    8  C10 UNL     1      30.700   6.301  46.821  1.00  0.00     0.117 C 
HETATM    9  N3  UNL     1      30.192   5.332  47.799  1.00  0.00    -0.245 N 
HETATM   10  N4  UNL     1      28.983   5.232  48.511  1.00  0.00    -0.181 NA
HETATM   11  C11 UNL     1      28.084   6.196  48.295  1.00  0.00     0.148 C 
HETATM   12  C12 UNL     1      31.518   4.797  47.659  1.00  0.00     0.070 A 
HETATM   13  C13 UNL     1      31.755   3.685  46.874  1.00  0.00     0.035 A 
HETATM   14  C14 UNL     1      32.982   3.063  46.661  1.00  0.00     0.046 A 
HETATM   15  C15 UNL     1      33.985   3.706  47.348  1.00  0.00     0.139 A 
HETATM   16  F1  UNL     1      35.227   3.189  47.220  1.00  0.00    -0.204 F 
HETATM   17  C16 UNL     1      33.876   4.812  48.156  1.00  0.00     0.086 A 
HETATM   18 CL1  UNL     1      35.287   5.496  48.958  1.00  0.00    -0.080 Cl
HETATM   19  C17 UNL     1      32.639   5.387  48.332  1.00  0.00     0.050 A 
ENDROOT
BRANCH   3  20
HETATM   20  C3  UNL     1      31.660   9.618  47.783  1.00  0.00     0.163 C 
BRANCH  20  21
HETATM   21  N1  UNL     1      32.877   9.227  47.096  1.00  0.00    -0.348 N 
HETATM   22  C4  UNL     1      34.150   9.370  47.565  1.00  0.00     0.111 A 
HETATM   23  C5  UNL     1      35.000   8.864  46.582  1.00  0.00     0.135 A 
HETATM   24  N2  UNL     1      34.257   8.429  45.548  1.00  0.00    -0.255 NA
HETATM   25  C6  UNL     1      32.959   8.656  45.877  1.00  0.00     0.209 A 
ENDBRANCH  20  21
ENDBRANCH   3  20
BRANCH   1  26
HETATM   26  O1  UNL     1      31.871   5.943  50.443  1.00  0.00    -0.367 OA
HETATM   27  H1  UNL     1      32.555   5.984  51.164  1.00  0.00     0.213 HD
ENDBRANCH   1  26
TORSDOF 3
ENDMDL
MODEL 5
REMARK VINA RESULT:      -7.4      3.675      5.606
REMARK  3 active torsions:
REMARK  status: ('A' for Active; 'I' for Inactive)
REMARK    1  A    between atoms: O1_1  and  C1_2 
REMARK    2  A    between atoms: C2_4  and  C3_5 
REMARK    3  A    between atoms: C3_5  and  N1_6 
ROOT
HETATM    1  C1  UNL     1      23.669   5.847  50.779  1.00  0.00     0.296 C 
HETATM    2  O2  UNL     1      22.746   4.974  50.921  1.00  0.00    -0.348 OA
HETATM    3  C2  UNL     1      21.493   4.725  51.080  1.00  0.00     0.167 C 
HETATM    4  C7  UNL     1      21.077   3.897  52.313  1.00  0.00     0.202 C 
HETATM    5  O3  UNL     1      21.496   2.562  52.342  1.00  0.00    -0.374 OA
HETATM    6  C8  UNL     1      22.769   2.478  52.106  1.00  0.00     0.188 C 
HETATM    7  C9  UNL     1      23.178   2.052  50.701  1.00  0.00     0.029 C 
HETATM    8  C10 UNL     1      23.993   2.879  50.073  1.00  0.00     0.117 C 
HETATM    9  N3  UNL     1      24.848   3.091  51.246  1.00  0.00    -0.245 N 
HETATM   10  N4  UNL     1      24.816   2.590  52.561  1.00  0.00    -0.181 NA
HETATM   11  C11 UNL     1      23.816   1.754  52.854  1.00  0.00     0.148 C 
HETATM   12  C12 UNL     1      25.475   4.039  50.368  1.00  0.00     0.070 A 
HETATM   13  C13 UNL     1      26.658   3.732  49.722  1.00  0.00     0.035 A 
HETATM   14  C14 UNL     1      27.371   4.557  48.856  1.00  0.00     0.046 A 
HETATM   15  C15 UNL     1      26.742   5.770  48.704  1.00  0.00     0.139 A 
HETATM   16  F1  UNL     1      27.345   6.660  47.884  1.00  0.00    -0.204 F 
HETATM   17  C16 UNL     1      25.572   6.191  49.288  1.00  0.00     0.086 A 
HETATM   18 CL1  UNL     1      24.920   7.795  48.966  1.00  0.00    -0.080 Cl
HETATM   19  C17 UNL     1      24.908   5.335  50.136  1.00  0.00     0.050 A 
ENDROOT
BRANCH   3  20
HETATM   20  C3  UNL     1      20.678   4.233  49.892  1.00  0.00     0.163 C 
BRANCH  20  21
HETATM   21  N1  UNL     1      21.027   4.948  48.679  1.00  0.00    -0.348 N 
HETATM   22  C4  UNL     1      21.740   4.454  47.626  1.00  0.00     0.111 A 
HETATM   23  C5  UNL     1      21.838   5.480  46.688  1.00  0.00     0.135 A 
HETATM   24  N2  UNL     1      21.200   6.565  47.165  1.00  0.00    -0.255 NA
HETATM   25  C6  UNL     1      20.708   6.225  48.384  1.00  0.00     0.209 A 
ENDBRANCH  20  21
ENDBRANCH   3  20
BRANCH   1  26
HETATM   26  O1  UNL     1      24.142   6.054  52.197  1.00  0.00    -0.367 OA
HETATM   27  H1  UNL     1      24.075   5.151  52.609  1.00  0.00     0.213 HD
ENDBRANCH   1  26
TORSDOF 3
ENDMDL
MODEL 6
REMARK VINA RESULT:      -7.1      4.017      6.426
REMARK  3 active torsions:
REMARK  status: ('A' for Active; 'I' for Inactive)
REMARK    1  A    between atoms: O1_1  and  C1_2 
REMARK    2  A    between atoms: C2_4  and  C3_5 
REMARK    3  A    between atoms: C3_5  and  N1_6 
ROOT
HETATM    1  C1  UNL     1      21.309   1.469  51.000  1.00  0.00     0.296 C 
HETATM    2  O2  UNL     1      21.910   2.597  50.988  1.00  0.00    -0.348 OA
HETATM    3  C2  UNL     1      21.948   3.810  50.557  1.00  0.00     0.167 C 
HETATM    4  C7  UNL     1      23.214   4.263  49.802  1.00  0.00     0.202 C 
HETATM    5  O3  UNL     1      24.397   4.335  50.547  1.00  0.00    -0.374 OA
HETATM    6  C8  UNL     1      24.590   3.233  51.203  1.00  0.00     0.188 C 
HETATM    7  C9  UNL     1      24.245   3.252  52.688  1.00  0.00     0.029 C 
HETATM    8  C10 UNL     1      23.393   2.325  53.083  1.00  0.00     0.117 C 
HETATM    9  N3  UNL     1      24.037   1.257  52.311  1.00  0.00    -0.245 N 
HETATM   10  N4  UNL     1      25.159   1.228  51.462  1.00  0.00    -0.181 NA
HETATM   11  C11 UNL     1      25.798   2.388  51.283  1.00  0.00     0.148 C 
HETATM   12  C12 UNL     1      22.911   0.505  52.791  1.00  0.00     0.070 A 
HETATM   13  C13 UNL     1      23.042  -0.364  53.857  1.00  0.00     0.035 A 
HETATM   14  C14 UNL     1      22.040  -1.155  54.413  1.00  0.00     0.046 A 
HETATM   15  C15 UNL     1      20.846  -0.970  53.757  1.00  0.00     0.139 A 
HETATM   16  F1  UNL     1      19.795  -1.690  54.208  1.00  0.00    -0.204 F 
HETATM   17  C16 UNL     1      20.592  -0.140  52.691  1.00  0.00     0.086 A 
HETATM   18 CL1  UNL     1      18.983  -0.039  51.981  1.00  0.00    -0.080 Cl
HETATM   19  C17 UNL     1      21.618   0.618  52.180  1.00  0.00     0.050 A 
ENDROOT
BRANCH   3  20
HETATM   20  C3  UNL     1      21.531   4.940  51.488  1.00  0.00     0.163 C 
BRANCH  20  21
HETATM   21  N1  UNL     1      21.064   6.094  50.742  1.00  0.00    -0.348 N 
HETATM   22  C4  UNL     1      20.060   6.105  49.818  1.00  0.00     0.111 A 
HETATM   23  C5  UNL     1      19.951   7.416  49.357  1.00  0.00     0.135 A 
HETATM   24  N2  UNL     1      20.868   8.174  49.986  1.00  0.00    -0.255 NA
HETATM   25  C6  UNL     1      21.542   7.352  50.832  1.00  0.00     0.209 A 
ENDBRANCH  20  21
ENDBRANCH   3  20
BRANCH   1  26
HETATM   26  O1  UNL     1      22.015   0.711  49.903  1.00  0.00    -0.367 OA
HETATM   27  H1  UNL     1      21.341   0.657  49.174  1.00  0.00     0.213 HD
ENDBRANCH   1  26
TORSDOF 3
ENDMDL
MODEL 7
REMARK VINA RESULT:      -7.1      3.579      6.152
REMARK  3 active torsions:
REMARK  status: ('A' for Active; 'I' for Inactive)
REMARK    1  A    between atoms: O1_1  and  C1_2 
REMARK    2  A    between atoms: C2_4  and  C3_5 
REMARK    3  A    between atoms: C3_5  and  N1_6 
ROOT
HETATM    1  C1  UNL     1      21.706   2.410  52.547  1.00  0.00     0.296 C 
HETATM    2  O2  UNL     1      22.722   2.694  51.826  1.00  0.00    -0.348 OA
HETATM    3  C2  UNL     1      23.964   3.032  51.772  1.00  0.00     0.167 C 
HETATM    4  C7  UNL     1      24.323   4.325  51.012  1.00  0.00     0.202 C 
HETATM    5  O3  UNL     1      24.113   4.318  49.628  1.00  0.00    -0.374 OA
HETATM    6  C8  UNL     1      22.915   3.908  49.351  1.00  0.00     0.188 C 
HETATM    7  C9  UNL     1      22.778   2.467  48.873  1.00  0.00     0.029 C 
HETATM    8  C10 UNL     1      21.943   1.717  49.568  1.00  0.00     0.117 C 
HETATM    9  N3  UNL     1      20.908   2.754  49.640  1.00  0.00    -0.245 N 
HETATM   10  N4  UNL     1      20.831   4.069  49.144  1.00  0.00    -0.181 NA
HETATM   11  C11 UNL     1      21.895   4.514  48.471  1.00  0.00     0.148 C 
HETATM   12  C12 UNL     1      20.274   1.780  50.484  1.00  0.00     0.070 A 
HETATM   13  C13 UNL     1      19.256   0.980  50.002  1.00  0.00     0.035 A 
HETATM   14  C14 UNL     1      18.553   0.009  50.711  1.00  0.00     0.046 A 
HETATM   15  C15 UNL     1      19.005  -0.075  52.007  1.00  0.00     0.139 A 
HETATM   16  F1  UNL     1      18.394  -0.985  52.797  1.00  0.00    -0.204 F 
HETATM   17  C16 UNL     1      20.002   0.660  52.600  1.00  0.00     0.086 A 
HETATM   18 CL1  UNL     1      20.440   0.406  54.287  1.00  0.00    -0.080 Cl
HETATM   19  C17 UNL     1      20.663   1.608  51.854  1.00  0.00     0.050 A 
ENDROOT
BRANCH   3  20
HETATM   20  C3  UNL     1      25.003   1.978  51.416  1.00  0.00     0.163 C 
BRANCH  20  21
HETATM   21  N1  UNL     1      25.584   1.386  52.606  1.00  0.00    -0.348 N 
HETATM   22  C4  UNL     1      25.739   0.053  52.852  1.00  0.00     0.111 A 
HETATM   23  C5  UNL     1      26.335  -0.059  54.107  1.00  0.00     0.135 A 
HETATM   24  N2  UNL     1      26.533   1.175  54.605  1.00  0.00    -0.255 NA
HETATM   25  C6  UNL     1      26.069   2.051  53.675  1.00  0.00     0.209 A 
ENDBRANCH  20  21
ENDBRANCH   3  20
BRANCH   1  26
HETATM   26  O1  UNL     1      21.011   3.744  52.672  1.00  0.00    -0.367 OA
HETATM   27  H1  UNL     1      20.247   3.679  52.038  1.00  0.00     0.213 HD
ENDBRANCH   1  26
TORSDOF 3
ENDMDL
MODEL 8
REMARK VINA RESULT:      -7.1      8.384     10.483
REMARK  3 active torsions:
REMARK  status: ('A' for Active; 'I' for Inactive)
REMARK    1  A    between atoms: O1_1  and  C1_2 
REMARK    2  A    between atoms: C2_4  and  C3_5 
REMARK    3  A    between atoms: C3_5  and  N1_6 
ROOT
HETATM    1  C1  UNL     1      27.564   8.842  49.873  1.00  0.00     0.296 C 
HETATM    2  O2  UNL     1      28.655   9.171  49.296  1.00  0.00    -0.348 OA
HETATM    3  C2  UNL     1      29.910   8.943  49.120  1.00  0.00     0.167 C 
HETATM    4  C7  UNL     1      30.896  10.090  49.420  1.00  0.00     0.202 C 
HETATM    5  O3  UNL     1      30.832  11.208  48.580  1.00  0.00    -0.374 OA
HETATM    6  C8  UNL     1      29.610  11.631  48.476  1.00  0.00     0.188 C 
HETATM    7  C9  UNL     1      28.862  11.256  47.202  1.00  0.00     0.029 C 
HETATM    8  C10 UNL     1      27.716  10.627  47.383  1.00  0.00     0.117 C 
HETATM    9  N3  UNL     1      27.281  11.515  48.466  1.00  0.00    -0.245 N 
HETATM   10  N4  UNL     1      27.868  12.634  49.085  1.00  0.00    -0.181 NA
HETATM   11  C11 UNL     1      29.073  12.997  48.636  1.00  0.00     0.148 C 
HETATM   12  C12 UNL     1      26.194  10.578  48.527  1.00  0.00     0.070 A 
HETATM   13  C13 UNL     1      24.968  10.878  47.964  1.00  0.00     0.035 A 
HETATM   14  C14 UNL     1      23.834  10.069  47.960  1.00  0.00     0.046 A 
HETATM   15  C15 UNL     1      24.077   8.880  48.607  1.00  0.00     0.139 A 
HETATM   16  F1  UNL     1      23.045   8.009  48.670  1.00  0.00    -0.204 F 
HETATM   17  C16 UNL     1      25.244   8.469  49.203  1.00  0.00     0.086 A 
HETATM   18 CL1  UNL     1      25.361   6.897  49.989  1.00  0.00    -0.080 Cl
HETATM   19  C17 UNL     1      26.334   9.308  49.179  1.00  0.00     0.050 A 
ENDROOT
BRANCH   3  20
HETATM   20  C3  UNL     1      30.367   8.259  47.840  1.00  0.00     0.163 C 
BRANCH  20  21
HETATM   21  N1  UNL     1      30.976   6.971  48.117  1.00  0.00    -0.348 N 
HETATM   22  C4  UNL     1      31.417   6.071  47.192  1.00  0.00     0.111 A 
HETATM   23  C5  UNL     1      31.924   4.981  47.899  1.00  0.00     0.135 A 
HETATM   24  N2  UNL     1      31.789   5.220  49.217  1.00  0.00    -0.255 NA
HETATM   25  C6  UNL     1      31.208   6.442  49.336  1.00  0.00     0.209 A 
ENDBRANCH  20  21
ENDBRANCH   3  20
BRANCH   1  26
HETATM   26  O1  UNL     1      27.561   9.728  51.095  1.00  0.00    -0.367 OA
HETATM   27  H1  UNL     1      27.194  10.592  50.766  1.00  0.00     0.213 HD
ENDBRANCH   1  26
TORSDOF 3
ENDMDL
MODEL 9
REMARK VINA RESULT:      -7.0      4.794      7.039
REMARK  3 active torsions:
REMARK  status: ('A' for Active; 'I' for Inactive)
REMARK    1  A    between atoms: O1_1  and  C1_2 
REMARK    2  A    between atoms: C2_4  and  C3_5 
REMARK    3  A    between atoms: C3_5  and  N1_6 
ROOT
HETATM    1  C1  UNL     1      24.116   7.036  50.869  1.00  0.00     0.296 C 
HETATM    2  O2  UNL     1      23.052   6.370  50.631  1.00  0.00    -0.348 OA
HETATM    3  C2  UNL     1      21.768   6.301  50.696  1.00  0.00     0.167 C 
HETATM    4  C7  UNL     1      21.151   5.099  51.440  1.00  0.00     0.202 C 
HETATM    5  O3  UNL     1      21.335   3.840  50.857  1.00  0.00    -0.374 OA
HETATM    6  C8  UNL     1      22.585   3.647  50.574  1.00  0.00     0.188 C 
HETATM    7  C9  UNL     1      22.992   3.825  49.116  1.00  0.00     0.029 C 
HETATM    8  C10 UNL     1      23.969   4.686  48.902  1.00  0.00     0.117 C 
HETATM    9  N3  UNL     1      24.783   4.200  50.022  1.00  0.00    -0.245 N 
HETATM   10  N4  UNL     1      24.594   3.182  50.974  1.00  0.00    -0.181 NA
HETATM   11  C11 UNL     1      23.452   2.493  50.891  1.00  0.00     0.148 C 
HETATM   12  C12 UNL     1      25.609   5.313  49.643  1.00  0.00     0.070 A 
HETATM   13  C13 UNL     1      26.755   5.122  48.896  1.00  0.00     0.035 A 
HETATM   14  C14 UNL     1      27.645   6.105  48.471  1.00  0.00     0.046 A 
HETATM   15  C15 UNL     1      27.241   7.349  48.895  1.00  0.00     0.139 A 
HETATM   16  F1  UNL     1      28.030   8.389  48.544  1.00  0.00    -0.204 F 
HETATM   17  C16 UNL     1      26.129   7.665  49.637  1.00  0.00     0.086 A 
HETATM   18 CL1  UNL     1      25.777   9.332  50.085  1.00  0.00    -0.080 Cl
HETATM   19  C17 UNL     1      25.284   6.655  50.031  1.00  0.00     0.050 A 
ENDROOT
BRANCH   3  20
HETATM   20  C3  UNL     1      20.948   6.540  49.437  1.00  0.00     0.163 C 
BRANCH  20  21
HETATM   21  N1  UNL     1      20.700   7.955  49.228  1.00  0.00    -0.348 N 
HETATM   22  C4  UNL     1      21.478   8.814  48.509  1.00  0.00     0.111 A 
HETATM   23  C5  UNL     1      20.867  10.065  48.576  1.00  0.00     0.135 A 
HETATM   24  N2  UNL     1      19.749   9.961  49.319  1.00  0.00    -0.255 NA
HETATM   25  C6  UNL     1      19.659   8.664  49.711  1.00  0.00     0.209 A 
ENDBRANCH  20  21
ENDBRANCH   3  20
BRANCH   1  26
HETATM   26  O1  UNL     1      24.540   6.504  52.217  1.00  0.00    -0.367 OA
HETATM   27  H1  UNL     1      25.370   7.010  52.427  1.00  0.00     0.213 HD
ENDBRANCH   1  26
TORSDOF 3
ENDMDL
