MODEL 1
REMARK VINA RESULT:      -8.6      0.000      0.000
REMARK  0 active torsions:
REMARK  status: ('A' for Active; 'I' for Inactive)
ROOT
HETATM    1  N1  UNL     1      21.425  -1.672  55.130  1.00  0.00    -0.192 NA
HETATM    2  C1  UNL     1      22.351  -1.179  54.560  1.00  0.00     0.099 C 
HETATM    3  C2  UNL     1      23.510  -0.588  53.866  1.00  0.00     0.063 C 
HETATM    4  C3  UNL     1      24.723  -0.849  54.419  1.00  0.00     0.104 C 
HETATM    5  N2  UNL     1      26.178  -0.678  54.377  1.00  0.00    -0.383 N 
HETATM    6  C4  UNL     1      26.523   0.359  53.417  1.00  0.00     0.087 A 
HETATM    7  C5  UNL     1      26.344   1.324  54.353  1.00  0.00     0.081 A 
HETATM    8  C6  UNL     1      26.143   2.607  53.907  1.00  0.00    -0.003 A 
HETATM    9  C7  UNL     1      26.286   1.858  52.752  1.00  0.00     0.151 A 
HETATM   10  C8  UNL     1      26.475   0.832  51.864  1.00  0.00     0.098 A 
HETATM   11  C9  UNL     1      26.678  -0.430  52.325  1.00  0.00     0.006 A 
HETATM   12 BR1  UNL     1      27.025  -2.304  52.184  1.00  0.00    -0.057 Br
HETATM   13  N3  UNL     1      25.516   2.791  51.856  1.00  0.00    -0.063 N 
HETATM   14  C10 UNL     1      24.704   3.681  50.992  1.00  0.00     0.574 C 
HETATM   15  C11 UNL     1      23.347   3.645  50.972  1.00  0.00     0.008 C 
HETATM   16  C12 UNL     1      21.926   3.294  51.239  1.00  0.00     0.113 C 
HETATM   17  C13 UNL     1      21.639   2.282  52.152  1.00  0.00     0.048 C 
HETATM   18  C14 UNL     1      20.164   2.396  51.989  1.00  0.00     0.416 C 
HETATM   19  O1  UNL     1      18.908   2.549  51.799  1.00  0.00    -0.428 OA
HETATM   20  N4  UNL     1      22.015   1.229  53.149  1.00  0.00    -0.401 N 
HETATM   21  C15 UNL     1      22.906   0.136  52.719  1.00  0.00     0.147 C 
HETATM   22  C16 UNL     1      23.969   0.812  51.955  1.00  0.00     0.027 C 
HETATM   23  C17 UNL     1      24.429   1.959  52.488  1.00  0.00     0.189 C 
HETATM   24  H2  UNL     1      26.874  -1.195  54.918  1.00  0.00     0.160 HD
HETATM   25  H10 UNL     1      21.536   1.491  54.031  1.00  0.00     0.154 HD
ENDROOT
TORSDOF 0
ENDMDL
MODEL 2
REMARK VINA RESULT:      -8.4      3.127      6.036
REMARK  0 active torsions:
REMARK  status: ('A' for Active; 'I' for Inactive)
ROOT
HETATM    1  N1  UNL     1      24.228   6.339  51.571  1.00  0.00    -0.192 NA
HETATM    2  C1  UNL     1      23.690   5.276  51.501  1.00  0.00     0.099 C 
HETATM    3  C2  UNL     1      23.007   3.973  51.399  1.00  0.00     0.063 C 
HETATM    4  C3  UNL     1      21.671   4.025  51.159  1.00  0.00     0.104 C 
HETATM    5  N2  UNL     1      20.411   3.308  50.944  1.00  0.00    -0.383 N 
HETATM    6  C4  UNL     1      20.582   1.904  51.284  1.00  0.00     0.087 A 
HETATM    7  C5  UNL     1      20.321   2.159  52.590  1.00  0.00     0.081 A 
HETATM    8  C6  UNL     1      20.736   1.229  53.509  1.00  0.00    -0.003 A 
HETATM    9  C7  UNL     1      21.137   0.712  52.290  1.00  0.00     0.151 A 
HETATM   10  C8  UNL     1      21.364   0.521  50.953  1.00  0.00     0.098 A 
HETATM   11  C9  UNL     1      20.941   1.450  50.057  1.00  0.00     0.006 A 
HETATM   12 BR1  UNL     1      20.660   2.199  48.321  1.00  0.00    -0.057 Br
HETATM   13  N3  UNL     1      22.258  -0.134  52.832  1.00  0.00    -0.063 N 
HETATM   14  C10 UNL     1      23.401  -0.916  53.363  1.00  0.00     0.574 C 
HETATM   15  C11 UNL     1      24.606  -0.357  53.640  1.00  0.00     0.008 C 
HETATM   16  C12 UNL     1      25.726   0.609  53.801  1.00  0.00     0.113 C 
HETATM   17  C13 UNL     1      25.528   1.941  53.448  1.00  0.00     0.048 C 
HETATM   18  C14 UNL     1      26.908   2.364  53.810  1.00  0.00     0.416 C 
HETATM   19  O1  UNL     1      28.109   2.655  54.142  1.00  0.00    -0.428 OA
HETATM   20  N4  UNL     1      24.704   3.087  52.945  1.00  0.00    -0.401 N 
HETATM   21  C15 UNL     1      24.095   2.984  51.606  1.00  0.00     0.147 C 
HETATM   22  C16 UNL     1      23.532   1.624  51.565  1.00  0.00     0.027 C 
HETATM   23  C17 UNL     1      22.901   1.221  52.683  1.00  0.00     0.189 C 
HETATM   24  H2  UNL     1      19.531   3.700  50.602  1.00  0.00     0.160 HD
HETATM   25  H10 UNL     1      24.717   3.798  53.699  1.00  0.00     0.154 HD
ENDROOT
TORSDOF 0
ENDMDL
MODEL 3
REMARK VINA RESULT:      -7.8      3.026      6.009
REMARK  0 active torsions:
REMARK  status: ('A' for Active; 'I' for Inactive)
ROOT
HETATM    1  N1  UNL     1      25.516   2.430  52.924  1.00  0.00    -0.192 NA
HETATM    2  C1  UNL     1      24.479   2.334  52.340  1.00  0.00     0.099 C 
HETATM    3  C2  UNL     1      23.207   2.232  51.601  1.00  0.00     0.063 C 
HETATM    4  C3  UNL     1      22.884   3.307  50.835  1.00  0.00     0.104 C 
HETATM    5  N2  UNL     1      21.941   3.944  49.912  1.00  0.00    -0.383 N 
HETATM    6  C4  UNL     1      20.693   3.197  49.890  1.00  0.00     0.087 A 
HETATM    7  C5  UNL     1      20.236   3.875  50.972  1.00  0.00     0.081 A 
HETATM    8  C6  UNL     1      19.210   3.307  51.685  1.00  0.00    -0.003 A 
HETATM    9  C7  UNL     1      19.463   2.406  50.666  1.00  0.00     0.151 A 
HETATM   10  C8  UNL     1      19.975   1.779  49.561  1.00  0.00     0.098 A 
HETATM   11  C9  UNL     1      20.986   2.360  48.864  1.00  0.00     0.006 A 
HETATM   12 BR1  UNL     1      22.270   2.517  47.457  1.00  0.00    -0.057 Br
HETATM   13  N3  UNL     1      18.923   1.195  51.381  1.00  0.00    -0.063 N 
HETATM   14  C10 UNL     1      18.448  -0.004  52.113  1.00  0.00     0.574 C 
HETATM   15  C11 UNL     1      19.214  -0.658  53.022  1.00  0.00     0.008 C 
HETATM   16  C12 UNL     1      20.336  -1.070  53.908  1.00  0.00     0.113 C 
HETATM   17  C13 UNL     1      21.520  -0.339  53.885  1.00  0.00     0.048 C 
HETATM   18  C14 UNL     1      22.198  -1.184  54.907  1.00  0.00     0.416 C 
HETATM   19  O1  UNL     1      22.716  -1.953  55.788  1.00  0.00    -0.428 OA
HETATM   20  N4  UNL     1      22.396   0.782  53.415  1.00  0.00    -0.401 N 
HETATM   21  C15 UNL     1      22.686   0.893  51.973  1.00  0.00     0.147 C 
HETATM   22  C16 UNL     1      21.382   0.679  51.322  1.00  0.00     0.027 C 
HETATM   23  C17 UNL     1      20.334   1.292  51.902  1.00  0.00     0.189 C 
HETATM   24  H2  UNL     1      22.103   4.782  49.347  1.00  0.00     0.160 HD
HETATM   25  H10 UNL     1      22.655   1.316  54.265  1.00  0.00     0.154 HD
ENDROOT
TORSDOF 0
ENDMDL
MODEL 4
REMARK VINA RESULT:      -7.8      3.617      6.623
REMARK  0 active torsions:
REMARK  status: ('A' for Active; 'I' for Inactive)
ROOT
HETATM    1  N1  UNL     1      28.132   5.107  48.732  1.00  0.00    -0.192 NA
HETATM    2  C1  UNL     1      27.032   4.737  49.010  1.00  0.00     0.099 C 
HETATM    3  C2  UNL     1      25.663   4.294  49.332  1.00  0.00     0.063 C 
HETATM    4  C3  UNL     1      24.664   5.109  48.903  1.00  0.00     0.104 C 
HETATM    5  N2  UNL     1      23.227   5.381  48.811  1.00  0.00    -0.383 N 
HETATM    6  C4  UNL     1      22.499   4.484  49.696  1.00  0.00     0.087 A 
HETATM    7  C5  UNL     1      22.685   5.324  50.744  1.00  0.00     0.081 A 
HETATM    8  C6  UNL     1      22.541   4.799  52.005  1.00  0.00    -0.003 A 
HETATM    9  C7  UNL     1      22.305   3.732  51.158  1.00  0.00     0.151 A 
HETATM   10  C8  UNL     1      22.131   2.944  50.051  1.00  0.00     0.098 A 
HETATM   11  C9  UNL     1      22.271   3.482  48.811  1.00  0.00     0.006 A 
HETATM   12 BR1  UNL     1      22.263   3.487  46.900  1.00  0.00    -0.057 Br
HETATM   13  N3  UNL     1      22.680   2.656  52.142  1.00  0.00    -0.063 N 
HETATM   14  C10 UNL     1      23.110   1.604  53.095  1.00  0.00     0.574 C 
HETATM   15  C11 UNL     1      24.413   1.287  53.298  1.00  0.00     0.008 C 
HETATM   16  C12 UNL     1      25.899   1.248  53.224  1.00  0.00     0.113 C 
HETATM   17  C13 UNL     1      26.557   2.111  52.351  1.00  0.00     0.048 C 
HETATM   18  C14 UNL     1      27.917   1.624  52.711  1.00  0.00     0.416 C 
HETATM   19  O1  UNL     1      29.053   1.158  53.069  1.00  0.00    -0.428 OA
HETATM   20  N4  UNL     1      26.604   3.203  51.326  1.00  0.00    -0.401 N 
HETATM   21  C15 UNL     1      25.866   3.018  50.064  1.00  0.00     0.147 C 
HETATM   22  C16 UNL     1      24.558   2.483  50.481  1.00  0.00     0.027 C 
HETATM   23  C17 UNL     1      24.011   3.063  51.565  1.00  0.00     0.189 C 
HETATM   24  H2  UNL     1      22.770   6.080  48.221  1.00  0.00     0.160 HD
HETATM   25  H10 UNL     1      27.199   3.948  51.734  1.00  0.00     0.154 HD
ENDROOT
TORSDOF 0
ENDMDL
MODEL 5
REMARK VINA RESULT:      -7.6      3.274      6.093
REMARK  0 active torsions:
REMARK  status: ('A' for Active; 'I' for Inactive)
ROOT
HETATM    1  N1  UNL     1      26.899   3.335  50.500  1.00  0.00    -0.192 NA
HETATM    2  C1  UNL     1      25.716   3.185  50.466  1.00  0.00     0.099 C 
HETATM    3  C2  UNL     1      24.252   3.016  50.404  1.00  0.00     0.063 C 
HETATM    4  C3  UNL     1      23.561   4.060  49.876  1.00  0.00     0.104 C 
HETATM    5  N2  UNL     1      22.269   4.639  49.498  1.00  0.00    -0.383 N 
HETATM    6  C4  UNL     1      21.190   3.842  50.060  1.00  0.00     0.087 A 
HETATM    7  C5  UNL     1      21.258   4.525  51.230  1.00  0.00     0.081 A 
HETATM    8  C6  UNL     1      20.709   3.932  52.339  1.00  0.00    -0.003 A 
HETATM    9  C7  UNL     1      20.499   3.020  51.321  1.00  0.00     0.151 A 
HETATM   10  C8  UNL     1      20.466   2.390  50.105  1.00  0.00     0.098 A 
HETATM   11  C9  UNL     1      21.010   2.995  49.017  1.00  0.00     0.006 A 
HETATM   12 BR1  UNL     1      21.483   3.173  47.173  1.00  0.00    -0.057 Br
HETATM   13  N3  UNL     1      20.409   1.805  52.205  1.00  0.00    -0.063 N 
HETATM   14  C10 UNL     1      20.385   0.604  53.075  1.00  0.00     0.574 C 
HETATM   15  C11 UNL     1      21.514   0.001  53.524  1.00  0.00     0.008 C 
HETATM   16  C12 UNL     1      22.937  -0.347  53.786  1.00  0.00     0.113 C 
HETATM   17  C13 UNL     1      23.940   0.431  53.213  1.00  0.00     0.048 C 
HETATM   18  C14 UNL     1      25.053  -0.365  53.802  1.00  0.00     0.416 C 
HETATM   19  O1  UNL     1      25.956  -1.092  54.341  1.00  0.00    -0.428 OA
HETATM   20  N4  UNL     1      24.445   1.575  52.388  1.00  0.00    -0.401 N 
HETATM   21  C15 UNL     1      24.026   1.666  50.977  1.00  0.00     0.147 C 
HETATM   22  C16 UNL     1      22.579   1.386  51.008  1.00  0.00     0.027 C 
HETATM   23  C17 UNL     1      21.895   1.969  52.009  1.00  0.00     0.189 C 
HETATM   24  H2  UNL     1      22.112   5.470  48.922  1.00  0.00     0.160 HD
HETATM   25  H10 UNL     1      25.045   2.137  53.020  1.00  0.00     0.154 HD
ENDROOT
TORSDOF 0
ENDMDL
MODEL 6
REMARK VINA RESULT:      -7.5      1.825      2.558
REMARK  0 active torsions:
REMARK  status: ('A' for Active; 'I' for Inactive)
ROOT
HETATM    1  N1  UNL     1      21.542  -1.640  54.958  1.00  0.00    -0.192 NA
HETATM    2  C1  UNL     1      22.093  -0.875  54.226  1.00  0.00     0.099 C 
HETATM    3  C2  UNL     1      22.797   0.064  53.333  1.00  0.00     0.063 C 
HETATM    4  C3  UNL     1      23.916   0.638  53.847  1.00  0.00     0.104 C 
HETATM    5  N2  UNL     1      25.047   1.552  53.665  1.00  0.00    -0.383 N 
HETATM    6  C4  UNL     1      24.846   2.350  52.466  1.00  0.00     0.087 A 
HETATM    7  C5  UNL     1      24.108   3.254  53.157  1.00  0.00     0.081 A 
HETATM    8  C6  UNL     1      23.280   4.077  52.435  1.00  0.00    -0.003 A 
HETATM    9  C7  UNL     1      23.887   3.276  51.484  1.00  0.00     0.151 A 
HETATM   10  C8  UNL     1      24.663   2.340  50.853  1.00  0.00     0.098 A 
HETATM   11  C9  UNL     1      25.480   1.539  51.583  1.00  0.00     0.006 A 
HETATM   12 BR1  UNL     1      26.792   0.177  51.866  1.00  0.00    -0.057 Br
HETATM   13  N3  UNL     1      22.802   3.404  50.448  1.00  0.00    -0.063 N 
HETATM   14  C10 UNL     1      21.702   3.482  49.456  1.00  0.00     0.574 C 
HETATM   15  C11 UNL     1      20.585   2.716  49.538  1.00  0.00     0.008 C 
HETATM   16  C12 UNL     1      19.563   1.728  49.979  1.00  0.00     0.113 C 
HETATM   17  C13 UNL     1      19.802   0.971  51.122  1.00  0.00     0.048 C 
HETATM   18  C14 UNL     1      18.515   0.228  51.040  1.00  0.00     0.416 C 
HETATM   19  O1  UNL     1      17.392  -0.371  50.906  1.00  0.00    -0.428 OA
HETATM   20  N4  UNL     1      20.614   0.557  52.312  1.00  0.00    -0.401 N 
HETATM   21  C15 UNL     1      21.982   0.053  52.092  1.00  0.00     0.147 C 
HETATM   22  C16 UNL     1      22.564   0.993  51.118  1.00  0.00     0.027 C 
HETATM   23  C17 UNL     1      22.293   2.294  51.332  1.00  0.00     0.189 C 
HETATM   24  H2  UNL     1      25.872   1.637  54.264  1.00  0.00     0.160 HD
HETATM   25  H10 UNL     1      20.008   0.718  53.138  1.00  0.00     0.154 HD
ENDROOT
TORSDOF 0
ENDMDL
MODEL 7
REMARK VINA RESULT:      -7.2      3.145      5.340
REMARK  0 active torsions:
REMARK  status: ('A' for Active; 'I' for Inactive)
ROOT
HETATM    1  N1  UNL     1      18.714   1.305  50.031  1.00  0.00    -0.192 NA
HETATM    2  C1  UNL     1      19.707   1.932  50.243  1.00  0.00     0.099 C 
HETATM    3  C2  UNL     1      20.924   2.728  50.491  1.00  0.00     0.063 C 
HETATM    4  C3  UNL     1      21.214   3.667  49.554  1.00  0.00     0.104 C 
HETATM    5  N2  UNL     1      22.104   4.735  49.090  1.00  0.00    -0.383 N 
HETATM    6  C4  UNL     1      23.334   4.723  49.867  1.00  0.00     0.087 A 
HETATM    7  C5  UNL     1      23.876   3.788  49.047  1.00  0.00     0.081 A 
HETATM    8  C6  UNL     1      24.937   3.064  49.530  1.00  0.00    -0.003 A 
HETATM    9  C7  UNL     1      24.599   3.916  50.567  1.00  0.00     0.151 A 
HETATM   10  C8  UNL     1      24.002   4.877  51.339  1.00  0.00     0.098 A 
HETATM   11  C9  UNL     1      22.957   5.588  50.841  1.00  0.00     0.006 A 
HETATM   12 BR1  UNL     1      21.584   6.918  50.861  1.00  0.00    -0.057 Br
HETATM   13  N3  UNL     1      25.164   3.061  51.671  1.00  0.00    -0.063 N 
HETATM   14  C10 UNL     1      25.665   2.187  52.758  1.00  0.00     0.574 C 
HETATM   15  C11 UNL     1      24.951   1.141  53.247  1.00  0.00     0.008 C 
HETATM   16  C12 UNL     1      23.884   0.132  53.488  1.00  0.00     0.113 C 
HETATM   17  C13 UNL     1      22.714   0.191  52.735  1.00  0.00     0.048 C 
HETATM   18  C14 UNL     1      22.092  -0.989  53.398  1.00  0.00     0.416 C 
HETATM   19  O1  UNL     1      21.620  -2.008  54.009  1.00  0.00    -0.428 OA
HETATM   20  N4  UNL     1      21.829   0.770  51.674  1.00  0.00    -0.401 N 
HETATM   21  C15 UNL     1      21.445   2.189  51.773  1.00  0.00     0.147 C 
HETATM   22  C16 UNL     1      22.697   2.883  52.120  1.00  0.00     0.027 C 
HETATM   23  C17 UNL     1      23.793   2.471  51.456  1.00  0.00     0.189 C 
HETATM   24  H2  UNL     1      21.920   5.409  48.343  1.00  0.00     0.160 HD
HETATM   25  H10 UNL     1      21.638  -0.004  51.011  1.00  0.00     0.154 HD
ENDROOT
TORSDOF 0
ENDMDL
MODEL 8
REMARK VINA RESULT:      -7.1      4.183      6.451
REMARK  0 active torsions:
REMARK  status: ('A' for Active; 'I' for Inactive)
ROOT
HETATM    1  N1  UNL     1      21.220   8.207  49.727  1.00  0.00    -0.192 NA
HETATM    2  C1  UNL     1      21.592   7.089  49.915  1.00  0.00     0.099 C 
HETATM    3  C2  UNL     1      22.027   5.700  50.155  1.00  0.00     0.063 C 
HETATM    4  C3  UNL     1      21.308   5.009  51.078  1.00  0.00     0.104 C 
HETATM    5  N2  UNL     1      21.094   3.761  51.815  1.00  0.00    -0.383 N 
HETATM    6  C4  UNL     1      22.230   2.875  51.622  1.00  0.00     0.087 A 
HETATM    7  C5  UNL     1      22.902   3.468  52.640  1.00  0.00     0.081 A 
HETATM    8  C6  UNL     1      24.263   3.300  52.680  1.00  0.00    -0.003 A 
HETATM    9  C7  UNL     1      23.863   2.602  51.555  1.00  0.00     0.151 A 
HETATM   10  C8  UNL     1      23.119   2.031  50.556  1.00  0.00     0.098 A 
HETATM   11  C9  UNL     1      21.771   2.203  50.537  1.00  0.00     0.006 A 
HETATM   12 BR1  UNL     1      19.992   1.970  49.879  1.00  0.00    -0.057 Br
HETATM   13  N3  UNL     1      25.180   2.688  50.831  1.00  0.00    -0.063 N 
HETATM   14  C10 UNL     1      26.461   2.829  50.097  1.00  0.00     0.574 C 
HETATM   15  C11 UNL     1      26.792   3.952  49.410  1.00  0.00     0.008 C 
HETATM   16  C12 UNL     1      26.768   5.308  48.799  1.00  0.00     0.113 C 
HETATM   17  C13 UNL     1      25.653   6.119  48.993  1.00  0.00     0.048 C 
HETATM   18  C14 UNL     1      26.194   7.252  48.193  1.00  0.00     0.416 C 
HETATM   19  O1  UNL     1      26.720   8.184  47.494  1.00  0.00    -0.428 OA
HETATM   20  N4  UNL     1      24.300   6.426  49.559  1.00  0.00    -0.401 N 
HETATM   21  C15 UNL     1      23.179   5.525  49.235  1.00  0.00     0.147 C 
HETATM   22  C16 UNL     1      23.737   4.172  49.406  1.00  0.00     0.027 C 
HETATM   23  C17 UNL     1      24.521   3.999  50.486  1.00  0.00     0.189 C 
HETATM   24  H2  UNL     1      20.279   3.513  52.382  1.00  0.00     0.160 HD
HETATM   25  H10 UNL     1      24.417   7.289  50.121  1.00  0.00     0.154 HD
ENDROOT
TORSDOF 0
ENDMDL
MODEL 9
REMARK VINA RESULT:      -7.0      9.433     11.406
REMARK  0 active torsions:
REMARK  status: ('A' for Active; 'I' for Inactive)
ROOT
HETATM    1  N1  UNL     1      28.319   4.800  48.637  1.00  0.00    -0.192 NA
HETATM    2  C1  UNL     1      29.297   5.329  48.202  1.00  0.00     0.099 C 
HETATM    3  C2  UNL     1      30.514   5.959  47.658  1.00  0.00     0.063 C 
HETATM    4  C3  UNL     1      31.612   5.160  47.592  1.00  0.00     0.104 C 
HETATM    5  N2  UNL     1      33.024   5.006  47.236  1.00  0.00    -0.383 N 
HETATM    6  C4  UNL     1      33.609   6.311  46.968  1.00  0.00     0.087 A 
HETATM    7  C5  UNL     1      33.867   6.497  48.287  1.00  0.00     0.081 A 
HETATM    8  C6  UNL     1      34.077   7.784  48.713  1.00  0.00    -0.003 A 
HETATM    9  C7  UNL     1      33.838   7.905  47.356  1.00  0.00     0.151 A 
HETATM   10  C8  UNL     1      33.574   7.641  46.038  1.00  0.00     0.098 A 
HETATM   11  C9  UNL     1      33.374   6.359  45.634  1.00  0.00     0.006 A 
HETATM   12 BR1  UNL     1      33.038   4.957  44.378  1.00  0.00    -0.057 Br
HETATM   13  N3  UNL     1      33.352   9.329  47.401  1.00  0.00    -0.063 N 
HETATM   14  C10 UNL     1      32.815  10.710  47.459  1.00  0.00     0.574 C 
HETATM   15  C11 UNL     1      31.535  10.984  47.814  1.00  0.00     0.008 C 
HETATM   16  C12 UNL     1      30.113  10.856  48.236  1.00  0.00     0.113 C 
HETATM   17  C13 UNL     1      29.587   9.587  48.464  1.00  0.00     0.048 C 
HETATM   18  C14 UNL     1      28.233  10.088  48.826  1.00  0.00     0.416 C 
HETATM   19  O1  UNL     1      27.094  10.588  49.126  1.00  0.00    -0.428 OA
HETATM   20  N4  UNL     1      29.673   8.093  48.545  1.00  0.00    -0.401 N 
HETATM   21  C15 UNL     1      30.086   7.345  47.344  1.00  0.00     0.147 C 
HETATM   22  C16 UNL     1      31.236   8.103  46.820  1.00  0.00     0.027 C 
HETATM   23  C17 UNL     1      32.114   8.540  47.741  1.00  0.00     0.189 C 
HETATM   24  H2  UNL     1      33.550   4.131  47.168  1.00  0.00     0.160 HD
HETATM   25  H10 UNL     1      29.404   7.846  49.515  1.00  0.00     0.154 HD
ENDROOT
TORSDOF 0
ENDMDL
