MODEL 1
REMARK VINA RESULT:      -9.3      0.000      0.000
REMARK  7 active torsions:
REMARK  status: ('A' for Active; 'I' for Inactive)
REMARK    1  A    between atoms: C1_2  and  O2_3 
REMARK    2  A    between atoms: C1_2  and  C2_4 
REMARK    3  A    between atoms: C2_4  and  C3_5 
REMARK    4  A    between atoms: C3_5  and  C4_6 
REMARK    5  A    between atoms: C5_7  and  C6_8 
REMARK    6  A    between atoms: C5_7  and  N2_20 
REMARK    7  A    between atoms: N2_20  and  C15_21 
ROOT
HETATM    1  C4  UNL     1      25.100   1.449  53.391  1.00  0.00     0.003 C 
HETATM    2  C5  UNL     1      24.353   0.327  53.458  1.00  0.00     0.029 C 
ENDROOT
BRANCH   2   3
HETATM    3  C6  UNL     1      23.005   0.323  52.949  1.00  0.00     0.047 C 
HETATM    4  C7  UNL     1      21.944  -0.297  53.412  1.00  0.00     0.047 A 
HETATM    5  C8  UNL     1      21.735  -1.169  54.556  1.00  0.00     0.257 A 
HETATM    6  C14 UNL     1      20.605  -0.226  52.800  1.00  0.00     0.008 A 
HETATM    7  O3  UNL     1      22.604  -1.520  55.382  1.00  0.00    -0.267 OA
HETATM    8  N1  UNL     1      20.391  -1.612  54.663  1.00  0.00    -0.322 N 
HETATM    9  C9  UNL     1      19.755  -0.997  53.557  1.00  0.00     0.046 A 
HETATM   10  H8  UNL     1      19.963  -2.239  55.379  1.00  0.00     0.169 HD
HETATM   11  C10 UNL     1      18.431  -1.059  53.136  1.00  0.00     0.032 A 
HETATM   12  C11 UNL     1      17.936  -0.405  52.028  1.00  0.00     0.021 A 
HETATM   13  C12 UNL     1      18.789   0.360  51.281  1.00  0.00     0.011 A 
HETATM   14 BR1  UNL     1      18.231   1.320  49.721  1.00  0.00    -0.051 Br
HETATM   15  C13 UNL     1      20.104   0.438  51.676  1.00  0.00     0.033 A 
ENDBRANCH   2   3
BRANCH   2  16
HETATM   16  N2  UNL     1      25.110  -0.736  54.078  1.00  0.00    -0.362 N 
HETATM   17  H12 UNL     1      24.884  -1.626  54.609  1.00  0.00     0.165 HD
BRANCH  16  18
HETATM   18  C15 UNL     1      26.510  -0.428  53.891  1.00  0.00     0.003 A 
HETATM   19  C16 UNL     1      27.663   0.102  54.279  1.00  0.00     0.021 A 
HETATM   20  C17 UNL     1      29.100   0.493  54.235  1.00  0.00     0.017 C 
HETATM   21  C20 UNL     1      27.583  -0.602  52.947  1.00  0.00     0.047 A 
HETATM   22  C18 UNL     1      29.825  -0.661  53.529  1.00  0.00     0.002 C 
HETATM   23  C19 UNL     1      28.691  -1.630  53.166  1.00  0.00     0.011 C 
ENDBRANCH  16  18
ENDBRANCH   2  16
BRANCH   1  24
HETATM   24  C3  UNL     1      24.857   2.816  52.870  1.00  0.00     0.040 C 
BRANCH  24  25
HETATM   25  C2  UNL     1      25.146   2.882  51.376  1.00  0.00     0.113 C 
BRANCH  25  26
HETATM   26  C1  UNL     1      26.620   2.865  51.192  1.00  0.00     0.139 C 
HETATM   27  O1  UNL     1      26.817   2.871  49.937  1.00  0.00    -0.650 OA
BRANCH  26  28
HETATM   28  O2  UNL     1      27.782   2.846  51.942  1.00  0.00    -0.776 OA
HETATM   29  H1  UNL     1      28.149   1.940  52.225  1.00  0.00     0.167 HD
ENDBRANCH  26  28
ENDBRANCH  25  26
ENDBRANCH  24  25
ENDBRANCH   1  24
TORSDOF 7
ENDMDL
MODEL 2
REMARK VINA RESULT:      -8.9      2.569      5.764
REMARK  7 active torsions:
REMARK  status: ('A' for Active; 'I' for Inactive)
REMARK    1  A    between atoms: C1_2  and  O2_3 
REMARK    2  A    between atoms: C1_2  and  C2_4 
REMARK    3  A    between atoms: C2_4  and  C3_5 
REMARK    4  A    between atoms: C3_5  and  C4_6 
REMARK    5  A    between atoms: C5_7  and  C6_8 
REMARK    6  A    between atoms: C5_7  and  N2_20 
REMARK    7  A    between atoms: N2_20  and  C15_21 
ROOT
HETATM    1  C4  UNL     1      24.591   0.484  53.601  1.00  0.00     0.003 C 
HETATM    2  C5  UNL     1      25.078   1.725  53.386  1.00  0.00     0.029 C 
ENDROOT
BRANCH   2   3
HETATM    3  C6  UNL     1      24.406   2.616  52.474  1.00  0.00     0.047 C 
HETATM    4  C7  UNL     1      24.881   3.236  51.417  1.00  0.00     0.047 A 
HETATM    5  C8  UNL     1      26.196   3.257  50.797  1.00  0.00     0.257 A 
HETATM    6  C14 UNL     1      24.093   4.132  50.552  1.00  0.00     0.008 A 
HETATM    7  O3  UNL     1      27.205   2.634  51.190  1.00  0.00    -0.267 OA
HETATM    8  N1  UNL     1      26.241   4.088  49.647  1.00  0.00    -0.322 N 
HETATM    9  C9  UNL     1      24.921   4.590  49.556  1.00  0.00     0.046 A 
HETATM   10  H8  UNL     1      27.046   4.287  49.014  1.00  0.00     0.169 HD
HETATM   11  C10 UNL     1      24.354   5.459  48.629  1.00  0.00     0.032 A 
HETATM   12  C11 UNL     1      23.040   5.875  48.654  1.00  0.00     0.021 A 
HETATM   13  C12 UNL     1      22.224   5.414  49.650  1.00  0.00     0.011 A 
HETATM   14 BR1  UNL     1      20.381   5.911  49.800  1.00  0.00    -0.051 Br
HETATM   15  C13 UNL     1      22.759   4.553  50.579  1.00  0.00     0.033 A 
ENDBRANCH   2   3
BRANCH   2  16
HETATM   16  N2  UNL     1      26.270   1.934  54.172  1.00  0.00    -0.362 N 
HETATM   17  H12 UNL     1      26.644   2.697  54.807  1.00  0.00     0.165 HD
BRANCH  16  18
HETATM   18  C15 UNL     1      27.113   0.774  53.986  1.00  0.00     0.003 A 
HETATM   19  C16 UNL     1      27.469  -0.336  53.351  1.00  0.00     0.021 A 
HETATM   20  C17 UNL     1      28.241  -1.569  53.029  1.00  0.00     0.017 C 
HETATM   21  C20 UNL     1      28.260   0.115  54.554  1.00  0.00     0.047 A 
HETATM   22  C18 UNL     1      29.704  -1.239  53.350  1.00  0.00     0.002 C 
HETATM   23  C19 UNL     1      29.639   0.193  53.901  1.00  0.00     0.011 C 
ENDBRANCH  16  18
ENDBRANCH   2  16
BRANCH   1  24
HETATM   24  C3  UNL     1      23.422  -0.266  53.084  1.00  0.00     0.040 C 
BRANCH  24  25
HETATM   25  C2  UNL     1      22.244  -0.156  54.044  1.00  0.00     0.113 C 
BRANCH  25  26
HETATM   26  C1  UNL     1      22.335  -1.280  55.012  1.00  0.00     0.139 C 
HETATM   27  O1  UNL     1      21.248  -1.926  54.902  1.00  0.00    -0.650 OA
BRANCH  26  28
HETATM   28  O2  UNL     1      23.207  -1.803  55.950  1.00  0.00    -0.776 OA
HETATM   29  H1  UNL     1      23.205  -1.391  56.881  1.00  0.00     0.167 HD
ENDBRANCH  26  28
ENDBRANCH  25  26
ENDBRANCH  24  25
ENDBRANCH   1  24
TORSDOF 7
ENDMDL
MODEL 3
REMARK VINA RESULT:      -8.9      3.284      6.994
REMARK  7 active torsions:
REMARK  status: ('A' for Active; 'I' for Inactive)
REMARK    1  A    between atoms: C1_2  and  O2_3 
REMARK    2  A    between atoms: C1_2  and  C2_4 
REMARK    3  A    between atoms: C2_4  and  C3_5 
REMARK    4  A    between atoms: C3_5  and  C4_6 
REMARK    5  A    between atoms: C5_7  and  C6_8 
REMARK    6  A    between atoms: C5_7  and  N2_20 
REMARK    7  A    between atoms: N2_20  and  C15_21 
ROOT
HETATM    1  C4  UNL     1      21.731   1.303  52.215  1.00  0.00     0.003 C 
HETATM    2  C5  UNL     1      22.803   1.277  51.394  1.00  0.00     0.029 C 
ENDROOT
BRANCH   2   3
HETATM    3  C6  UNL     1      24.065   0.769  51.867  1.00  0.00     0.047 C 
HETATM    4  C7  UNL     1      24.962   1.350  52.631  1.00  0.00     0.047 A 
HETATM    5  C8  UNL     1      25.019   2.662  53.258  1.00  0.00     0.257 A 
HETATM    6  C14 UNL     1      26.228   0.726  53.054  1.00  0.00     0.008 A 
HETATM    7  O3  UNL     1      24.148   3.553  53.177  1.00  0.00    -0.267 OA
HETATM    8  N1  UNL     1      26.208   2.854  54.008  1.00  0.00    -0.322 N 
HETATM    9  C9  UNL     1      26.901   1.631  53.839  1.00  0.00     0.046 A 
HETATM   10  H8  UNL     1      26.510   3.690  54.555  1.00  0.00     0.169 HD
HETATM   11  C10 UNL     1      28.133   1.222  54.340  1.00  0.00     0.032 A 
HETATM   12  C11 UNL     1      28.702  -0.010  54.098  1.00  0.00     0.021 A 
HETATM   13  C12 UNL     1      28.024  -0.904  53.314  1.00  0.00     0.011 A 
HETATM   14 BR1  UNL     1      28.699  -2.647  52.900  1.00  0.00    -0.051 Br
HETATM   15  C13 UNL     1      26.804  -0.524  52.806  1.00  0.00     0.033 A 
ENDBRANCH   2   3
BRANCH   2  16
HETATM   16  N2  UNL     1      22.447   1.808  50.099  1.00  0.00    -0.362 N 
HETATM   17  H12 UNL     1      21.724   1.588  49.354  1.00  0.00     0.165 HD
BRANCH  16  18
HETATM   18  C15 UNL     1      23.353   2.900  49.822  1.00  0.00     0.003 A 
HETATM   19  C16 UNL     1      23.778   4.148  49.975  1.00  0.00     0.021 A 
HETATM   20  C17 UNL     1      24.620   5.365  49.794  1.00  0.00     0.017 C 
HETATM   21  C20 UNL     1      24.523   3.222  49.046  1.00  0.00     0.047 A 
HETATM   22  C18 UNL     1      26.057   4.855  49.632  1.00  0.00     0.002 C 
HETATM   23  C19 UNL     1      25.907   3.328  49.682  1.00  0.00     0.011 C 
ENDBRANCH  16  18
ENDBRANCH   2  16
BRANCH   1  24
HETATM   24  C3  UNL     1      21.505   0.896  53.622  1.00  0.00     0.040 C 
BRANCH  24  25
HETATM   25  C2  UNL     1      21.259  -0.605  53.716  1.00  0.00     0.113 C 
BRANCH  25  26
HETATM   26  C1  UNL     1      22.329  -1.194  54.562  1.00  0.00     0.139 C 
HETATM   27  O1  UNL     1      21.791  -2.159  55.187  1.00  0.00    -0.650 OA
BRANCH  26  28
HETATM   28  O2  UNL     1      23.669  -1.012  54.856  1.00  0.00    -0.776 OA
HETATM   29  H1  UNL     1      24.070  -1.573  55.604  1.00  0.00     0.167 HD
ENDBRANCH  26  28
ENDBRANCH  25  26
ENDBRANCH  24  25
ENDBRANCH   1  24
TORSDOF 7
ENDMDL
MODEL 4
REMARK VINA RESULT:      -8.8      1.491      1.959
REMARK  7 active torsions:
REMARK  status: ('A' for Active; 'I' for Inactive)
REMARK    1  A    between atoms: C1_2  and  O2_3 
REMARK    2  A    between atoms: C1_2  and  C2_4 
REMARK    3  A    between atoms: C2_4  and  C3_5 
REMARK    4  A    between atoms: C3_5  and  C4_6 
REMARK    5  A    between atoms: C5_7  and  C6_8 
REMARK    6  A    between atoms: C5_7  and  N2_20 
REMARK    7  A    between atoms: N2_20  and  C15_21 
ROOT
HETATM    1  C4  UNL     1      25.892   2.386  52.025  1.00  0.00     0.003 C 
HETATM    2  C5  UNL     1      25.313   1.721  53.048  1.00  0.00     0.029 C 
ENDROOT
BRANCH   2   3
HETATM    3  C6  UNL     1      23.942   1.288  52.945  1.00  0.00     0.047 C 
HETATM    4  C7  UNL     1      23.330   0.311  53.575  1.00  0.00     0.047 A 
HETATM    5  C8  UNL     1      23.778  -0.656  54.564  1.00  0.00     0.257 A 
HETATM    6  C14 UNL     1      21.911  -0.042  53.386  1.00  0.00     0.008 A 
HETATM    7  O3  UNL     1      24.930  -0.741  55.039  1.00  0.00    -0.267 OA
HETATM    8  N1  UNL     1      22.744  -1.540  54.967  1.00  0.00    -0.322 N 
HETATM    9  C9  UNL     1      21.630  -1.107  54.208  1.00  0.00     0.046 A 
HETATM   10  H8  UNL     1      22.783  -2.323  55.656  1.00  0.00     0.169 HD
HETATM   11  C10 UNL     1      20.327  -1.591  54.172  1.00  0.00     0.032 A 
HETATM   12  C11 UNL     1      19.326  -1.074  53.378  1.00  0.00     0.021 A 
HETATM   13  C12 UNL     1      19.615  -0.014  52.564  1.00  0.00     0.011 A 
HETATM   14 BR1  UNL     1      18.319   0.800  51.413  1.00  0.00    -0.051 Br
HETATM   15  C13 UNL     1      20.897   0.484  52.580  1.00  0.00     0.033 A 
ENDBRANCH   2   3
BRANCH   2  16
HETATM   16  N2  UNL     1      26.254   1.561  54.131  1.00  0.00    -0.362 N 
HETATM   17  H12 UNL     1      26.375   1.966  55.104  1.00  0.00     0.165 HD
BRANCH  16  18
HETATM   18  C15 UNL     1      27.245   0.603  53.698  1.00  0.00     0.003 A 
HETATM   19  C16 UNL     1      28.410  -0.023  53.814  1.00  0.00     0.021 A 
HETATM   20  C17 UNL     1      29.523  -0.962  53.498  1.00  0.00     0.017 C 
HETATM   21  C20 UNL     1      27.492  -0.373  52.669  1.00  0.00     0.047 A 
HETATM   22  C18 UNL     1      28.857  -2.226  52.940  1.00  0.00     0.002 C 
HETATM   23  C19 UNL     1      27.363  -1.872  52.932  1.00  0.00     0.011 C 
ENDBRANCH  16  18
ENDBRANCH   2  16
BRANCH   1  24
HETATM   24  C3  UNL     1      25.425   2.824  50.689  1.00  0.00     0.040 C 
BRANCH  24  25
HETATM   25  C2  UNL     1      26.595   2.939  49.720  1.00  0.00     0.113 C 
BRANCH  25  26
HETATM   26  C1  UNL     1      26.896   4.382  49.533  1.00  0.00     0.139 C 
HETATM   27  O1  UNL     1      27.800   4.440  48.644  1.00  0.00    -0.650 OA
BRANCH  26  28
HETATM   28  O2  UNL     1      26.505   5.618  50.016  1.00  0.00    -0.776 OA
HETATM   29  H1  UNL     1      26.404   5.723  51.023  1.00  0.00     0.167 HD
ENDBRANCH  26  28
ENDBRANCH  25  26
ENDBRANCH  24  25
ENDBRANCH   1  24
TORSDOF 7
ENDMDL
MODEL 5
REMARK VINA RESULT:      -8.7      3.082      5.394
REMARK  7 active torsions:
REMARK  status: ('A' for Active; 'I' for Inactive)
REMARK    1  A    between atoms: C1_2  and  O2_3 
REMARK    2  A    between atoms: C1_2  and  C2_4 
REMARK    3  A    between atoms: C2_4  and  C3_5 
REMARK    4  A    between atoms: C3_5  and  C4_6 
REMARK    5  A    between atoms: C5_7  and  C6_8 
REMARK    6  A    between atoms: C5_7  and  N2_20 
REMARK    7  A    between atoms: N2_20  and  C15_21 
ROOT
HETATM    1  C4  UNL     1      24.388   0.782  53.429  1.00  0.00     0.003 C 
HETATM    2  C5  UNL     1      24.811   1.965  52.936  1.00  0.00     0.029 C 
ENDROOT
BRANCH   2   3
HETATM    3  C6  UNL     1      24.181   2.530  51.769  1.00  0.00     0.047 C 
HETATM    4  C7  UNL     1      23.623   3.708  51.614  1.00  0.00     0.047 A 
HETATM    5  C8  UNL     1      23.436   4.835  52.516  1.00  0.00     0.257 A 
HETATM    6  C14 UNL     1      23.005   4.180  50.363  1.00  0.00     0.008 A 
HETATM    7  O3  UNL     1      23.806   4.892  53.707  1.00  0.00    -0.267 OA
HETATM    8  N1  UNL     1      22.763   5.919  51.896  1.00  0.00    -0.322 N 
HETATM    9  C9  UNL     1      22.529   5.451  50.581  1.00  0.00     0.046 A 
HETATM   10  H8  UNL     1      22.499   6.844  52.301  1.00  0.00     0.169 HD
HETATM   11  C10 UNL     1      21.904   6.072  49.505  1.00  0.00     0.032 A 
HETATM   12  C11 UNL     1      21.740   5.499  48.262  1.00  0.00     0.021 A 
HETATM   13  C12 UNL     1      22.216   4.233  48.055  1.00  0.00     0.011 A 
HETATM   14 BR1  UNL     1      22.055   3.321  46.379  1.00  0.00    -0.051 Br
HETATM   15  C13 UNL     1      22.838   3.596  49.103  1.00  0.00     0.033 A 
ENDBRANCH   2   3
BRANCH   2  16
HETATM   16  N2  UNL     1      25.899   2.475  53.737  1.00  0.00    -0.362 N 
HETATM   17  H12 UNL     1      26.047   3.297  54.392  1.00  0.00     0.165 HD
BRANCH  16  18
HETATM   18  C15 UNL     1      27.028   1.596  53.533  1.00  0.00     0.003 A 
HETATM   19  C16 UNL     1      28.215   1.104  53.866  1.00  0.00     0.021 A 
HETATM   20  C17 UNL     1      29.445   0.265  53.793  1.00  0.00     0.017 C 
HETATM   21  C20 UNL     1      27.513   0.577  52.639  1.00  0.00     0.047 A 
HETATM   22  C18 UNL     1      28.987  -1.099  53.261  1.00  0.00     0.002 C 
HETATM   23  C19 UNL     1      27.485  -0.903  53.012  1.00  0.00     0.011 C 
ENDBRANCH  16  18
ENDBRANCH   2  16
BRANCH   1  24
HETATM   24  C3  UNL     1      23.330  -0.178  53.032  1.00  0.00     0.040 C 
BRANCH  24  25
HETATM   25  C2  UNL     1      22.142  -0.095  53.981  1.00  0.00     0.113 C 
BRANCH  25  26
HETATM   26  C1  UNL     1      22.253  -1.211  54.955  1.00  0.00     0.139 C 
HETATM   27  O1  UNL     1      21.152  -1.840  54.895  1.00  0.00    -0.650 OA
BRANCH  26  28
HETATM   28  O2  UNL     1      23.154  -1.742  55.861  1.00  0.00    -0.776 OA
HETATM   29  H1  UNL     1      22.845  -1.855  56.825  1.00  0.00     0.167 HD
ENDBRANCH  26  28
ENDBRANCH  25  26
ENDBRANCH  24  25
ENDBRANCH   1  24
TORSDOF 7
ENDMDL
MODEL 6
REMARK VINA RESULT:      -8.6      3.114      6.344
REMARK  7 active torsions:
REMARK  status: ('A' for Active; 'I' for Inactive)
REMARK    1  A    between atoms: C1_2  and  O2_3 
REMARK    2  A    between atoms: C1_2  and  C2_4 
REMARK    3  A    between atoms: C2_4  and  C3_5 
REMARK    4  A    between atoms: C3_5  and  C4_6 
REMARK    5  A    between atoms: C5_7  and  C6_8 
REMARK    6  A    between atoms: C5_7  and  N2_20 
REMARK    7  A    between atoms: N2_20  and  C15_21 
ROOT
HETATM    1  C4  UNL     1      22.824   2.715  50.113  1.00  0.00     0.003 C 
HETATM    2  C5  UNL     1      22.726   1.878  51.168  1.00  0.00     0.029 C 
ENDROOT
BRANCH   2   3
HETATM    3  C6  UNL     1      23.898   1.206  51.670  1.00  0.00     0.047 C 
HETATM    4  C7  UNL     1      24.795   1.631  52.530  1.00  0.00     0.047 A 
HETATM    5  C8  UNL     1      24.940   2.877  53.266  1.00  0.00     0.257 A 
HETATM    6  C14 UNL     1      25.962   0.848  52.972  1.00  0.00     0.008 A 
HETATM    7  O3  UNL     1      24.169   3.858  53.209  1.00  0.00    -0.267 OA
HETATM    8  N1  UNL     1      26.090   2.886  54.097  1.00  0.00    -0.322 N 
HETATM    9  C9  UNL     1      26.669   1.615  53.868  1.00  0.00     0.046 A 
HETATM   10  H8  UNL     1      26.436   3.642  54.728  1.00  0.00     0.169 HD
HETATM   11  C10 UNL     1      27.818   1.043  54.403  1.00  0.00     0.032 A 
HETATM   12  C11 UNL     1      28.277  -0.219  54.093  1.00  0.00     0.021 A 
HETATM   13  C12 UNL     1      27.568  -0.975  53.200  1.00  0.00     0.011 A 
HETATM   14 BR1  UNL     1      28.092  -2.742  52.683  1.00  0.00    -0.051 Br
HETATM   15  C13 UNL     1      26.427  -0.433  52.656  1.00  0.00     0.033 A 
ENDBRANCH   2   3
BRANCH   2  16
HETATM   16  N2  UNL     1      21.357   1.812  51.623  1.00  0.00    -0.362 N 
HETATM   17  H12 UNL     1      20.457   2.337  51.419  1.00  0.00     0.165 HD
BRANCH  16  18
HETATM   18  C15 UNL     1      21.282   0.750  52.601  1.00  0.00     0.003 A 
HETATM   19  C16 UNL     1      21.038  -0.503  52.965  1.00  0.00     0.021 A 
HETATM   20  C17 UNL     1      20.911  -1.696  53.848  1.00  0.00     0.017 C 
HETATM   21  C20 UNL     1      21.495   0.493  54.001  1.00  0.00     0.047 A 
HETATM   22  C18 UNL     1      22.049  -1.582  54.869  1.00  0.00     0.002 C 
HETATM   23  C19 UNL     1      22.728  -0.254  54.505  1.00  0.00     0.011 C 
ENDBRANCH  16  18
ENDBRANCH   2  16
BRANCH   1  24
HETATM   24  C3  UNL     1      23.949   3.162  49.258  1.00  0.00     0.040 C 
BRANCH  24  25
HETATM   25  C2  UNL     1      24.558   4.450  49.798  1.00  0.00     0.113 C 
BRANCH  25  26
HETATM   26  C1  UNL     1      26.031   4.270  49.860  1.00  0.00     0.139 C 
HETATM   27  O1  UNL     1      26.508   4.947  48.898  1.00  0.00    -0.650 OA
BRANCH  26  28
HETATM   28  O2  UNL     1      26.988   3.618  50.617  1.00  0.00    -0.776 OA
HETATM   29  H1  UNL     1      27.746   4.176  51.005  1.00  0.00     0.167 HD
ENDBRANCH  26  28
ENDBRANCH  25  26
ENDBRANCH  24  25
ENDBRANCH   1  24
TORSDOF 7
ENDMDL
MODEL 7
REMARK VINA RESULT:      -8.5      2.973      3.742
REMARK  7 active torsions:
REMARK  status: ('A' for Active; 'I' for Inactive)
REMARK    1  A    between atoms: C1_2  and  O2_3 
REMARK    2  A    between atoms: C1_2  and  C2_4 
REMARK    3  A    between atoms: C2_4  and  C3_5 
REMARK    4  A    between atoms: C3_5  and  C4_6 
REMARK    5  A    between atoms: C5_7  and  C6_8 
REMARK    6  A    between atoms: C5_7  and  N2_20 
REMARK    7  A    between atoms: N2_20  and  C15_21 
ROOT
HETATM    1  C4  UNL     1      26.161   2.767  51.399  1.00  0.00     0.003 C 
HETATM    2  C5  UNL     1      25.405   2.491  52.483  1.00  0.00     0.029 C 
ENDROOT
BRANCH   2   3
HETATM    3  C6  UNL     1      23.989   2.262  52.338  1.00  0.00     0.047 C 
HETATM    4  C7  UNL     1      23.023   3.130  52.139  1.00  0.00     0.047 A 
HETATM    5  C8  UNL     1      23.015   4.578  51.996  1.00  0.00     0.257 A 
HETATM    6  C14 UNL     1      21.599   2.776  52.006  1.00  0.00     0.008 A 
HETATM    7  O3  UNL     1      24.013   5.326  52.040  1.00  0.00    -0.267 OA
HETATM    8  N1  UNL     1      21.709   5.095  51.792  1.00  0.00    -0.322 N 
HETATM    9  C9  UNL     1      20.893   3.938  51.809  1.00  0.00     0.046 A 
HETATM   10  H8  UNL     1      21.411   6.086  51.660  1.00  0.00     0.169 HD
HETATM   11  C10 UNL     1      19.516   3.810  51.660  1.00  0.00     0.032 A 
HETATM   12  C11 UNL     1      18.837   2.611  51.697  1.00  0.00     0.021 A 
HETATM   13  C12 UNL     1      19.548   1.459  51.894  1.00  0.00     0.011 A 
HETATM   14 BR1  UNL     1      18.731  -0.270  51.966  1.00  0.00    -0.051 Br
HETATM   15  C13 UNL     1      20.912   1.558  52.045  1.00  0.00     0.033 A 
ENDBRANCH   2   3
BRANCH   2  16
HETATM   16  N2  UNL     1      26.226   2.479  53.671  1.00  0.00    -0.362 N 
HETATM   17  H12 UNL     1      26.407   3.139  54.482  1.00  0.00     0.165 HD
BRANCH  16  18
HETATM   18  C15 UNL     1      26.955   1.231  53.674  1.00  0.00     0.003 A 
HETATM   19  C16 UNL     1      27.220   0.019  53.203  1.00  0.00     0.021 A 
HETATM   20  C17 UNL     1      27.876  -1.313  53.077  1.00  0.00     0.017 C 
HETATM   21  C20 UNL     1      28.008   0.546  54.376  1.00  0.00     0.047 A 
HETATM   22  C18 UNL     1      29.352  -1.084  53.425  1.00  0.00     0.002 C 
HETATM   23  C19 UNL     1      29.411   0.407  53.787  1.00  0.00     0.011 C 
ENDBRANCH  16  18
ENDBRANCH   2  16
BRANCH   1  24
HETATM   24  C3  UNL     1      25.872   2.905  49.952  1.00  0.00     0.040 C 
BRANCH  24  25
HETATM   25  C2  UNL     1      26.748   3.984  49.328  1.00  0.00     0.113 C 
BRANCH  25  26
HETATM   26  C1  UNL     1      26.081   5.296  49.538  1.00  0.00     0.139 C 
HETATM   27  O1  UNL     1      25.063   5.297  48.780  1.00  0.00    -0.650 OA
BRANCH  26  28
HETATM   28  O2  UNL     1      26.232   6.455  50.277  1.00  0.00    -0.776 OA
HETATM   29  H1  UNL     1      25.646   7.252  50.034  1.00  0.00     0.167 HD
ENDBRANCH  26  28
ENDBRANCH  25  26
ENDBRANCH  24  25
ENDBRANCH   1  24
TORSDOF 7
ENDMDL
MODEL 8
REMARK VINA RESULT:      -8.3      3.985      7.175
REMARK  7 active torsions:
REMARK  status: ('A' for Active; 'I' for Inactive)
REMARK    1  A    between atoms: C1_2  and  O2_3 
REMARK    2  A    between atoms: C1_2  and  C2_4 
REMARK    3  A    between atoms: C2_4  and  C3_5 
REMARK    4  A    between atoms: C3_5  and  C4_6 
REMARK    5  A    between atoms: C5_7  and  C6_8 
REMARK    6  A    between atoms: C5_7  and  N2_20 
REMARK    7  A    between atoms: N2_20  and  C15_21 
ROOT
HETATM    1  C4  UNL     1      25.121   1.232  51.826  1.00  0.00     0.003 C 
HETATM    2  C5  UNL     1      24.352   2.125  51.168  1.00  0.00     0.029 C 
ENDROOT
BRANCH   2   3
HETATM    3  C6  UNL     1      24.938   3.326  50.629  1.00  0.00     0.047 C 
HETATM    4  C7  UNL     1      24.599   4.579  50.829  1.00  0.00     0.047 A 
HETATM    5  C8  UNL     1      23.555   5.200  51.630  1.00  0.00     0.257 A 
HETATM    6  C14 UNL     1      25.278   5.734  50.217  1.00  0.00     0.008 A 
HETATM    7  O3  UNL     1      22.717   4.602  52.337  1.00  0.00    -0.267 OA
HETATM    8  N1  UNL     1      23.570   6.616  51.536  1.00  0.00    -0.322 N 
HETATM    9  C9  UNL     1      24.648   6.874  50.657  1.00  0.00     0.046 A 
HETATM   10  H8  UNL     1      22.942   7.309  52.000  1.00  0.00     0.169 HD
HETATM   11  C10 UNL     1      25.150   8.082  50.184  1.00  0.00     0.032 A 
HETATM   12  C11 UNL     1      26.218   8.197  49.320  1.00  0.00     0.021 A 
HETATM   13  C12 UNL     1      26.838   7.057  48.888  1.00  0.00     0.011 A 
HETATM   14 BR1  UNL     1      28.332   7.074  47.690  1.00  0.00    -0.051 Br
HETATM   15  C13 UNL     1      26.362   5.849  49.340  1.00  0.00     0.033 A 
ENDBRANCH   2   3
BRANCH   2  16
HETATM   16  N2  UNL     1      22.982   1.668  51.130  1.00  0.00    -0.362 N 
HETATM   17  H12 UNL     1      22.124   1.870  50.539  1.00  0.00     0.165 HD
BRANCH  16  18
HETATM   18  C15 UNL     1      22.823   0.706  52.198  1.00  0.00     0.003 A 
HETATM   19  C16 UNL     1      23.188   0.146  53.344  1.00  0.00     0.021 A 
HETATM   20  C17 UNL     1      23.161  -0.778  54.513  1.00  0.00     0.017 C 
HETATM   21  C20 UNL     1      21.969  -0.372  52.622  1.00  0.00     0.047 A 
HETATM   22  C18 UNL     1      21.677  -1.001  54.833  1.00  0.00     0.002 C 
HETATM   23  C19 UNL     1      20.949  -0.198  53.745  1.00  0.00     0.011 C 
ENDBRANCH  16  18
ENDBRANCH   2  16
BRANCH   1  24
HETATM   24  C3  UNL     1      26.562   1.169  52.166  1.00  0.00     0.040 C 
BRANCH  24  25
HETATM   25  C2  UNL     1      26.810   1.716  53.566  1.00  0.00     0.113 C 
BRANCH  25  26
HETATM   26  C1  UNL     1      28.216   2.193  53.631  1.00  0.00     0.139 C 
HETATM   27  O1  UNL     1      28.707   1.694  54.689  1.00  0.00    -0.650 OA
BRANCH  26  28
HETATM   28  O2  UNL     1      29.102   2.978  52.916  1.00  0.00    -0.776 OA
HETATM   29  H1  UNL     1      29.438   2.622  52.024  1.00  0.00     0.167 HD
ENDBRANCH  26  28
ENDBRANCH  25  26
ENDBRANCH  24  25
ENDBRANCH   1  24
TORSDOF 7
ENDMDL
MODEL 9
REMARK VINA RESULT:      -8.1      4.440      6.864
REMARK  7 active torsions:
REMARK  status: ('A' for Active; 'I' for Inactive)
REMARK    1  A    between atoms: C1_2  and  O2_3 
REMARK    2  A    between atoms: C1_2  and  C2_4 
REMARK    3  A    between atoms: C2_4  and  C3_5 
REMARK    4  A    between atoms: C3_5  and  C4_6 
REMARK    5  A    between atoms: C5_7  and  C6_8 
REMARK    6  A    between atoms: C5_7  and  N2_20 
REMARK    7  A    between atoms: N2_20  and  C15_21 
ROOT
HETATM    1  C4  UNL     1      23.387   3.844  48.531  1.00  0.00     0.003 C 
HETATM    2  C5  UNL     1      24.191   4.123  49.579  1.00  0.00     0.029 C 
ENDROOT
BRANCH   2   3
HETATM    3  C6  UNL     1      24.667   3.061  50.429  1.00  0.00     0.047 C 
HETATM    4  C7  UNL     1      24.025   2.390  51.359  1.00  0.00     0.047 A 
HETATM    5  C8  UNL     1      22.661   2.461  51.859  1.00  0.00     0.257 A 
HETATM    6  C14 UNL     1      24.620   1.316  52.172  1.00  0.00     0.008 A 
HETATM    7  O3  UNL     1      21.771   3.242  51.460  1.00  0.00    -0.267 OA
HETATM    8  N1  UNL     1      22.412   1.521  52.892  1.00  0.00    -0.322 N 
HETATM    9  C9  UNL     1      23.653   0.854  53.032  1.00  0.00     0.046 A 
HETATM   10  H8  UNL     1      21.532   1.353  53.426  1.00  0.00     0.169 HD
HETATM   11  C10 UNL     1      24.026  -0.174  53.892  1.00  0.00     0.032 A 
HETATM   12  C11 UNL     1      25.282  -0.741  53.928  1.00  0.00     0.021 A 
HETATM   13  C12 UNL     1      26.238  -0.275  53.068  1.00  0.00     0.011 A 
HETATM   14 BR1  UNL     1      28.020  -0.974  53.013  1.00  0.00    -0.051 Br
HETATM   15  C13 UNL     1      25.895   0.741  52.207  1.00  0.00     0.033 A 
ENDBRANCH   2   3
BRANCH   2  16
HETATM   16  N2  UNL     1      24.438   5.544  49.651  1.00  0.00    -0.362 N 
HETATM   17  H12 UNL     1      23.872   6.407  49.901  1.00  0.00     0.165 HD
BRANCH  16  18
HETATM   18  C15 UNL     1      25.813   5.760  49.262  1.00  0.00     0.003 A 
HETATM   19  C16 UNL     1      26.998   5.340  48.837  1.00  0.00     0.021 A 
HETATM   20  C17 UNL     1      28.425   5.398  48.409  1.00  0.00     0.017 C 
HETATM   21  C20 UNL     1      26.790   6.807  49.119  1.00  0.00     0.047 A 
HETATM   22  C18 UNL     1      28.577   6.720  47.647  1.00  0.00     0.002 C 
HETATM   23  C19 UNL     1      27.185   7.359  47.750  1.00  0.00     0.011 C 
ENDBRANCH  16  18
ENDBRANCH   2  16
BRANCH   1  24
HETATM   24  C3  UNL     1      22.814   2.594  47.979  1.00  0.00     0.040 C 
BRANCH  24  25
HETATM   25  C2  UNL     1      21.307   2.725  47.800  1.00  0.00     0.113 C 
BRANCH  25  26
HETATM   26  C1  UNL     1      20.653   1.682  48.632  1.00  0.00     0.139 C 
HETATM   27  O1  UNL     1      21.540   0.801  48.852  1.00  0.00    -0.650 OA
BRANCH  26  28
HETATM   28  O2  UNL     1      19.428   1.401  49.209  1.00  0.00    -0.776 OA
HETATM   29  H1  UNL     1      19.181   0.422  49.344  1.00  0.00     0.167 HD
ENDBRANCH  26  28
ENDBRANCH  25  26
ENDBRANCH  24  25
ENDBRANCH   1  24
TORSDOF 7
ENDMDL
