MODEL 1
REMARK VINA RESULT:      -7.6      0.000      0.000
REMARK  5 active torsions:
REMARK  status: ('A' for Active; 'I' for Inactive)
REMARK    1  A    between atoms: C2_2  and  O1_3 
REMARK    2  A    between atoms: O1_3  and  N1_4 
REMARK    3  A    between atoms: C9_16  and  N6_17 
REMARK    4  A    between atoms: N6_17  and  C10_18 
REMARK    5  A    between atoms: C10_18  and  C11_19 
ROOT
HETATM    1  N1  UNL     1      21.897   0.808  52.832  1.00  0.00    -0.191 NA
HETATM    2  C3  UNL     1      21.976   1.515  51.574  1.00  0.00     0.151 C 
HETATM    3  C4  UNL     1      21.373   0.737  50.445  1.00  0.00     0.286 C 
HETATM    4  N2  UNL     1      21.284   1.436  49.213  1.00  0.00     0.088 N 
HETATM    5  C5  UNL     1      22.557   1.766  48.674  1.00  0.00     0.301 C 
HETATM    6  P1  UNL     1      23.176   3.403  49.219  1.00  0.00    -0.082 P 
HETATM    7  C6  UNL     1      24.860   3.405  49.970  1.00  0.00     0.148 C 
HETATM    8  N3  UNL     1      24.949   4.653  50.723  1.00  0.00    -0.399 N 
HETATM    9  C7  UNL     1      23.945   5.010  51.650  1.00  0.00     0.196 A 
HETATM   10  C8  UNL     1      23.296   4.836  52.787  1.00  0.00     0.145 A 
HETATM   11  N4  UNL     1      24.275   3.823  52.773  1.00  0.00    -0.172 NA
HETATM   12  N5  UNL     1      24.250   2.828  53.601  1.00  0.00    -0.178 NA
HETATM   13  C9  UNL     1      25.338   1.916  53.411  1.00  0.00     0.149 C 
HETATM   14  C14 UNL     1      25.130   0.627  53.084  1.00  0.00     0.025 A 
HETATM   15  C15 UNL     1      25.365  -0.770  52.744  1.00  0.00    -0.039 A 
HETATM   16  C16 UNL     1      26.421  -1.825  52.463  1.00  0.00     0.050 C 
HETATM   17  C17 UNL     1      24.106  -0.251  52.904  1.00  0.00    -0.021 A 
HETATM   18  C18 UNL     1      22.650  -0.399  52.910  1.00  0.00     0.160 C 
HETATM   19  H10 UNL     1      20.624   2.237  49.253  1.00  0.00     0.316 HD
HETATM   20  H13 UNL     1      22.211   4.116  50.054  1.00  0.00     0.060 HD
HETATM   21  H16 UNL     1      25.791   5.282  50.563  1.00  0.00     0.155 HD
ENDROOT
BRANCH  13  22
HETATM   22  N6  UNL     1      26.540   2.636  53.642  1.00  0.00    -0.370 N 
HETATM   23  H19 UNL     1      26.717   3.171  54.520  1.00  0.00     0.161 HD
BRANCH  22  24
HETATM   24  C10 UNL     1      27.439   2.497  52.487  1.00  0.00     0.150 C 
BRANCH  24  25
HETATM   25  C11 UNL     1      28.454   1.482  52.859  1.00  0.00     0.011 C 
HETATM   26  C12 UNL     1      28.827   0.560  53.740  1.00  0.00     0.005 C 
HETATM   27  C13 UNL     1      30.059  -0.311  53.698  1.00  0.00     0.061 C 
HETATM   28 CL1  UNL     1      27.994   0.078  55.223  1.00  0.00    -0.090 Cl
ENDBRANCH  24  25
ENDBRANCH  22  24
ENDBRANCH  13  22
BRANCH   1  29
HETATM   29  O1  UNL     1      20.615   0.670  53.154  1.00  0.00    -0.304 OA
BRANCH  29  30
HETATM   30  C2  UNL     1      20.286  -0.526  53.744  1.00  0.00     0.189 C 
HETATM   31  C1  UNL     1      18.904  -0.899  53.217  1.00  0.00     0.035 C 
ENDBRANCH  29  30
ENDBRANCH   1  29
TORSDOF 5
ENDMDL
MODEL 2
REMARK VINA RESULT:      -6.8      2.096      2.448
REMARK  5 active torsions:
REMARK  status: ('A' for Active; 'I' for Inactive)
REMARK    1  A    between atoms: C2_2  and  O1_3 
REMARK    2  A    between atoms: O1_3  and  N1_4 
REMARK    3  A    between atoms: C9_16  and  N6_17 
REMARK    4  A    between atoms: N6_17  and  C10_18 
REMARK    5  A    between atoms: C10_18  and  C11_19 
ROOT
HETATM    1  N1  UNL     1      20.245   2.544  52.140  1.00  0.00    -0.191 NA
HETATM    2  C3  UNL     1      20.625   2.662  50.751  1.00  0.00     0.151 C 
HETATM    3  C4  UNL     1      19.889   1.695  49.875  1.00  0.00     0.286 C 
HETATM    4  N2  UNL     1      20.104   1.861  48.482  1.00  0.00     0.088 N 
HETATM    5  C5  UNL     1      21.450   1.614  48.099  1.00  0.00     0.301 C 
HETATM    6  P1  UNL     1      22.506   3.111  48.141  1.00  0.00    -0.082 P 
HETATM    7  C6  UNL     1      24.053   2.964  49.133  1.00  0.00     0.148 C 
HETATM    8  N3  UNL     1      24.472   4.337  49.406  1.00  0.00    -0.399 N 
HETATM    9  C7  UNL     1      23.566   5.272  49.955  1.00  0.00     0.196 A 
HETATM   10  C8  UNL     1      22.820   5.727  50.945  1.00  0.00     0.145 A 
HETATM   11  N4  UNL     1      23.437   4.569  51.461  1.00  0.00    -0.172 NA
HETATM   12  N5  UNL     1      23.049   4.015  52.566  1.00  0.00    -0.178 NA
HETATM   13  C9  UNL     1      23.813   2.851  52.903  1.00  0.00     0.149 C 
HETATM   14  C14 UNL     1      23.240   1.639  53.015  1.00  0.00     0.025 A 
HETATM   15  C15 UNL     1      23.054   0.210  53.232  1.00  0.00    -0.039 A 
HETATM   16  C16 UNL     1      23.749  -1.107  53.530  1.00  0.00     0.050 C 
HETATM   17  C17 UNL     1      22.010   1.059  52.972  1.00  0.00    -0.021 A 
HETATM   18  C18 UNL     1      20.582   1.310  52.768  1.00  0.00     0.160 C 
HETATM   19  H10 UNL     1      19.723   2.757  48.121  1.00  0.00     0.316 HD
HETATM   20  H13 UNL     1      21.754   4.316  48.487  1.00  0.00     0.060 HD
HETATM   21  H16 UNL     1      25.476   4.612  49.191  1.00  0.00     0.155 HD
ENDROOT
BRANCH  13  22
HETATM   22  N6  UNL     1      25.160   3.265  53.081  1.00  0.00    -0.370 N 
HETATM   23  H19 UNL     1      25.426   4.076  53.680  1.00  0.00     0.161 HD
BRANCH  22  24
HETATM   24  C10 UNL     1      26.059   2.392  52.311  1.00  0.00     0.150 C 
BRANCH  24  25
HETATM   25  C11 UNL     1      26.882   1.655  53.300  1.00  0.00     0.011 C 
HETATM   26  C12 UNL     1      27.419   0.489  53.644  1.00  0.00     0.005 C 
HETATM   27  C13 UNL     1      28.266   0.187  54.857  1.00  0.00     0.061 C 
HETATM   28 CL1  UNL     1      27.303  -1.053  52.789  1.00  0.00    -0.090 Cl
ENDBRANCH  24  25
ENDBRANCH  22  24
ENDBRANCH  13  22
BRANCH   1  29
HETATM   29  O1  UNL     1      18.965   2.879  52.254  1.00  0.00    -0.304 OA
BRANCH  29  30
HETATM   30  C2  UNL     1      18.587   3.993  51.544  1.00  0.00     0.189 C 
HETATM   31  C1  UNL     1      17.070   3.917  51.403  1.00  0.00     0.035 C 
ENDBRANCH  29  30
ENDBRANCH   1  29
TORSDOF 5
ENDMDL
MODEL 3
REMARK VINA RESULT:      -6.6      4.414      6.195
REMARK  5 active torsions:
REMARK  status: ('A' for Active; 'I' for Inactive)
REMARK    1  A    between atoms: C2_2  and  O1_3 
REMARK    2  A    between atoms: O1_3  and  N1_4 
REMARK    3  A    between atoms: C9_16  and  N6_17 
REMARK    4  A    between atoms: N6_17  and  C10_18 
REMARK    5  A    between atoms: C10_18  and  C11_19 
ROOT
HETATM    1  N1  UNL     1      23.544   3.578  50.088  1.00  0.00    -0.191 NA
HETATM    2  C3  UNL     1      22.729   4.208  49.074  1.00  0.00     0.151 C 
HETATM    3  C4  UNL     1      22.528   3.329  47.877  1.00  0.00     0.286 C 
HETATM    4  N2  UNL     1      21.616   3.826  46.912  1.00  0.00     0.088 N 
HETATM    5  C5  UNL     1      22.062   5.029  46.301  1.00  0.00     0.301 C 
HETATM    6  P1  UNL     1      21.504   6.541  47.174  1.00  0.00    -0.082 P 
HETATM    7  C6  UNL     1      22.837   7.727  47.638  1.00  0.00     0.148 C 
HETATM    8  N3  UNL     1      22.260   8.571  48.682  1.00  0.00    -0.399 N 
HETATM    9  C7  UNL     1      21.634   7.996  49.810  1.00  0.00     0.196 A 
HETATM   10  C8  UNL     1      21.670   7.313  50.940  1.00  0.00     0.145 A 
HETATM   11  N4  UNL     1      23.009   7.358  50.503  1.00  0.00    -0.172 NA
HETATM   12  N5  UNL     1      23.930   6.609  51.022  1.00  0.00    -0.178 NA
HETATM   13  C9  UNL     1      25.217   6.817  50.429  1.00  0.00     0.149 C 
HETATM   14  C14 UNL     1      25.871   5.826  49.797  1.00  0.00     0.025 A 
HETATM   15  C15 UNL     1      26.887   5.089  49.057  1.00  0.00    -0.039 A 
HETATM   16  C16 UNL     1      28.226   5.184  48.343  1.00  0.00     0.050 C 
HETATM   17  C17 UNL     1      25.750   4.495  49.537  1.00  0.00    -0.021 A 
HETATM   18  C18 UNL     1      24.896   3.320  49.719  1.00  0.00     0.160 C 
HETATM   19  H10 UNL     1      20.641   3.873  47.267  1.00  0.00     0.316 HD
HETATM   20  H13 UNL     1      20.629   6.241  48.307  1.00  0.00     0.060 HD
HETATM   21  H16 UNL     1      22.332   9.627  48.577  1.00  0.00     0.155 HD
ENDROOT
BRANCH  13  22
HETATM   22  N6  UNL     1      25.581   8.169  50.667  1.00  0.00    -0.370 N 
HETATM   23  H19 UNL     1      25.546   8.603  51.615  1.00  0.00     0.161 HD
BRANCH  22  24
HETATM   24  C10 UNL     1      25.991   8.808  49.408  1.00  0.00     0.150 C 
BRANCH  24  25
HETATM   25  C11 UNL     1      27.467   8.939  49.461  1.00  0.00     0.011 C 
HETATM   26  C12 UNL     1      28.608   8.877  48.784  1.00  0.00     0.005 C 
HETATM   27  C13 UNL     1      30.005   9.111  49.308  1.00  0.00     0.061 C 
HETATM   28 CL1  UNL     1      28.835   8.503  47.072  1.00  0.00    -0.090 Cl
ENDBRANCH  24  25
ENDBRANCH  22  24
ENDBRANCH  13  22
BRANCH   1  29
HETATM   29  O1  UNL     1      22.894   2.514  50.546  1.00  0.00    -0.304 OA
BRANCH  29  30
HETATM   30  C2  UNL     1      23.641   1.661  51.322  1.00  0.00     0.189 C 
HETATM   31  C1  UNL     1      23.201   1.898  52.763  1.00  0.00     0.035 C 
ENDBRANCH  29  30
ENDBRANCH   1  29
TORSDOF 5
ENDMDL
MODEL 4
REMARK VINA RESULT:      -6.4      2.882      6.777
REMARK  5 active torsions:
REMARK  status: ('A' for Active; 'I' for Inactive)
REMARK    1  A    between atoms: C2_2  and  O1_3 
REMARK    2  A    between atoms: O1_3  and  N1_4 
REMARK    3  A    between atoms: C9_16  and  N6_17 
REMARK    4  A    between atoms: N6_17  and  C10_18 
REMARK    5  A    between atoms: C10_18  and  C11_19 
ROOT
HETATM    1  N1  UNL     1      24.265   1.484  51.476  1.00  0.00    -0.191 NA
HETATM    2  C3  UNL     1      23.828   2.827  51.170  1.00  0.00     0.151 C 
HETATM    3  C4  UNL     1      24.440   3.847  52.080  1.00  0.00     0.286 C 
HETATM    4  N2  UNL     1      24.170   5.197  51.740  1.00  0.00     0.088 N 
HETATM    5  C5  UNL     1      22.791   5.526  51.842  1.00  0.00     0.301 C 
HETATM    6  P1  UNL     1      21.860   5.256  50.287  1.00  0.00    -0.082 P 
HETATM    7  C6  UNL     1      20.358   4.198  50.434  1.00  0.00     0.148 C 
HETATM    8  N3  UNL     1      20.063   3.750  49.076  1.00  0.00    -0.399 N 
HETATM    9  C7  UNL     1      21.065   3.154  48.279  1.00  0.00     0.196 A 
HETATM   10  C8  UNL     1      21.894   2.164  47.997  1.00  0.00     0.145 A 
HETATM   11  N4  UNL     1      21.214   1.746  49.158  1.00  0.00    -0.172 NA
HETATM   12  N5  UNL     1      21.611   0.734  49.863  1.00  0.00    -0.178 NA
HETATM   13  C9  UNL     1      20.776   0.484  51.000  1.00  0.00     0.149 C 
HETATM   14  C14 UNL     1      21.256   0.542  52.255  1.00  0.00     0.025 A 
HETATM   15  C15 UNL     1      21.339   0.497  53.709  1.00  0.00    -0.039 A 
HETATM   16  C16 UNL     1      20.558   0.307  54.998  1.00  0.00     0.050 C 
HETATM   17  C17 UNL     1      22.433   0.722  52.914  1.00  0.00    -0.021 A 
HETATM   18  C18 UNL     1      23.864   0.980  52.746  1.00  0.00     0.160 C 
HETATM   19  H10 UNL     1      24.602   5.479  50.838  1.00  0.00     0.316 HD
HETATM   20  H13 UNL     1      22.722   4.822  49.188  1.00  0.00     0.060 HD
HETATM   21  H16 UNL     1      19.074   3.873  48.705  1.00  0.00     0.155 HD
ENDROOT
BRANCH  13  22
HETATM   22  N6  UNL     1      19.476   0.184  50.513  1.00  0.00    -0.370 N 
HETATM   23  H19 UNL     1      19.312  -0.435  49.689  1.00  0.00     0.161 HD
BRANCH  22  24
HETATM   24  C10 UNL     1      18.462   0.862  51.333  1.00  0.00     0.150 C 
BRANCH  24  25
HETATM   25  C11 UNL     1      17.442  -0.157  51.677  1.00  0.00     0.011 C 
HETATM   26  C12 UNL     1      17.151  -1.232  52.401  1.00  0.00     0.005 C 
HETATM   27  C13 UNL     1      15.856  -2.007  52.423  1.00  0.00     0.061 C 
HETATM   28 CL1  UNL     1      18.192  -2.076  53.554  1.00  0.00    -0.090 Cl
ENDBRANCH  24  25
ENDBRANCH  22  24
ENDBRANCH  13  22
BRANCH   1  29
HETATM   29  O1  UNL     1      25.572   1.409  51.250  1.00  0.00    -0.304 OA
BRANCH  29  30
HETATM   30  C2  UNL     1      26.270   0.605  52.118  1.00  0.00     0.189 C 
HETATM   31  C1  UNL     1      27.459   1.428  52.603  1.00  0.00     0.035 C 
ENDBRANCH  29  30
ENDBRANCH   1  29
TORSDOF 5
ENDMDL
MODEL 5
REMARK VINA RESULT:      -6.4      3.776      6.636
REMARK  5 active torsions:
REMARK  status: ('A' for Active; 'I' for Inactive)
REMARK    1  A    between atoms: C2_2  and  O1_3 
REMARK    2  A    between atoms: O1_3  and  N1_4 
REMARK    3  A    between atoms: C9_16  and  N6_17 
REMARK    4  A    between atoms: N6_17  and  C10_18 
REMARK    5  A    between atoms: C10_18  and  C11_19 
ROOT
HETATM    1  N1  UNL     1      24.943   5.109  49.097  1.00  0.00    -0.191 NA
HETATM    2  C3  UNL     1      23.733   5.884  49.247  1.00  0.00     0.151 C 
HETATM    3  C4  UNL     1      23.933   7.091  50.112  1.00  0.00     0.286 C 
HETATM    4  N2  UNL     1      22.825   7.974  50.177  1.00  0.00     0.088 N 
HETATM    5  C5  UNL     1      21.684   7.383  50.784  1.00  0.00     0.301 C 
HETATM    6  P1  UNL     1      20.572   6.550  49.589  1.00  0.00    -0.082 P 
HETATM    7  C6  UNL     1      20.164   4.794  49.976  1.00  0.00     0.148 C 
HETATM    8  N3  UNL     1      19.688   4.220  48.720  1.00  0.00    -0.399 N 
HETATM    9  C7  UNL     1      20.446   4.348  47.535  1.00  0.00     0.196 A 
HETATM   10  C8  UNL     1      21.506   4.075  46.795  1.00  0.00     0.145 A 
HETATM   11  N4  UNL     1      21.708   3.360  47.992  1.00  0.00    -0.172 NA
HETATM   12  N5  UNL     1      22.851   2.831  48.296  1.00  0.00    -0.178 NA
HETATM   13  C9  UNL     1      22.834   2.152  49.556  1.00  0.00     0.149 C 
HETATM   14  C14 UNL     1      23.629   2.531  50.574  1.00  0.00     0.025 A 
HETATM   15  C15 UNL     1      24.276   2.590  51.878  1.00  0.00    -0.039 A 
HETATM   16  C16 UNL     1      24.322   1.996  53.275  1.00  0.00     0.050 C 
HETATM   17  C17 UNL     1      24.624   3.419  50.844  1.00  0.00    -0.021 A 
HETATM   18  C18 UNL     1      25.438   4.502  50.287  1.00  0.00     0.160 C 
HETATM   19  H10 UNL     1      22.624   8.436  49.268  1.00  0.00     0.316 HD
HETATM   20  H13 UNL     1      21.018   6.709  48.206  1.00  0.00     0.060 HD
HETATM   21  H16 UNL     1      18.763   3.694  48.721  1.00  0.00     0.155 HD
ENDROOT
BRANCH  13  22
HETATM   22  N6  UNL     1      21.887   1.098  49.458  1.00  0.00    -0.370 N 
HETATM   23  H19 UNL     1      21.890   0.409  48.674  1.00  0.00     0.161 HD
BRANCH  22  24
HETATM   24  C10 UNL     1      20.957   1.150  50.595  1.00  0.00     0.150 C 
BRANCH  24  25
HETATM   25  C11 UNL     1      21.462   0.185  51.601  1.00  0.00     0.011 C 
HETATM   26  C12 UNL     1      21.483  -0.171  52.881  1.00  0.00     0.005 C 
HETATM   27  C13 UNL     1      22.204  -1.343  53.500  1.00  0.00     0.061 C 
HETATM   28 CL1  UNL     1      20.675   0.620  54.239  1.00  0.00    -0.090 Cl
ENDBRANCH  24  25
ENDBRANCH  22  24
ENDBRANCH  13  22
BRANCH   1  29
HETATM   29  O1  UNL     1      25.839   5.851  48.454  1.00  0.00    -0.304 OA
BRANCH  29  30
HETATM   30  C2  UNL     1      27.149   5.487  48.650  1.00  0.00     0.189 C 
HETATM   31  C1  UNL     1      27.998   6.605  48.053  1.00  0.00     0.035 C 
ENDBRANCH  29  30
ENDBRANCH   1  29
TORSDOF 5
ENDMDL
MODEL 6
REMARK VINA RESULT:      -6.1      4.134      7.330
REMARK  5 active torsions:
REMARK  status: ('A' for Active; 'I' for Inactive)
REMARK    1  A    between atoms: C2_2  and  O1_3 
REMARK    2  A    between atoms: O1_3  and  N1_4 
REMARK    3  A    between atoms: C9_16  and  N6_17 
REMARK    4  A    between atoms: N6_17  and  C10_18 
REMARK    5  A    between atoms: C10_18  and  C11_19 
ROOT
HETATM    1  N1  UNL     1      24.947   4.426  49.403  1.00  0.00    -0.191 NA
HETATM    2  C3  UNL     1      23.857   5.366  49.535  1.00  0.00     0.151 C 
HETATM    3  C4  UNL     1      24.171   6.471  50.496  1.00  0.00     0.286 C 
HETATM    4  N2  UNL     1      23.204   7.507  50.557  1.00  0.00     0.088 N 
HETATM    5  C5  UNL     1      21.948   7.060  51.049  1.00  0.00     0.301 C 
HETATM    6  P1  UNL     1      20.813   6.482  49.731  1.00  0.00    -0.082 P 
HETATM    7  C6  UNL     1      20.123   4.789  49.963  1.00  0.00     0.148 C 
HETATM    8  N3  UNL     1      19.658   4.373  48.642  1.00  0.00    -0.399 N 
HETATM    9  C7  UNL     1      20.509   4.459  47.518  1.00  0.00     0.196 A 
HETATM   10  C8  UNL     1      21.567   4.074  46.827  1.00  0.00     0.145 A 
HETATM   11  N4  UNL     1      21.575   3.263  47.979  1.00  0.00    -0.172 NA
HETATM   12  N5  UNL     1      22.603   2.548  48.312  1.00  0.00    -0.178 NA
HETATM   13  C9  UNL     1      22.396   1.802  49.517  1.00  0.00     0.149 C 
HETATM   14  C14 UNL     1      23.164   1.991  50.605  1.00  0.00     0.025 A 
HETATM   15  C15 UNL     1      23.717   1.869  51.948  1.00  0.00    -0.039 A 
HETATM   16  C16 UNL     1      23.575   1.188  53.299  1.00  0.00     0.050 C 
HETATM   17  C17 UNL     1      24.258   2.698  51.000  1.00  0.00    -0.021 A 
HETATM   18  C18 UNL     1      25.260   3.677  50.574  1.00  0.00     0.160 C 
HETATM   19  H10 UNL     1      23.139   8.050  49.674  1.00  0.00     0.316 HD
HETATM   20  H13 UNL     1      21.376   6.658  48.392  1.00  0.00     0.060 HD
HETATM   21  H16 UNL     1      18.668   3.996  48.549  1.00  0.00     0.155 HD
ENDROOT
BRANCH  13  22
HETATM   22  N6  UNL     1      21.313   0.913  49.285  1.00  0.00    -0.370 N 
HETATM   23  H19 UNL     1      21.159   0.440  48.367  1.00  0.00     0.161 HD
BRANCH  22  24
HETATM   24  C10 UNL     1      20.497   0.786  50.501  1.00  0.00     0.150 C 
BRANCH  24  25
HETATM   25  C11 UNL     1      19.081   0.765  50.061  1.00  0.00     0.011 C 
HETATM   26  C12 UNL     1      17.848   0.342  50.318  1.00  0.00     0.005 C 
HETATM   27  C13 UNL     1      16.600   0.592  49.506  1.00  0.00     0.061 C 
HETATM   28 CL1  UNL     1      17.301  -0.639  51.683  1.00  0.00    -0.090 Cl
ENDBRANCH  24  25
ENDBRANCH  22  24
ENDBRANCH  13  22
BRANCH   1  29
HETATM   29  O1  UNL     1      25.986   5.061  48.872  1.00  0.00    -0.304 OA
BRANCH  29  30
HETATM   30  C2  UNL     1      27.177   4.379  48.922  1.00  0.00     0.189 C 
HETATM   31  C1  UNL     1      28.249   5.351  48.440  1.00  0.00     0.035 C 
ENDBRANCH  29  30
ENDBRANCH   1  29
TORSDOF 5
ENDMDL
MODEL 7
REMARK VINA RESULT:      -6.0      4.143      6.876
REMARK  5 active torsions:
REMARK  status: ('A' for Active; 'I' for Inactive)
REMARK    1  A    between atoms: C2_2  and  O1_3 
REMARK    2  A    between atoms: O1_3  and  N1_4 
REMARK    3  A    between atoms: C9_16  and  N6_17 
REMARK    4  A    between atoms: N6_17  and  C10_18 
REMARK    5  A    between atoms: C10_18  and  C11_19 
ROOT
HETATM    1  N1  UNL     1      22.472   4.396  47.500  1.00  0.00    -0.191 NA
HETATM    2  C3  UNL     1      21.907   4.028  48.778  1.00  0.00     0.151 C 
HETATM    3  C4  UNL     1      20.412   4.123  48.789  1.00  0.00     0.286 C 
HETATM    4  N2  UNL     1      19.787   3.633  49.965  1.00  0.00     0.088 N 
HETATM    5  C5  UNL     1      20.122   4.386  51.122  1.00  0.00     0.301 C 
HETATM    6  P1  UNL     1      21.601   3.755  52.001  1.00  0.00    -0.082 P 
HETATM    7  C6  UNL     1      22.929   4.994  52.311  1.00  0.00     0.148 C 
HETATM    8  N3  UNL     1      24.136   4.214  52.575  1.00  0.00    -0.399 N 
HETATM    9  C7  UNL     1      24.546   3.197  51.684  1.00  0.00     0.196 A 
HETATM   10  C8  UNL     1      25.018   2.789  50.520  1.00  0.00     0.145 A 
HETATM   11  N4  UNL     1      24.964   4.193  50.415  1.00  0.00    -0.172 NA
HETATM   12  N5  UNL     1      25.093   4.806  49.282  1.00  0.00    -0.178 NA
HETATM   13  C9  UNL     1      25.004   6.231  49.404  1.00  0.00     0.149 C 
HETATM   14  C14 UNL     1      24.044   6.935  48.779  1.00  0.00     0.025 A 
HETATM   15  C15 UNL     1      23.222   8.044  48.312  1.00  0.00    -0.039 A 
HETATM   16  C16 UNL     1      22.982   9.542  48.397  1.00  0.00     0.050 C 
HETATM   17  C17 UNL     1      23.019   6.752  47.902  1.00  0.00    -0.021 A 
HETATM   18  C18 UNL     1      22.291   5.756  47.115  1.00  0.00     0.160 C 
HETATM   19  H10 UNL     1      19.903   2.607  50.084  1.00  0.00     0.316 HD
HETATM   20  H13 UNL     1      22.131   2.534  51.396  1.00  0.00     0.060 HD
HETATM   21  H16 UNL     1      24.703   4.436  53.446  1.00  0.00     0.155 HD
ENDROOT
BRANCH  13  22
HETATM   22  N6  UNL     1      26.072   6.651  50.242  1.00  0.00    -0.370 N 
HETATM   23  H19 UNL     1      26.451   6.057  51.012  1.00  0.00     0.161 HD
BRANCH  22  24
HETATM   24  C10 UNL     1      26.519   7.995  49.850  1.00  0.00     0.150 C 
BRANCH  24  25
HETATM   25  C11 UNL     1      27.598   7.808  48.850  1.00  0.00     0.011 C 
HETATM   26  C12 UNL     1      28.379   6.943  48.213  1.00  0.00     0.005 C 
HETATM   27  C13 UNL     1      29.433   7.243  47.175  1.00  0.00     0.061 C 
HETATM   28 CL1  UNL     1      28.418   5.184  48.388  1.00  0.00    -0.090 Cl
ENDBRANCH  24  25
ENDBRANCH  22  24
ENDBRANCH  13  22
BRANCH   1  29
HETATM   29  O1  UNL     1      22.063   3.516  46.593  1.00  0.00    -0.304 OA
BRANCH  29  30
HETATM   30  C2  UNL     1      21.893   4.017  45.326  1.00  0.00     0.189 C 
HETATM   31  C1  UNL     1      20.456   3.700  44.928  1.00  0.00     0.035 C 
ENDBRANCH  29  30
ENDBRANCH   1  29
TORSDOF 5
ENDMDL
MODEL 8
REMARK VINA RESULT:      -6.0      3.617      6.937
REMARK  5 active torsions:
REMARK  status: ('A' for Active; 'I' for Inactive)
REMARK    1  A    between atoms: C2_2  and  O1_3 
REMARK    2  A    between atoms: O1_3  and  N1_4 
REMARK    3  A    between atoms: C9_16  and  N6_17 
REMARK    4  A    between atoms: N6_17  and  C10_18 
REMARK    5  A    between atoms: C10_18  and  C11_19 
ROOT
HETATM    1  N1  UNL     1      24.145   1.268  51.637  1.00  0.00    -0.191 NA
HETATM    2  C3  UNL     1      23.852   2.679  51.742  1.00  0.00     0.151 C 
HETATM    3  C4  UNL     1      24.278   3.253  53.059  1.00  0.00     0.286 C 
HETATM    4  N2  UNL     1      24.154   4.662  53.169  1.00  0.00     0.088 N 
HETATM    5  C5  UNL     1      22.807   5.105  53.095  1.00  0.00     0.301 C 
HETATM    6  P1  UNL     1      22.256   5.486  51.389  1.00  0.00    -0.082 P 
HETATM    7  C6  UNL     1      20.717   4.633  50.841  1.00  0.00     0.148 C 
HETATM    8  N3  UNL     1      20.730   4.703  49.383  1.00  0.00    -0.399 N 
HETATM    9  C7  UNL     1      21.865   4.289  48.651  1.00  0.00     0.196 A 
HETATM   10  C8  UNL     1      22.692   3.356  48.215  1.00  0.00     0.145 A 
HETATM   11  N4  UNL     1      21.740   2.661  48.987  1.00  0.00    -0.172 NA
HETATM   12  N5  UNL     1      21.915   1.432  49.355  1.00  0.00    -0.178 NA
HETATM   13  C9  UNL     1      20.826   0.922  50.133  1.00  0.00     0.149 C 
HETATM   14  C14 UNL     1      20.999   0.498  51.398  1.00  0.00     0.025 A 
HETATM   15  C15 UNL     1      20.735  -0.039  52.727  1.00  0.00    -0.039 A 
HETATM   16  C16 UNL     1      19.665  -0.550  53.676  1.00  0.00     0.050 C 
HETATM   17  C17 UNL     1      21.994   0.301  52.305  1.00  0.00    -0.021 A 
HETATM   18  C18 UNL     1      23.435   0.422  52.536  1.00  0.00     0.160 C 
HETATM   19  H10 UNL     1      24.799   5.172  52.533  1.00  0.00     0.316 HD
HETATM   20  H13 UNL     1      23.333   5.341  50.409  1.00  0.00     0.060 HD
HETATM   21  H16 UNL     1      19.863   5.065  48.885  1.00  0.00     0.155 HD
ENDROOT
BRANCH  13  22
HETATM   22  N6  UNL     1      19.665   0.964  49.316  1.00  0.00    -0.370 N 
HETATM   23  H19 UNL     1      19.703   1.168  48.293  1.00  0.00     0.161 HD
BRANCH  22  24
HETATM   24  C10 UNL     1      18.470   0.682  50.124  1.00  0.00     0.150 C 
BRANCH  24  25
HETATM   25  C11 UNL     1      17.934   1.994  50.559  1.00  0.00     0.011 C 
HETATM   26  C12 UNL     1      17.359   3.133  50.188  1.00  0.00     0.005 C 
HETATM   27  C13 UNL     1      16.956   4.292  51.068  1.00  0.00     0.061 C 
HETATM   28 CL1  UNL     1      16.894   3.632  48.558  1.00  0.00    -0.090 Cl
ENDBRANCH  24  25
ENDBRANCH  22  24
ENDBRANCH  13  22
BRANCH   1  29
HETATM   29  O1  UNL     1      25.465   1.111  51.673  1.00  0.00    -0.304 OA
BRANCH  29  30
HETATM   30  C2  UNL     1      25.907   0.041  52.411  1.00  0.00     0.189 C 
HETATM   31  C1  UNL     1      27.373   0.315  52.730  1.00  0.00     0.035 C 
ENDBRANCH  29  30
ENDBRANCH   1  29
TORSDOF 5
ENDMDL
MODEL 9
REMARK VINA RESULT:      -5.9      4.992      6.784
REMARK  5 active torsions:
REMARK  status: ('A' for Active; 'I' for Inactive)
REMARK    1  A    between atoms: C2_2  and  O1_3 
REMARK    2  A    between atoms: O1_3  and  N1_4 
REMARK    3  A    between atoms: C9_16  and  N6_17 
REMARK    4  A    between atoms: N6_17  and  C10_18 
REMARK    5  A    between atoms: C10_18  and  C11_19 
ROOT
HETATM    1  N1  UNL     1      17.659   0.193  52.177  1.00  0.00    -0.191 NA
HETATM    2  C3  UNL     1      16.528   0.485  51.325  1.00  0.00     0.151 C 
HETATM    3  C4  UNL     1      16.049  -0.723  50.580  1.00  0.00     0.286 C 
HETATM    4  N2  UNL     1      14.852  -0.539  49.842  1.00  0.00     0.088 N 
HETATM    5  C5  UNL     1      14.994   0.401  48.786  1.00  0.00     0.301 C 
HETATM    6  P1  UNL     1      14.603   2.121  49.283  1.00  0.00    -0.082 P 
HETATM    7  C6  UNL     1      15.912   3.368  48.924  1.00  0.00     0.148 C 
HETATM    8  N3  UNL     1      15.609   4.509  49.785  1.00  0.00    -0.399 N 
HETATM    9  C7  UNL     1      15.400   4.331  51.171  1.00  0.00     0.196 A 
HETATM   10  C8  UNL     1      15.829   4.039  52.385  1.00  0.00     0.145 A 
HETATM   11  N4  UNL     1      16.967   3.920  51.562  1.00  0.00    -0.172 NA
HETATM   12  N5  UNL     1      18.059   3.356  51.971  1.00  0.00    -0.178 NA
HETATM   13  C9  UNL     1      19.087   3.342  50.975  1.00  0.00     0.149 C 
HETATM   14  C14 UNL     1      19.600   2.190  50.505  1.00  0.00     0.025 A 
HETATM   15  C15 UNL     1      20.403   1.239  49.748  1.00  0.00    -0.039 A 
HETATM   16  C16 UNL     1      21.453   1.079  48.661  1.00  0.00     0.050 C 
HETATM   17  C17 UNL     1      19.515   0.848  50.716  1.00  0.00    -0.021 A 
HETATM   18  C18 UNL     1      18.854  -0.193  51.504  1.00  0.00     0.160 C 
HETATM   19  H10 UNL     1      14.028  -0.365  50.450  1.00  0.00     0.316 HD
HETATM   20  H13 UNL     1      14.136   2.210  50.666  1.00  0.00     0.060 HD
HETATM   21  H16 UNL     1      15.560   5.476  49.346  1.00  0.00     0.155 HD
ENDROOT
BRANCH  13  22
HETATM   22  N6  UNL     1      19.394   4.693  50.662  1.00  0.00    -0.370 N 
HETATM   23  H19 UNL     1      18.746   5.483  50.880  1.00  0.00     0.161 HD
BRANCH  22  24
HETATM   24  C10 UNL     1      20.712   4.773  50.016  1.00  0.00     0.150 C 
BRANCH  24  25
HETATM   25  C11 UNL     1      21.715   4.837  51.106  1.00  0.00     0.011 C 
HETATM   26  C12 UNL     1      22.682   4.202  51.758  1.00  0.00     0.005 C 
HETATM   27  C13 UNL     1      23.506   4.716  52.915  1.00  0.00     0.061 C 
HETATM   28 CL1  UNL     1      23.295   2.569  51.470  1.00  0.00    -0.090 Cl
ENDBRANCH  24  25
ENDBRANCH  22  24
ENDBRANCH  13  22
BRANCH   1  29
HETATM   29  O1  UNL     1      17.265  -0.660  53.116  1.00  0.00    -0.304 OA
BRANCH  29  30
HETATM   30  C2  UNL     1      18.206  -1.587  53.496  1.00  0.00     0.189 C 
HETATM   31  C1  UNL     1      17.485  -2.930  53.557  1.00  0.00     0.035 C 
ENDBRANCH  29  30
ENDBRANCH   1  29
TORSDOF 5
ENDMDL
