MODEL 1
REMARK VINA RESULT:      -8.2      0.000      0.000
REMARK  7 active torsions:
REMARK  status: ('A' for Active; 'I' for Inactive)
REMARK    1  A    between atoms: C7_7  and  N1_8 
REMARK    2  A    between atoms: N1_8  and  C8_9 
REMARK    3  A    between atoms: C11_14  and  C12_15 
REMARK    4  A    between atoms: C12_15  and  O1_16 
REMARK    5  A    between atoms: O1_16  and  C13_17 
REMARK    6  A    between atoms: C13_17  and  C14_18 
REMARK    7  A    between atoms: C21_27  and  O4_28 
ROOT
HETATM    1  C1  UNL     1      24.551  -1.262  55.745  1.00  0.00     0.018 C 
HETATM    2  C2  UNL     1      23.545  -1.031  55.124  1.00  0.00    -0.078 C 
HETATM    3  C3  UNL     1      22.350  -0.747  54.387  1.00  0.00     0.019 A 
HETATM    4  C4  UNL     1      21.287  -1.613  54.521  1.00  0.00     0.021 A 
HETATM    5  C5  UNL     1      20.136  -1.337  53.818  1.00  0.00     0.004 A 
HETATM    6  C6  UNL     1      20.107  -0.218  53.023  1.00  0.00     0.029 A 
HETATM    7  C7  UNL     1      21.139   0.685  52.850  1.00  0.00     0.034 A 
HETATM    8  C23 UNL     1      22.254   0.359  53.572  1.00  0.00     0.050 A 
ENDROOT
BRANCH   7   9
HETATM    9  N1  UNL     1      20.903   1.758  51.994  1.00  0.00    -0.344 N 
HETATM   10  H5  UNL     1      20.258   2.532  52.270  1.00  0.00     0.167 HD
BRANCH   9  11
HETATM   11  C8  UNL     1      21.475   1.931  50.710  1.00  0.00     0.111 A 
HETATM   12  N2  UNL     1      21.059   1.226  49.734  1.00  0.00    -0.228 NA
HETATM   13  C9  UNL     1      21.609   1.363  48.426  1.00  0.00     0.235 A 
HETATM   14  N3  UNL     1      22.549   2.180  48.123  1.00  0.00    -0.246 NA
HETATM   15  C10 UNL     1      23.099   3.022  49.164  1.00  0.00     0.045 A 
HETATM   16  C11 UNL     1      24.139   3.874  49.094  1.00  0.00     0.067 C 
HETATM   17  C22 UNL     1      22.525   2.969  50.527  1.00  0.00     0.137 A 
BRANCH  16  18
HETATM   18  C12 UNL     1      24.798   4.788  50.065  1.00  0.00     0.102 C 
HETATM   19  C18 UNL     1      24.232   5.913  49.858  1.00  0.00     0.108 C 
HETATM   20  O3  UNL     1      23.510   7.146  49.524  1.00  0.00    -0.350 OA
HETATM   21  C21 UNL     1      24.905   6.866  50.839  1.00  0.00     0.179 C 
HETATM   22  C19 UNL     1      24.486   8.009  48.884  1.00  0.00     0.178 C 
HETATM   23  C20 UNL     1      25.687   7.743  49.822  1.00  0.00     0.065 C 
BRANCH  18  24
HETATM   24  O1  UNL     1      25.727   4.177  50.820  1.00  0.00    -0.346 OA
BRANCH  24  25
HETATM   25  C13 UNL     1      26.315   2.916  50.754  1.00  0.00     0.207 C 
BRANCH  25  26
HETATM   26  C14 UNL     1      26.480   2.185  52.050  1.00  0.00     0.145 C 
HETATM   27  C15 UNL     1      25.991   0.757  51.936  1.00  0.00     0.036 C 
HETATM   28  C16 UNL     1      26.939   0.020  52.860  1.00  0.00     0.029 C 
HETATM   29  C17 UNL     1      27.915   1.071  53.304  1.00  0.00     0.168 C 
HETATM   30  O2  UNL     1      27.859   2.028  52.295  1.00  0.00    -0.384 OA
ENDBRANCH  25  26
ENDBRANCH  24  25
ENDBRANCH  18  24
BRANCH  21  31
HETATM   31  O4  UNL     1      23.981   7.687  51.473  1.00  0.00    -0.389 OA
HETATM   32  H22 UNL     1      24.222   7.916  52.400  1.00  0.00     0.210 HD
ENDBRANCH  21  31
ENDBRANCH  16  18
ENDBRANCH   9  11
ENDBRANCH   7   9
TORSDOF 7
ENDMDL
MODEL 2
REMARK VINA RESULT:      -8.2      3.096      8.139
REMARK  7 active torsions:
REMARK  status: ('A' for Active; 'I' for Inactive)
REMARK    1  A    between atoms: C7_7  and  N1_8 
REMARK    2  A    between atoms: N1_8  and  C8_9 
REMARK    3  A    between atoms: C11_14  and  C12_15 
REMARK    4  A    between atoms: C12_15  and  O1_16 
REMARK    5  A    between atoms: O1_16  and  C13_17 
REMARK    6  A    between atoms: C13_17  and  C14_18 
REMARK    7  A    between atoms: C21_27  and  O4_28 
ROOT
HETATM    1  C1  UNL     1      28.627  10.388  48.073  1.00  0.00     0.018 C 
HETATM    2  C2  UNL     1      28.602   9.185  48.135  1.00  0.00    -0.078 C 
HETATM    3  C3  UNL     1      28.566   7.755  48.216  1.00  0.00     0.019 A 
HETATM    4  C4  UNL     1      29.744   7.068  48.019  1.00  0.00     0.021 A 
HETATM    5  C5  UNL     1      29.710   5.694  48.103  1.00  0.00     0.004 A 
HETATM    6  C6  UNL     1      28.512   5.083  48.376  1.00  0.00     0.029 A 
HETATM    7  C7  UNL     1      27.302   5.719  48.582  1.00  0.00     0.034 A 
HETATM    8  C23 UNL     1      27.397   7.080  48.486  1.00  0.00     0.050 A 
ENDROOT
BRANCH   7   9
HETATM    9  N1  UNL     1      26.200   4.909  48.845  1.00  0.00    -0.344 N 
HETATM   10  H5  UNL     1      25.980   4.089  48.237  1.00  0.00     0.167 HD
BRANCH   9  11
HETATM   11  C8  UNL     1      25.286   5.080  49.913  1.00  0.00     0.111 A 
HETATM   12  N2  UNL     1      24.654   6.181  50.032  1.00  0.00    -0.228 NA
HETATM   13  C9  UNL     1      23.728   6.399  51.095  1.00  0.00     0.235 A 
HETATM   14  N3  UNL     1      23.460   5.535  52.003  1.00  0.00    -0.246 NA
HETATM   15  C10 UNL     1      24.132   4.253  51.963  1.00  0.00     0.045 A 
HETATM   16  C11 UNL     1      24.075   3.246  52.855  1.00  0.00     0.067 C 
HETATM   17  C22 UNL     1      25.056   3.946  50.849  1.00  0.00     0.137 A 
BRANCH  16  18
HETATM   18  C12 UNL     1      24.697   1.898  52.937  1.00  0.00     0.102 C 
HETATM   19  C18 UNL     1      25.784   2.101  53.575  1.00  0.00     0.108 C 
HETATM   20  O3  UNL     1      26.999   2.463  54.314  1.00  0.00    -0.350 OA
HETATM   21  C21 UNL     1      26.440   0.728  53.658  1.00  0.00     0.179 C 
HETATM   22  C19 UNL     1      28.090   2.309  53.369  1.00  0.00     0.178 C 
HETATM   23  C20 UNL     1      27.645   0.982  52.710  1.00  0.00     0.065 C 
BRANCH  18  24
HETATM   24  O1  UNL     1      23.960   0.939  52.351  1.00  0.00    -0.346 OA
BRANCH  24  25
HETATM   25  C13 UNL     1      22.688   0.943  51.783  1.00  0.00     0.207 C 
BRANCH  25  26
HETATM   26  C14 UNL     1      21.718  -0.071  52.305  1.00  0.00     0.145 C 
HETATM   27  C15 UNL     1      22.400  -1.046  53.240  1.00  0.00     0.036 C 
HETATM   28  C16 UNL     1      21.304  -1.349  54.242  1.00  0.00     0.029 C 
HETATM   29  C17 UNL     1      20.176  -0.445  53.839  1.00  0.00     0.168 C 
HETATM   30  O2  UNL     1      20.803   0.590  53.150  1.00  0.00    -0.384 OA
ENDBRANCH  25  26
ENDBRANCH  24  25
ENDBRANCH  18  24
BRANCH  21  31
HETATM   31  O4  UNL     1      26.953   0.480  54.925  1.00  0.00    -0.389 OA
HETATM   32  H22 UNL     1      26.669   1.133  55.605  1.00  0.00     0.210 HD
ENDBRANCH  21  31
ENDBRANCH  16  18
ENDBRANCH   9  11
ENDBRANCH   7   9
TORSDOF 7
ENDMDL
MODEL 3
REMARK VINA RESULT:      -8.0      2.540      5.579
REMARK  7 active torsions:
REMARK  status: ('A' for Active; 'I' for Inactive)
REMARK    1  A    between atoms: C7_7  and  N1_8 
REMARK    2  A    between atoms: N1_8  and  C8_9 
REMARK    3  A    between atoms: C11_14  and  C12_15 
REMARK    4  A    between atoms: C12_15  and  O1_16 
REMARK    5  A    between atoms: O1_16  and  C13_17 
REMARK    6  A    between atoms: C13_17  and  C14_18 
REMARK    7  A    between atoms: C21_27  and  O4_28 
ROOT
HETATM    1  C1  UNL     1      21.199   6.643  48.937  1.00  0.00     0.018 C 
HETATM    2  C2  UNL     1      21.261   5.443  48.850  1.00  0.00    -0.078 C 
HETATM    3  C3  UNL     1      21.333   4.015  48.756  1.00  0.00     0.019 A 
HETATM    4  C4  UNL     1      22.286   3.470  47.923  1.00  0.00     0.021 A 
HETATM    5  C5  UNL     1      22.360   2.098  47.838  1.00  0.00     0.004 A 
HETATM    6  C6  UNL     1      21.483   1.347  48.581  1.00  0.00     0.029 A 
HETATM    7  C7  UNL     1      20.509   1.837  49.431  1.00  0.00     0.034 A 
HETATM    8  C23 UNL     1      20.485   3.203  49.475  1.00  0.00     0.050 A 
ENDROOT
BRANCH   7   9
HETATM    9  N1  UNL     1      19.720   0.900  50.094  1.00  0.00    -0.344 N 
HETATM   10  H5  UNL     1      18.838   0.543  49.665  1.00  0.00     0.167 HD
BRANCH   9  11
HETATM   11  C8  UNL     1      19.997   0.338  51.363  1.00  0.00     0.111 A 
HETATM   12  N2  UNL     1      19.043  -0.128  52.068  1.00  0.00    -0.228 NA
HETATM   13  C9  UNL     1      19.274  -0.699  53.354  1.00  0.00     0.235 A 
HETATM   14  N3  UNL     1      20.428  -0.787  53.905  1.00  0.00    -0.246 NA
HETATM   15  C10 UNL     1      21.580  -0.277  53.190  1.00  0.00     0.045 A 
HETATM   16  C11 UNL     1      22.855  -0.181  53.610  1.00  0.00     0.067 C 
HETATM   17  C22 UNL     1      21.410   0.269  51.826  1.00  0.00     0.137 A 
BRANCH  16  18
HETATM   18  C12 UNL     1      24.116   0.308  52.992  1.00  0.00     0.102 C 
HETATM   19  C18 UNL     1      23.976   1.577  52.974  1.00  0.00     0.108 C 
HETATM   20  O3  UNL     1      23.695   3.016  53.010  1.00  0.00    -0.350 OA
HETATM   21  C21 UNL     1      25.258   2.094  52.332  1.00  0.00     0.179 C 
HETATM   22  C19 UNL     1      23.505   3.411  51.626  1.00  0.00     0.178 C 
HETATM   23  C20 UNL     1      24.663   2.605  50.991  1.00  0.00     0.065 C 
BRANCH  18  24
HETATM   24  O1  UNL     1      24.965  -0.683  52.668  1.00  0.00    -0.346 OA
BRANCH  24  25
HETATM   25  C13 UNL     1      25.974  -1.329  53.377  1.00  0.00     0.207 C 
BRANCH  25  26
HETATM   26  C14 UNL     1      27.382  -0.976  53.009  1.00  0.00     0.145 C 
HETATM   27  C15 UNL     1      27.886   0.187  53.837  1.00  0.00     0.036 C 
HETATM   28  C16 UNL     1      29.356  -0.147  53.996  1.00  0.00     0.029 C 
HETATM   29  C17 UNL     1      29.501  -1.493  53.349  1.00  0.00     0.168 C 
HETATM   30  O2  UNL     1      28.221  -2.036  53.411  1.00  0.00    -0.384 OA
ENDBRANCH  25  26
ENDBRANCH  24  25
ENDBRANCH  18  24
BRANCH  21  31
HETATM   31  O4  UNL     1      25.763   3.196  53.009  1.00  0.00    -0.389 OA
HETATM   32  H22 UNL     1      25.788   3.085  53.988  1.00  0.00     0.210 HD
ENDBRANCH  21  31
ENDBRANCH  16  18
ENDBRANCH   9  11
ENDBRANCH   7   9
TORSDOF 7
ENDMDL
MODEL 4
REMARK VINA RESULT:      -8.0      2.554      6.147
REMARK  7 active torsions:
REMARK  status: ('A' for Active; 'I' for Inactive)
REMARK    1  A    between atoms: C7_7  and  N1_8 
REMARK    2  A    between atoms: N1_8  and  C8_9 
REMARK    3  A    between atoms: C11_14  and  C12_15 
REMARK    4  A    between atoms: C12_15  and  O1_16 
REMARK    5  A    between atoms: O1_16  and  C13_17 
REMARK    6  A    between atoms: C13_17  and  C14_18 
REMARK    7  A    between atoms: C21_27  and  O4_28 
ROOT
HETATM    1  C1  UNL     1      26.662   3.681  49.469  1.00  0.00     0.018 C 
HETATM    2  C2  UNL     1      26.629   2.982  50.449  1.00  0.00    -0.078 C 
HETATM    3  C3  UNL     1      26.579   2.150  51.615  1.00  0.00     0.019 A 
HETATM    4  C4  UNL     1      27.552   2.326  52.575  1.00  0.00     0.021 A 
HETATM    5  C5  UNL     1      27.501   1.532  53.699  1.00  0.00     0.004 A 
HETATM    6  C6  UNL     1      26.489   0.610  53.804  1.00  0.00     0.029 A 
HETATM    7  C7  UNL     1      25.489   0.389  52.875  1.00  0.00     0.034 A 
HETATM    8  C23 UNL     1      25.592   1.206  51.783  1.00  0.00     0.050 A 
ENDROOT
BRANCH   7   9
HETATM    9  N1  UNL     1      24.556  -0.600  53.176  1.00  0.00    -0.344 N 
HETATM   10  H5  UNL     1      24.822  -1.610  53.162  1.00  0.00     0.167 HD
BRANCH   9  11
HETATM   11  C8  UNL     1      23.201  -0.379  53.523  1.00  0.00     0.111 A 
HETATM   12  N2  UNL     1      22.636  -1.142  54.373  1.00  0.00    -0.228 NA
HETATM   13  C9  UNL     1      21.272  -0.960  54.749  1.00  0.00     0.235 A 
HETATM   14  N3  UNL     1      20.512  -0.044  54.274  1.00  0.00    -0.246 NA
HETATM   15  C10 UNL     1      21.056   0.871  53.293  1.00  0.00     0.045 A 
HETATM   16  C11 UNL     1      20.421   1.836  52.601  1.00  0.00     0.067 C 
HETATM   17  C22 UNL     1      22.481   0.771  52.911  1.00  0.00     0.137 A 
BRANCH  16  18
HETATM   18  C12 UNL     1      20.848   2.834  51.584  1.00  0.00     0.102 C 
HETATM   19  C18 UNL     1      20.620   2.253  50.471  1.00  0.00     0.108 C 
HETATM   20  O3  UNL     1      20.314   1.481  49.261  1.00  0.00    -0.350 OA
HETATM   21  C21 UNL     1      21.064   3.261  49.417  1.00  0.00     0.179 C 
HETATM   22  C19 UNL     1      21.599   1.146  48.677  1.00  0.00     0.178 C 
HETATM   23  C20 UNL     1      22.310   2.506  48.876  1.00  0.00     0.065 C 
BRANCH  18  24
HETATM   24  O1  UNL     1      21.311   3.974  52.125  1.00  0.00    -0.346 OA
BRANCH  24  25
HETATM   25  C13 UNL     1      22.598   4.458  52.346  1.00  0.00     0.207 C 
BRANCH  25  26
HETATM   26  C14 UNL     1      22.939   5.771  51.713  1.00  0.00     0.145 C 
HETATM   27  C15 UNL     1      23.768   5.573  50.462  1.00  0.00     0.036 C 
HETATM   28  C16 UNL     1      23.296   6.712  49.581  1.00  0.00     0.029 C 
HETATM   29  C17 UNL     1      22.191   7.354  50.369  1.00  0.00     0.168 C 
HETATM   30  O2  UNL     1      21.749   6.342  51.216  1.00  0.00    -0.384 OA
ENDBRANCH  25  26
ENDBRANCH  24  25
ENDBRANCH  18  24
BRANCH  21  31
HETATM   31  O4  UNL     1      20.148   3.351  48.376  1.00  0.00    -0.389 OA
HETATM   32  H22 UNL     1      19.208   3.318  48.667  1.00  0.00     0.210 HD
ENDBRANCH  21  31
ENDBRANCH  16  18
ENDBRANCH   9  11
ENDBRANCH   7   9
TORSDOF 7
ENDMDL
MODEL 5
REMARK VINA RESULT:      -7.7      3.448      4.772
REMARK  7 active torsions:
REMARK  status: ('A' for Active; 'I' for Inactive)
REMARK    1  A    between atoms: C7_7  and  N1_8 
REMARK    2  A    between atoms: N1_8  and  C8_9 
REMARK    3  A    between atoms: C11_14  and  C12_15 
REMARK    4  A    between atoms: C12_15  and  O1_16 
REMARK    5  A    between atoms: O1_16  and  C13_17 
REMARK    6  A    between atoms: C13_17  and  C14_18 
REMARK    7  A    between atoms: C21_27  and  O4_28 
ROOT
HETATM    1  C1  UNL     1      27.235  -1.977  52.657  1.00  0.00     0.018 C 
HETATM    2  C2  UNL     1      26.440  -1.072  52.688  1.00  0.00    -0.078 C 
HETATM    3  C3  UNL     1      25.502   0.010  52.728  1.00  0.00     0.019 A 
HETATM    4  C4  UNL     1      24.245  -0.243  53.232  1.00  0.00     0.021 A 
HETATM    5  C5  UNL     1      23.346   0.799  53.276  1.00  0.00     0.004 A 
HETATM    6  C6  UNL     1      23.745   2.029  52.817  1.00  0.00     0.029 A 
HETATM    7  C7  UNL     1      24.989   2.341  52.302  1.00  0.00     0.034 A 
HETATM    8  C23 UNL     1      25.838   1.269  52.284  1.00  0.00     0.050 A 
ENDROOT
BRANCH   7   9
HETATM    9  N1  UNL     1      25.190   3.656  51.889  1.00  0.00    -0.344 N 
HETATM   10  H5  UNL     1      25.800   4.303  52.437  1.00  0.00     0.167 HD
BRANCH   9  11
HETATM   11  C8  UNL     1      24.628   4.254  50.735  1.00  0.00     0.111 A 
HETATM   12  N2  UNL     1      23.477   3.885  50.331  1.00  0.00    -0.228 NA
HETATM   13  C9  UNL     1      22.874   4.456  49.171  1.00  0.00     0.235 A 
HETATM   14  N3  UNL     1      23.422   5.360  48.448  1.00  0.00    -0.246 NA
HETATM   15  C10 UNL     1      24.737   5.843  48.816  1.00  0.00     0.045 A 
HETATM   16  C11 UNL     1      25.530   6.708  48.157  1.00  0.00     0.067 C 
HETATM   17  C22 UNL     1      25.385   5.333  50.044  1.00  0.00     0.137 A 
BRANCH  16  18
HETATM   18  C12 UNL     1      26.876   7.285  48.416  1.00  0.00     0.102 C 
HETATM   19  C18 UNL     1      26.631   8.356  49.064  1.00  0.00     0.108 C 
HETATM   20  O3  UNL     1      26.219   9.558  49.799  1.00  0.00    -0.350 OA
HETATM   21  C21 UNL     1      28.002   8.966  49.328  1.00  0.00     0.179 C 
HETATM   22  C19 UNL     1      26.511  10.673  48.918  1.00  0.00     0.178 C 
HETATM   23  C20 UNL     1      27.894  10.208  48.401  1.00  0.00     0.065 C 
BRANCH  18  24
HETATM   24  O1  UNL     1      27.876   6.537  47.918  1.00  0.00    -0.346 OA
BRANCH  24  25
HETATM   25  C13 UNL     1      28.765   5.640  48.506  1.00  0.00     0.207 C 
BRANCH  25  26
HETATM   26  C14 UNL     1      30.136   5.568  47.908  1.00  0.00     0.145 C 
HETATM   27  C15 UNL     1      30.652   6.947  47.559  1.00  0.00     0.036 C 
HETATM   28  C16 UNL     1      32.139   6.808  47.818  1.00  0.00     0.029 C 
HETATM   29  C17 UNL     1      32.287   5.425  48.382  1.00  0.00     0.168 C 
HETATM   30  O2  UNL     1      31.031   5.140  48.910  1.00  0.00    -0.384 OA
ENDBRANCH  25  26
ENDBRANCH  24  25
ENDBRANCH  18  24
BRANCH  21  31
HETATM   31  O4  UNL     1      28.116   9.430  50.633  1.00  0.00    -0.389 OA
HETATM   32  H22 UNL     1      29.029   9.372  50.999  1.00  0.00     0.210 HD
ENDBRANCH  21  31
ENDBRANCH  16  18
ENDBRANCH   9  11
ENDBRANCH   7   9
TORSDOF 7
ENDMDL
MODEL 6
REMARK VINA RESULT:      -7.7      2.540      5.873
REMARK  7 active torsions:
REMARK  status: ('A' for Active; 'I' for Inactive)
REMARK    1  A    between atoms: C7_7  and  N1_8 
REMARK    2  A    between atoms: N1_8  and  C8_9 
REMARK    3  A    between atoms: C11_14  and  C12_15 
REMARK    4  A    between atoms: C12_15  and  O1_16 
REMARK    5  A    between atoms: O1_16  and  C13_17 
REMARK    6  A    between atoms: C13_17  and  C14_18 
REMARK    7  A    between atoms: C21_27  and  O4_28 
ROOT
HETATM    1  C1  UNL     1      30.497  -2.083  54.073  1.00  0.00     0.018 C 
HETATM    2  C2  UNL     1      29.794  -1.135  53.832  1.00  0.00    -0.078 C 
HETATM    3  C3  UNL     1      28.956  -0.011  53.538  1.00  0.00     0.019 A 
HETATM    4  C4  UNL     1      29.355   1.228  53.992  1.00  0.00     0.021 A 
HETATM    5  C5  UNL     1      28.552   2.309  53.703  1.00  0.00     0.004 A 
HETATM    6  C6  UNL     1      27.403   2.099  52.983  1.00  0.00     0.029 A 
HETATM    7  C7  UNL     1      26.954   0.882  52.503  1.00  0.00     0.034 A 
HETATM    8  C23 UNL     1      27.790  -0.152  52.820  1.00  0.00     0.050 A 
ENDROOT
BRANCH   7   9
HETATM    9  N1  UNL     1      25.756   0.887  51.793  1.00  0.00    -0.344 N 
HETATM   10  H5  UNL     1      25.751   0.945  50.750  1.00  0.00     0.167 HD
BRANCH   9  11
HETATM   11  C8  UNL     1      24.460   0.815  52.359  1.00  0.00     0.111 A 
HETATM   12  N2  UNL     1      24.225  -0.024  53.290  1.00  0.00    -0.228 NA
HETATM   13  C9  UNL     1      22.934  -0.135  53.886  1.00  0.00     0.235 A 
HETATM   14  N3  UNL     1      21.922   0.573  53.546  1.00  0.00    -0.246 NA
HETATM   15  C10 UNL     1      22.082   1.551  52.490  1.00  0.00     0.045 A 
HETATM   16  C11 UNL     1      21.144   2.327  51.914  1.00  0.00     0.067 C 
HETATM   17  C22 UNL     1      23.412   1.755  51.877  1.00  0.00     0.137 A 
BRANCH  16  18
HETATM   18  C12 UNL     1      21.166   3.358  50.843  1.00  0.00     0.102 C 
HETATM   19  C18 UNL     1      21.063   2.683  49.765  1.00  0.00     0.108 C 
HETATM   20  O3  UNL     1      20.940   1.796  48.603  1.00  0.00    -0.350 OA
HETATM   21  C21 UNL     1      21.096   3.726  48.655  1.00  0.00     0.179 C 
HETATM   22  C19 UNL     1      22.226   1.854  47.931  1.00  0.00     0.178 C 
HETATM   23  C20 UNL     1      22.480   3.376  48.041  1.00  0.00     0.065 C 
BRANCH  18  24
HETATM   24  O1  UNL     1      21.278   4.611  51.318  1.00  0.00    -0.346 OA
BRANCH  24  25
HETATM   25  C13 UNL     1      22.370   5.363  51.746  1.00  0.00     0.207 C 
BRANCH  25  26
HETATM   26  C14 UNL     1      23.286   5.880  50.681  1.00  0.00     0.145 C 
HETATM   27  C15 UNL     1      23.898   7.204  51.086  1.00  0.00     0.036 C 
HETATM   28  C16 UNL     1      25.273   7.128  50.454  1.00  0.00     0.029 C 
HETATM   29  C17 UNL     1      25.333   5.748  49.865  1.00  0.00     0.168 C 
HETATM   30  O2  UNL     1      24.404   5.025  50.609  1.00  0.00    -0.384 OA
ENDBRANCH  25  26
ENDBRANCH  24  25
ENDBRANCH  18  24
BRANCH  21  31
HETATM   31  O4  UNL     1      20.135   3.475  47.685  1.00  0.00    -0.389 OA
HETATM   32  H22 UNL     1      20.362   3.835  46.796  1.00  0.00     0.210 HD
ENDBRANCH  21  31
ENDBRANCH  16  18
ENDBRANCH   9  11
ENDBRANCH   7   9
TORSDOF 7
ENDMDL
MODEL 7
REMARK VINA RESULT:      -7.7      3.190      6.695
REMARK  7 active torsions:
REMARK  status: ('A' for Active; 'I' for Inactive)
REMARK    1  A    between atoms: C7_7  and  N1_8 
REMARK    2  A    between atoms: N1_8  and  C8_9 
REMARK    3  A    between atoms: C11_14  and  C12_15 
REMARK    4  A    between atoms: C12_15  and  O1_16 
REMARK    5  A    between atoms: O1_16  and  C13_17 
REMARK    6  A    between atoms: C13_17  and  C14_18 
REMARK    7  A    between atoms: C21_27  and  O4_28 
ROOT
HETATM    1  C1  UNL     1      27.417  -2.729  52.459  1.00  0.00     0.018 C 
HETATM    2  C2  UNL     1      27.250  -1.544  52.598  1.00  0.00    -0.078 C 
HETATM    3  C3  UNL     1      27.053  -0.134  52.753  1.00  0.00     0.019 A 
HETATM    4  C4  UNL     1      27.602   0.477  53.859  1.00  0.00     0.021 A 
HETATM    5  C5  UNL     1      27.418   1.834  54.005  1.00  0.00     0.004 A 
HETATM    6  C6  UNL     1      26.700   2.505  53.047  1.00  0.00     0.029 A 
HETATM    7  C7  UNL     1      26.128   1.946  51.919  1.00  0.00     0.034 A 
HETATM    8  C23 UNL     1      26.344   0.599  51.828  1.00  0.00     0.050 A 
ENDROOT
BRANCH   7   9
HETATM    9  N1  UNL     1      25.436   2.807  51.070  1.00  0.00    -0.344 N 
HETATM   10  H5  UNL     1      25.785   3.002  50.105  1.00  0.00     0.167 HD
BRANCH   9  11
HETATM   11  C8  UNL     1      24.236   3.489  51.384  1.00  0.00     0.111 A 
HETATM   12  N2  UNL     1      24.248   4.756  51.517  1.00  0.00    -0.228 NA
HETATM   13  C9  UNL     1      23.064   5.484  51.838  1.00  0.00     0.235 A 
HETATM   14  N3  UNL     1      21.917   4.945  52.023  1.00  0.00    -0.246 NA
HETATM   15  C10 UNL     1      21.797   3.507  51.903  1.00  0.00     0.045 A 
HETATM   16  C11 UNL     1      20.725   2.729  52.144  1.00  0.00     0.067 C 
HETATM   17  C22 UNL     1      22.977   2.706  51.511  1.00  0.00     0.137 A 
BRANCH  16  18
HETATM   18  C12 UNL     1      20.464   1.268  52.060  1.00  0.00     0.102 C 
HETATM   19  C18 UNL     1      20.606   0.862  53.261  1.00  0.00     0.108 C 
HETATM   20  O3  UNL     1      20.797   0.522  54.676  1.00  0.00    -0.350 OA
HETATM   21  C21 UNL     1      20.353  -0.639  53.190  1.00  0.00     0.179 C 
HETATM   22  C19 UNL     1      22.023  -0.253  54.729  1.00  0.00     0.178 C 
HETATM   23  C20 UNL     1      21.796  -1.138  53.480  1.00  0.00     0.065 C 
BRANCH  18  24
HETATM   24  O1  UNL     1      20.172   0.854  50.815  1.00  0.00    -0.346 OA
BRANCH  24  25
HETATM   25  C13 UNL     1      19.518   1.465  49.747  1.00  0.00     0.207 C 
BRANCH  25  26
HETATM   26  C14 UNL     1      20.360   1.820  48.561  1.00  0.00     0.145 C 
HETATM   27  C15 UNL     1      20.629   3.309  48.511  1.00  0.00     0.036 C 
HETATM   28  C16 UNL     1      22.024   3.362  47.920  1.00  0.00     0.029 C 
HETATM   29  C17 UNL     1      22.431   1.922  47.805  1.00  0.00     0.168 C 
HETATM   30  O2  UNL     1      21.645   1.273  48.753  1.00  0.00    -0.384 OA
ENDBRANCH  25  26
ENDBRANCH  24  25
ENDBRANCH  18  24
BRANCH  21  31
HETATM   31  O4  UNL     1      19.545  -1.074  54.233  1.00  0.00    -0.389 OA
HETATM   32  H22 UNL     1      19.731  -1.998  54.522  1.00  0.00     0.210 HD
ENDBRANCH  21  31
ENDBRANCH  16  18
ENDBRANCH   9  11
ENDBRANCH   7   9
TORSDOF 7
ENDMDL
MODEL 8
REMARK VINA RESULT:      -7.5      3.309      7.890
REMARK  7 active torsions:
REMARK  status: ('A' for Active; 'I' for Inactive)
REMARK    1  A    between atoms: C7_7  and  N1_8 
REMARK    2  A    between atoms: N1_8  and  C8_9 
REMARK    3  A    between atoms: C11_14  and  C12_15 
REMARK    4  A    between atoms: C12_15  and  O1_16 
REMARK    5  A    between atoms: O1_16  and  C13_17 
REMARK    6  A    between atoms: C13_17  and  C14_18 
REMARK    7  A    between atoms: C21_27  and  O4_28 
ROOT
HETATM    1  C1  UNL     1      24.169   8.666  48.318  1.00  0.00     0.018 C 
HETATM    2  C2  UNL     1      25.042   7.838  48.365  1.00  0.00    -0.078 C 
HETATM    3  C3  UNL     1      26.078   6.849  48.428  1.00  0.00     0.019 A 
HETATM    4  C4  UNL     1      27.340   7.208  48.008  1.00  0.00     0.021 A 
HETATM    5  C5  UNL     1      28.336   6.259  48.075  1.00  0.00     0.004 A 
HETATM    6  C6  UNL     1      28.022   5.012  48.554  1.00  0.00     0.029 A 
HETATM    7  C7  UNL     1      26.777   4.596  48.988  1.00  0.00     0.034 A 
HETATM    8  C23 UNL     1      25.830   5.579  48.898  1.00  0.00     0.050 A 
ENDROOT
BRANCH   7   9
HETATM    9  N1  UNL     1      26.671   3.281  49.436  1.00  0.00    -0.344 N 
HETATM   10  H5  UNL     1      26.911   2.481  48.809  1.00  0.00     0.167 HD
BRANCH   9  11
HETATM   11  C8  UNL     1      26.252   2.880  50.727  1.00  0.00     0.111 A 
HETATM   12  N2  UNL     1      27.112   2.454  51.565  1.00  0.00    -0.228 NA
HETATM   13  C9  UNL     1      26.734   2.035  52.875  1.00  0.00     0.235 A 
HETATM   14  N3  UNL     1      25.530   2.043  53.313  1.00  0.00    -0.246 NA
HETATM   15  C10 UNL     1      24.474   2.502  52.435  1.00  0.00     0.045 A 
HETATM   16  C11 UNL     1      23.145   2.507  52.650  1.00  0.00     0.067 C 
HETATM   17  C22 UNL     1      24.813   3.008  51.087  1.00  0.00     0.137 A 
BRANCH  16  18
HETATM   18  C12 UNL     1      21.968   2.945  51.853  1.00  0.00     0.102 C 
HETATM   19  C18 UNL     1      21.614   1.891  51.226  1.00  0.00     0.108 C 
HETATM   20  O3  UNL     1      21.308   0.617  50.566  1.00  0.00    -0.350 OA
HETATM   21  C21 UNL     1      20.413   2.327  50.395  1.00  0.00     0.179 C 
HETATM   22  C19 UNL     1      21.641   0.813  49.167  1.00  0.00     0.178 C 
HETATM   23  C20 UNL     1      21.055   2.234  48.983  1.00  0.00     0.065 C 
BRANCH  18  24
HETATM   24  O1  UNL     1      21.659   4.241  52.035  1.00  0.00    -0.346 OA
BRANCH  24  25
HETATM   25  C13 UNL     1      22.278   5.422  51.634  1.00  0.00     0.207 C 
BRANCH  25  26
HETATM   26  C14 UNL     1      21.638   6.163  50.502  1.00  0.00     0.145 C 
HETATM   27  C15 UNL     1      22.149   5.664  49.167  1.00  0.00     0.036 C 
HETATM   28  C16 UNL     1      20.927   5.812  48.282  1.00  0.00     0.029 C 
HETATM   29  C17 UNL     1      19.845   6.264  49.218  1.00  0.00     0.168 C 
HETATM   30  O2  UNL     1      20.271   5.818  50.466  1.00  0.00    -0.384 OA
ENDBRANCH  25  26
ENDBRANCH  24  25
ENDBRANCH  18  24
BRANCH  21  31
HETATM   31  O4  UNL     1      19.386   1.393  50.447  1.00  0.00    -0.389 OA
HETATM   32  H22 UNL     1      19.697   0.459  50.464  1.00  0.00     0.210 HD
ENDBRANCH  21  31
ENDBRANCH  16  18
ENDBRANCH   9  11
ENDBRANCH   7   9
TORSDOF 7
ENDMDL
MODEL 9
REMARK VINA RESULT:      -7.5      2.890      6.213
REMARK  7 active torsions:
REMARK  status: ('A' for Active; 'I' for Inactive)
REMARK    1  A    between atoms: C7_7  and  N1_8 
REMARK    2  A    between atoms: N1_8  and  C8_9 
REMARK    3  A    between atoms: C11_14  and  C12_15 
REMARK    4  A    between atoms: C12_15  and  O1_16 
REMARK    5  A    between atoms: O1_16  and  C13_17 
REMARK    6  A    between atoms: C13_17  and  C14_18 
REMARK    7  A    between atoms: C21_27  and  O4_28 
ROOT
HETATM    1  C1  UNL     1      29.016  -2.553  53.191  1.00  0.00     0.018 C 
HETATM    2  C2  UNL     1      28.572  -1.433  53.192  1.00  0.00    -0.078 C 
HETATM    3  C3  UNL     1      28.039  -0.103  53.185  1.00  0.00     0.019 A 
HETATM    4  C4  UNL     1      28.887   0.934  53.509  1.00  0.00     0.021 A 
HETATM    5  C5  UNL     1      28.376   2.213  53.495  1.00  0.00     0.004 A 
HETATM    6  C6  UNL     1      27.056   2.388  53.163  1.00  0.00     0.029 A 
HETATM    7  C7  UNL     1      26.161   1.388  52.829  1.00  0.00     0.034 A 
HETATM    8  C23 UNL     1      26.724   0.143  52.860  1.00  0.00     0.050 A 
ENDROOT
BRANCH   7   9
HETATM    9  N1  UNL     1      24.860   1.782  52.524  1.00  0.00    -0.344 N 
HETATM   10  H5  UNL     1      24.666   2.727  52.124  1.00  0.00     0.167 HD
BRANCH   9  11
HETATM   11  C8  UNL     1      23.696   0.996  52.703  1.00  0.00     0.111 A 
HETATM   12  N2  UNL     1      23.712   0.026  53.530  1.00  0.00    -0.228 NA
HETATM   13  C9  UNL     1      22.565  -0.795  53.739  1.00  0.00     0.235 A 
HETATM   14  N3  UNL     1      21.449  -0.641  53.128  1.00  0.00    -0.246 NA
HETATM   15  C10 UNL     1      21.330   0.430  52.160  1.00  0.00     0.045 A 
HETATM   16  C11 UNL     1      20.296   0.714  51.344  1.00  0.00     0.067 C 
HETATM   17  C22 UNL     1      22.465   1.352  51.947  1.00  0.00     0.137 A 
BRANCH  16  18
HETATM   18  C12 UNL     1      20.041   1.764  50.323  1.00  0.00     0.102 C 
HETATM   19  C18 UNL     1      19.498   2.710  50.986  1.00  0.00     0.108 C 
HETATM   20  O3  UNL     1      18.887   3.720  51.857  1.00  0.00    -0.350 OA
HETATM   21  C21 UNL     1      19.219   3.792  49.950  1.00  0.00     0.179 C 
HETATM   22  C19 UNL     1      17.489   3.774  51.470  1.00  0.00     0.178 C 
HETATM   23  C20 UNL     1      17.668   3.713  49.934  1.00  0.00     0.065 C 
BRANCH  18  24
HETATM   24  O1  UNL     1      20.443   1.411  49.090  1.00  0.00    -0.346 OA
BRANCH  24  25
HETATM   25  C13 UNL     1      21.700   1.163  48.543  1.00  0.00     0.207 C 
BRANCH  25  26
HETATM   26  C14 UNL     1      22.459   2.352  48.042  1.00  0.00     0.145 C 
HETATM   27  C15 UNL     1      21.631   3.151  47.058  1.00  0.00     0.036 C 
HETATM   28  C16 UNL     1      22.086   4.570  47.335  1.00  0.00     0.029 C 
HETATM   29  C17 UNL     1      23.022   4.437  48.501  1.00  0.00     0.168 C 
HETATM   30  O2  UNL     1      22.628   3.251  49.115  1.00  0.00    -0.384 OA
ENDBRANCH  25  26
ENDBRANCH  24  25
ENDBRANCH  18  24
BRANCH  21  31
HETATM   31  O4  UNL     1      19.566   5.053  50.418  1.00  0.00    -0.389 OA
HETATM   32  H22 UNL     1      18.885   5.464  50.999  1.00  0.00     0.210 HD
ENDBRANCH  21  31
ENDBRANCH  16  18
ENDBRANCH   9  11
ENDBRANCH   7   9
TORSDOF 7
ENDMDL
