MODEL 1
REMARK VINA RESULT:      -7.9      0.000      0.000
REMARK  6 active torsions:
REMARK  status: ('A' for Active; 'I' for Inactive)
REMARK    1  A    between atoms: O1_2  and  C2_3 
REMARK    2  A    between atoms: C4_5  and  N1_6 
REMARK       I    between atoms: N2_9  and  C7_10 
REMARK    3  A    between atoms: C13_17  and  N3_18 
REMARK    4  A    between atoms: N3_18  and  C14_19 
REMARK    5  A    between atoms: N4_20  and  C15_21 
REMARK    6  A    between atoms: C16_22  and  C18_24 
ROOT
HETATM    1  C2  UNL     1      20.882   0.854  53.075  1.00  0.00     0.097 A 
HETATM    2  C3  UNL     1      22.238   1.079  52.967  1.00  0.00     0.068 A 
HETATM    3  C4  UNL     1      23.211   0.240  53.463  1.00  0.00     0.033 A 
HETATM    4  C11 UNL     1      22.717  -0.877  54.099  1.00  0.00     0.032 A 
HETATM    5  C12 UNL     1      21.366  -1.123  54.220  1.00  0.00     0.035 A 
HETATM    6  C13 UNL     1      20.388  -0.260  53.708  1.00  0.00     0.067 A 
ENDROOT
BRANCH   3   7
HETATM    7  N1  UNL     1      24.578   0.530  53.323  1.00  0.00    -0.378 N 
HETATM    8  C5  UNL     1      25.098   1.846  53.196  1.00  0.00     0.143 C 
HETATM    9  C6  UNL     1      26.446   2.111  53.737  1.00  0.00     0.145 C 
HETATM   10  N2  UNL     1      27.348   1.021  53.857  1.00  0.00    -0.349 N 
HETATM   11  C7  UNL     1      28.727   1.134  53.499  1.00  0.00     0.215 C 
HETATM   12  C9  UNL     1      26.608  -0.109  54.375  1.00  0.00     0.145 C 
HETATM   13  C8  UNL     1      29.635  -0.045  53.644  1.00  0.00     0.117 C 
HETATM   14  O2  UNL     1      28.988   2.298  53.083  1.00  0.00    -0.274 OA
HETATM   15  C10 UNL     1      25.616  -0.478  53.279  1.00  0.00     0.143 C 
ENDBRANCH   3   7
BRANCH   1  16
HETATM   16  O1  UNL     1      19.934   1.724  52.565  1.00  0.00    -0.354 OA
HETATM   17  C1  UNL     1      20.322   3.055  52.297  1.00  0.00     0.210 C 
ENDBRANCH   1  16
BRANCH   6  18
HETATM   18  N3  UNL     1      19.042  -0.657  53.891  1.00  0.00    -0.349 N 
HETATM   19  H18 UNL     1      18.571  -0.504  54.836  1.00  0.00     0.167 HD
BRANCH  18  20
HETATM   20  C14 UNL     1      18.234  -1.252  52.866  1.00  0.00     0.207 C 
HETATM   21  N4  UNL     1      17.083  -1.652  53.308  1.00  0.00    -0.256 NA
BRANCH  21  22
HETATM   22  C15 UNL     1      16.084  -2.269  52.549  1.00  0.00     0.122 C 
HETATM   23  C16 UNL     1      15.798  -3.545  52.693  1.00  0.00    -0.038 C 
HETATM   24  C17 UNL     1      14.734  -4.102  51.853  1.00  0.00     0.047 C 
BRANCH  23  25
HETATM   25  C18 UNL     1      16.476  -4.442  53.641  1.00  0.00     0.257 C 
HETATM   26  F1  UNL     1      17.606  -4.952  53.033  1.00  0.00    -0.251 F 
ENDBRANCH  23  25
ENDBRANCH  21  22
ENDBRANCH  18  20
ENDBRANCH   6  18
TORSDOF 6
ENDMDL
MODEL 2
REMARK VINA RESULT:      -7.4      1.805      2.039
REMARK  6 active torsions:
REMARK  status: ('A' for Active; 'I' for Inactive)
REMARK    1  A    between atoms: O1_2  and  C2_3 
REMARK    2  A    between atoms: C4_5  and  N1_6 
REMARK       I    between atoms: N2_9  and  C7_10 
REMARK    3  A    between atoms: C13_17  and  N3_18 
REMARK    4  A    between atoms: N3_18  and  C14_19 
REMARK    5  A    between atoms: N4_20  and  C15_21 
REMARK    6  A    between atoms: C16_22  and  C18_24 
ROOT
HETATM    1  C2  UNL     1      20.745   0.777  53.117  1.00  0.00     0.097 A 
HETATM    2  C3  UNL     1      22.093   1.046  53.009  1.00  0.00     0.068 A 
HETATM    3  C4  UNL     1      23.094   0.208  53.448  1.00  0.00     0.033 A 
HETATM    4  C11 UNL     1      22.638  -0.957  54.023  1.00  0.00     0.032 A 
HETATM    5  C12 UNL     1      21.296  -1.248  54.142  1.00  0.00     0.035 A 
HETATM    6  C13 UNL     1      20.289  -0.385  53.689  1.00  0.00     0.067 A 
ENDROOT
BRANCH   3   7
HETATM    7  N1  UNL     1      24.451   0.545  53.312  1.00  0.00    -0.378 N 
HETATM    8  C5  UNL     1      24.926   1.876  53.177  1.00  0.00     0.143 C 
HETATM    9  C6  UNL     1      26.261   2.193  53.723  1.00  0.00     0.145 C 
HETATM   10  N2  UNL     1      27.199   1.136  53.856  1.00  0.00    -0.349 N 
HETATM   11  C7  UNL     1      28.575   1.294  53.503  1.00  0.00     0.215 C 
HETATM   12  C9  UNL     1      26.496  -0.015  54.379  1.00  0.00     0.145 C 
HETATM   13  C8  UNL     1      29.523   0.148  53.662  1.00  0.00     0.117 C 
HETATM   14  O2  UNL     1      28.798   2.463  53.079  1.00  0.00    -0.274 OA
HETATM   15  C10 UNL     1      25.523  -0.427  53.281  1.00  0.00     0.143 C 
ENDBRANCH   3   7
BRANCH   1  16
HETATM   16  O1  UNL     1      19.767   1.647  52.666  1.00  0.00    -0.354 OA
HETATM   17  C1  UNL     1      20.097   2.541  51.623  1.00  0.00     0.210 C 
ENDBRANCH   1  16
BRANCH   6  18
HETATM   18  N3  UNL     1      18.956  -0.831  53.861  1.00  0.00    -0.349 N 
HETATM   19  H18 UNL     1      18.534  -0.863  54.841  1.00  0.00     0.167 HD
BRANCH  18  20
HETATM   20  C14 UNL     1      18.101  -1.238  52.785  1.00  0.00     0.207 C 
HETATM   21  N4  UNL     1      16.853  -0.970  53.011  1.00  0.00    -0.256 NA
BRANCH  21  22
HETATM   22  C15 UNL     1      15.787  -1.248  52.151  1.00  0.00     0.122 C 
HETATM   23  C16 UNL     1      14.644  -0.603  52.239  1.00  0.00    -0.038 C 
HETATM   24  C17 UNL     1      13.586  -0.964  51.291  1.00  0.00     0.047 C 
BRANCH  23  25
HETATM   25  C18 UNL     1      14.364   0.453  53.224  1.00  0.00     0.257 C 
HETATM   26  F1  UNL     1      14.944   1.628  52.788  1.00  0.00    -0.251 F 
ENDBRANCH  23  25
ENDBRANCH  21  22
ENDBRANCH  18  20
ENDBRANCH   6  18
TORSDOF 6
ENDMDL
MODEL 3
REMARK VINA RESULT:      -7.2      6.589     11.729
REMARK  6 active torsions:
REMARK  status: ('A' for Active; 'I' for Inactive)
REMARK    1  A    between atoms: O1_2  and  C2_3 
REMARK    2  A    between atoms: C4_5  and  N1_6 
REMARK       I    between atoms: N2_9  and  C7_10 
REMARK    3  A    between atoms: C13_17  and  N3_18 
REMARK    4  A    between atoms: N3_18  and  C14_19 
REMARK    5  A    between atoms: N4_20  and  C15_21 
REMARK    6  A    between atoms: C16_22  and  C18_24 
ROOT
HETATM    1  C2  UNL     1      26.677   6.558  49.059  1.00  0.00     0.097 A 
HETATM    2  C3  UNL     1      25.586   6.063  49.742  1.00  0.00     0.068 A 
HETATM    3  C4  UNL     1      25.368   4.729  50.004  1.00  0.00     0.033 A 
HETATM    4  C11 UNL     1      26.350   3.895  49.517  1.00  0.00     0.032 A 
HETATM    5  C12 UNL     1      27.449   4.365  48.831  1.00  0.00     0.035 A 
HETATM    6  C13 UNL     1      27.657   5.727  48.574  1.00  0.00     0.067 A 
ENDROOT
BRANCH   3   7
HETATM    7  N1  UNL     1      24.232   4.289  50.702  1.00  0.00    -0.378 N 
HETATM    8  C5  UNL     1      22.982   4.964  50.683  1.00  0.00     0.143 C 
HETATM    9  C6  UNL     1      21.756   4.152  50.817  1.00  0.00     0.145 C 
HETATM   10  N2  UNL     1      21.853   2.895  51.470  1.00  0.00    -0.349 N 
HETATM   11  C7  UNL     1      20.868   2.448  52.405  1.00  0.00     0.215 C 
HETATM   12  C9  UNL     1      23.060   2.247  51.006  1.00  0.00     0.145 C 
HETATM   13  C8  UNL     1      21.016   1.115  53.066  1.00  0.00     0.117 C 
HETATM   14  O2  UNL     1      19.955   3.312  52.542  1.00  0.00    -0.274 OA
HETATM   15  C10 UNL     1      24.205   3.104  51.533  1.00  0.00     0.143 C 
ENDBRANCH   3   7
BRANCH   1  16
HETATM   16  O1  UNL     1      26.860   7.908  48.813  1.00  0.00    -0.354 OA
HETATM   17  C1  UNL     1      27.005   8.775  49.919  1.00  0.00     0.210 C 
ENDBRANCH   1  16
BRANCH   6  18
HETATM   18  N3  UNL     1      28.843   6.060  47.877  1.00  0.00    -0.349 N 
HETATM   19  H18 UNL     1      28.778   6.480  46.897  1.00  0.00     0.167 HD
BRANCH  18  20
HETATM   20  C14 UNL     1      30.164   5.887  48.409  1.00  0.00     0.207 C 
HETATM   21  N4  UNL     1      30.853   5.005  47.755  1.00  0.00    -0.256 NA
BRANCH  21  22
HETATM   22  C15 UNL     1      32.166   4.621  48.036  1.00  0.00     0.122 C 
HETATM   23  C16 UNL     1      32.705   3.554  47.487  1.00  0.00    -0.038 C 
HETATM   24  C17 UNL     1      34.090   3.232  47.844  1.00  0.00     0.047 C 
BRANCH  23  25
HETATM   25  C18 UNL     1      32.008   2.669  46.542  1.00  0.00     0.257 C 
HETATM   26  F1  UNL     1      32.529   1.396  46.665  1.00  0.00    -0.251 F 
ENDBRANCH  23  25
ENDBRANCH  21  22
ENDBRANCH  18  20
ENDBRANCH   6  18
TORSDOF 6
ENDMDL
MODEL 4
REMARK VINA RESULT:      -7.1      4.581      5.686
REMARK  6 active torsions:
REMARK  status: ('A' for Active; 'I' for Inactive)
REMARK    1  A    between atoms: O1_2  and  C2_3 
REMARK    2  A    between atoms: C4_5  and  N1_6 
REMARK       I    between atoms: N2_9  and  C7_10 
REMARK    3  A    between atoms: C13_17  and  N3_18 
REMARK    4  A    between atoms: N3_18  and  C14_19 
REMARK    5  A    between atoms: N4_20  and  C15_21 
REMARK    6  A    between atoms: C16_22  and  C18_24 
ROOT
HETATM    1  C2  UNL     1      23.170   3.620  52.527  1.00  0.00     0.097 A 
HETATM    2  C3  UNL     1      24.242   2.791  52.780  1.00  0.00     0.068 A 
HETATM    3  C4  UNL     1      24.176   1.416  52.811  1.00  0.00     0.033 A 
HETATM    4  C11 UNL     1      22.919   0.909  52.562  1.00  0.00     0.032 A 
HETATM    5  C12 UNL     1      21.832   1.717  52.306  1.00  0.00     0.035 A 
HETATM    6  C13 UNL     1      21.917   3.116  52.277  1.00  0.00     0.067 A 
ENDROOT
BRANCH   3   7
HETATM    7  N1  UNL     1      25.307   0.627  53.081  1.00  0.00    -0.378 N 
HETATM    8  C5  UNL     1      25.340  -0.785  52.932  1.00  0.00     0.143 C 
HETATM    9  C6  UNL     1      26.624  -1.410  52.558  1.00  0.00     0.145 C 
HETATM   10  N2  UNL     1      27.823  -0.721  52.877  1.00  0.00    -0.349 N 
HETATM   11  C7  UNL     1      28.969  -1.395  53.404  1.00  0.00     0.215 C 
HETATM   12  C9  UNL     1      27.624   0.678  52.570  1.00  0.00     0.145 C 
HETATM   13  C8  UNL     1      30.209  -0.623  53.724  1.00  0.00     0.117 C 
HETATM   14  O2  UNL     1      28.742  -2.633  53.529  1.00  0.00    -0.274 OA
HETATM   15  C10 UNL     1      26.566   1.160  53.555  1.00  0.00     0.143 C 
ENDBRANCH   3   7
BRANCH   1  16
HETATM   16  O1  UNL     1      23.276   5.000  52.507  1.00  0.00    -0.354 OA
HETATM   17  C1  UNL     1      23.869   5.609  51.379  1.00  0.00     0.210 C 
ENDBRANCH   1  16
BRANCH   6  18
HETATM   18  N3  UNL     1      20.720   3.811  51.979  1.00  0.00    -0.349 N 
HETATM   19  H18 UNL     1      20.103   4.164  52.776  1.00  0.00     0.167 HD
BRANCH  18  20
HETATM   20  C14 UNL     1      20.270   4.101  50.649  1.00  0.00     0.207 C 
HETATM   21  N4  UNL     1      21.202   3.942  49.762  1.00  0.00    -0.256 NA
BRANCH  21  22
HETATM   22  C15 UNL     1      21.065   4.148  48.386  1.00  0.00     0.122 C 
HETATM   23  C16 UNL     1      21.632   3.348  47.510  1.00  0.00    -0.038 C 
HETATM   24  C17 UNL     1      21.431   3.644  46.088  1.00  0.00     0.047 C 
BRANCH  23  25
HETATM   25  C18 UNL     1      22.452   2.179  47.866  1.00  0.00     0.257 C 
HETATM   26  F1  UNL     1      21.610   1.136  48.199  1.00  0.00    -0.251 F 
ENDBRANCH  23  25
ENDBRANCH  21  22
ENDBRANCH  18  20
ENDBRANCH   6  18
TORSDOF 6
ENDMDL
MODEL 5
REMARK VINA RESULT:      -7.1      3.629      5.520
REMARK  6 active torsions:
REMARK  status: ('A' for Active; 'I' for Inactive)
REMARK    1  A    between atoms: O1_2  and  C2_3 
REMARK    2  A    between atoms: C4_5  and  N1_6 
REMARK       I    between atoms: N2_9  and  C7_10 
REMARK    3  A    between atoms: C13_17  and  N3_18 
REMARK    4  A    between atoms: N3_18  and  C14_19 
REMARK    5  A    between atoms: N4_20  and  C15_21 
REMARK    6  A    between atoms: C16_22  and  C18_24 
ROOT
HETATM    1  C2  UNL     1      21.760   1.325  52.463  1.00  0.00     0.097 A 
HETATM    2  C3  UNL     1      22.934   0.650  52.720  1.00  0.00     0.068 A 
HETATM    3  C4  UNL     1      24.160   1.252  52.892  1.00  0.00     0.033 A 
HETATM    4  C11 UNL     1      24.130   2.625  52.784  1.00  0.00     0.032 A 
HETATM    5  C12 UNL     1      22.969   3.323  52.527  1.00  0.00     0.035 A 
HETATM    6  C13 UNL     1      21.729   2.694  52.356  1.00  0.00     0.067 A 
ENDROOT
BRANCH   3   7
HETATM    7  N1  UNL     1      25.322   0.505  53.147  1.00  0.00    -0.378 N 
HETATM    8  C5  UNL     1      25.405  -0.904  52.989  1.00  0.00     0.143 C 
HETATM    9  C6  UNL     1      26.709  -1.479  52.599  1.00  0.00     0.145 C 
HETATM   10  N2  UNL     1      27.885  -0.748  52.912  1.00  0.00    -0.349 N 
HETATM   11  C7  UNL     1      29.059  -1.383  53.424  1.00  0.00     0.215 C 
HETATM   12  C9  UNL     1      27.631   0.644  52.616  1.00  0.00     0.145 C 
HETATM   13  C8  UNL     1      30.272  -0.567  53.737  1.00  0.00     0.117 C 
HETATM   14  O2  UNL     1      28.880  -2.628  53.544  1.00  0.00    -0.274 OA
HETATM   15  C10 UNL     1      26.565   1.081  53.613  1.00  0.00     0.143 C 
ENDBRANCH   3   7
BRANCH   1  16
HETATM   16  O1  UNL     1      20.546   0.683  52.294  1.00  0.00    -0.354 OA
HETATM   17  C1  UNL     1      20.022  -0.054  53.380  1.00  0.00     0.210 C 
ENDBRANCH   1  16
BRANCH   6  18
HETATM   18  N3  UNL     1      20.621   3.544  52.120  1.00  0.00    -0.349 N 
HETATM   19  H18 UNL     1      19.964   3.788  52.925  1.00  0.00     0.167 HD
BRANCH  18  20
HETATM   20  C14 UNL     1      20.316   4.131  50.847  1.00  0.00     0.207 C 
HETATM   21  N4  UNL     1      20.912   3.530  49.866  1.00  0.00    -0.256 NA
BRANCH  21  22
HETATM   22  C15 UNL     1      20.811   3.873  48.515  1.00  0.00     0.122 C 
HETATM   23  C16 UNL     1      21.537   3.273  47.595  1.00  0.00    -0.038 C 
HETATM   24  C17 UNL     1      21.359   3.701  46.204  1.00  0.00     0.047 C 
BRANCH  23  25
HETATM   25  C18 UNL     1      22.510   2.207  47.876  1.00  0.00     0.257 C 
HETATM   26  F1  UNL     1      21.826   1.017  48.031  1.00  0.00    -0.251 F 
ENDBRANCH  23  25
ENDBRANCH  21  22
ENDBRANCH  18  20
ENDBRANCH   6  18
TORSDOF 6
ENDMDL
MODEL 6
REMARK VINA RESULT:      -7.1      3.161      3.929
REMARK  6 active torsions:
REMARK  status: ('A' for Active; 'I' for Inactive)
REMARK    1  A    between atoms: O1_2  and  C2_3 
REMARK    2  A    between atoms: C4_5  and  N1_6 
REMARK       I    between atoms: N2_9  and  C7_10 
REMARK    3  A    between atoms: C13_17  and  N3_18 
REMARK    4  A    between atoms: N3_18  and  C14_19 
REMARK    5  A    between atoms: N4_20  and  C15_21 
REMARK    6  A    between atoms: C16_22  and  C18_24 
ROOT
HETATM    1  C2  UNL     1      23.270   3.638  52.378  1.00  0.00     0.097 A 
HETATM    2  C3  UNL     1      24.327   2.789  52.624  1.00  0.00     0.068 A 
HETATM    3  C4  UNL     1      24.201   1.447  52.908  1.00  0.00     0.033 A 
HETATM    4  C11 UNL     1      22.899   0.999  52.931  1.00  0.00     0.032 A 
HETATM    5  C12 UNL     1      21.826   1.829  52.689  1.00  0.00     0.035 A 
HETATM    6  C13 UNL     1      21.971   3.192  52.400  1.00  0.00     0.067 A 
ENDROOT
BRANCH   3   7
HETATM    7  N1  UNL     1      25.321   0.636  53.154  1.00  0.00    -0.378 N 
HETATM    8  C5  UNL     1      25.325  -0.776  52.995  1.00  0.00     0.143 C 
HETATM    9  C6  UNL     1      26.591  -1.423  52.596  1.00  0.00     0.145 C 
HETATM   10  N2  UNL     1      27.808  -0.759  52.899  1.00  0.00    -0.349 N 
HETATM   11  C7  UNL     1      28.949  -1.458  53.403  1.00  0.00     0.215 C 
HETATM   12  C9  UNL     1      27.631   0.646  52.605  1.00  0.00     0.145 C 
HETATM   13  C8  UNL     1      30.209  -0.712  53.706  1.00  0.00     0.117 C 
HETATM   14  O2  UNL     1      28.701  -2.692  53.524  1.00  0.00    -0.274 OA
HETATM   15  C10 UNL     1      26.599   1.141  53.611  1.00  0.00     0.143 C 
ENDBRANCH   3   7
BRANCH   1  16
HETATM   16  O1  UNL     1      23.436   4.984  52.098  1.00  0.00    -0.354 OA
HETATM   17  C1  UNL     1      24.048   5.341  50.876  1.00  0.00     0.210 C 
ENDBRANCH   1  16
BRANCH   6  18
HETATM   18  N3  UNL     1      20.777   3.912  52.152  1.00  0.00    -0.349 N 
HETATM   19  H18 UNL     1      20.627   4.859  52.620  1.00  0.00     0.167 HD
BRANCH  18  20
HETATM   20  C14 UNL     1      19.732   3.459  51.282  1.00  0.00     0.207 C 
HETATM   21  N4  UNL     1      18.700   3.017  51.930  1.00  0.00    -0.256 NA
BRANCH  21  22
HETATM   22  C15 UNL     1      17.530   2.511  51.358  1.00  0.00     0.122 C 
HETATM   23  C16 UNL     1      17.283   1.219  51.323  1.00  0.00    -0.038 C 
HETATM   24  C17 UNL     1      16.028   0.783  50.703  1.00  0.00     0.047 C 
BRANCH  23  25
HETATM   25  C18 UNL     1      18.184   0.190  51.865  1.00  0.00     0.257 C 
HETATM   26  F1  UNL     1      19.173  -0.062  50.935  1.00  0.00    -0.251 F 
ENDBRANCH  23  25
ENDBRANCH  21  22
ENDBRANCH  18  20
ENDBRANCH   6  18
TORSDOF 6
ENDMDL
MODEL 7
REMARK VINA RESULT:      -6.9      2.974      3.771
REMARK  6 active torsions:
REMARK  status: ('A' for Active; 'I' for Inactive)
REMARK    1  A    between atoms: O1_2  and  C2_3 
REMARK    2  A    between atoms: C4_5  and  N1_6 
REMARK       I    between atoms: N2_9  and  C7_10 
REMARK    3  A    between atoms: C13_17  and  N3_18 
REMARK    4  A    between atoms: N3_18  and  C14_19 
REMARK    5  A    between atoms: N4_20  and  C15_21 
REMARK    6  A    between atoms: C16_22  and  C18_24 
ROOT
HETATM    1  C2  UNL     1      21.564   0.139  52.606  1.00  0.00     0.097 A 
HETATM    2  C3  UNL     1      22.888   0.315  52.949  1.00  0.00     0.068 A 
HETATM    3  C4  UNL     1      23.811   0.990  52.181  1.00  0.00     0.033 A 
HETATM    4  C11 UNL     1      23.301   1.493  51.005  1.00  0.00     0.032 A 
HETATM    5  C12 UNL     1      21.981   1.331  50.640  1.00  0.00     0.035 A 
HETATM    6  C13 UNL     1      21.054   0.642  51.434  1.00  0.00     0.067 A 
ENDROOT
BRANCH   3   7
HETATM    7  N1  UNL     1      25.148   1.130  52.587  1.00  0.00    -0.378 N 
HETATM    8  C5  UNL     1      25.602   2.135  53.481  1.00  0.00     0.143 C 
HETATM    9  C6  UNL     1      26.750   1.816  54.354  1.00  0.00     0.145 C 
HETATM   10  N2  UNL     1      27.656   0.809  53.930  1.00  0.00    -0.349 N 
HETATM   11  C7  UNL     1      29.071   0.956  54.065  1.00  0.00     0.215 C 
HETATM   12  C9  UNL     1      26.880  -0.284  53.387  1.00  0.00     0.145 C 
HETATM   13  C8  UNL     1      29.983  -0.135  53.602  1.00  0.00     0.117 C 
HETATM   14  O2  UNL     1      29.359   2.068  54.594  1.00  0.00    -0.274 OA
HETATM   15  C10 UNL     1      26.223   0.274  52.130  1.00  0.00     0.143 C 
ENDBRANCH   3   7
BRANCH   1  16
HETATM   16  O1  UNL     1      20.666  -0.548  53.404  1.00  0.00    -0.354 OA
HETATM   17  C1  UNL     1      21.166  -1.562  54.252  1.00  0.00     0.210 C 
ENDBRANCH   1  16
BRANCH   6  18
HETATM   18  N3  UNL     1      19.730   0.575  50.938  1.00  0.00    -0.349 N 
HETATM   19  H18 UNL     1      19.271  -0.376  50.789  1.00  0.00     0.167 HD
BRANCH  18  20
HETATM   20  C14 UNL     1      18.930   1.725  50.626  1.00  0.00     0.207 C 
HETATM   21  N4  UNL     1      18.039   1.972  51.535  1.00  0.00    -0.256 NA
BRANCH  21  22
HETATM   22  C15 UNL     1      17.116   3.022  51.510  1.00  0.00     0.122 C 
HETATM   23  C16 UNL     1      15.832   2.815  51.708  1.00  0.00    -0.038 C 
HETATM   24  C17 UNL     1      14.942   3.979  51.664  1.00  0.00     0.047 C 
BRANCH  23  25
HETATM   25  C18 UNL     1      15.238   1.496  51.969  1.00  0.00     0.257 C 
HETATM   26  F1  UNL     1      14.740   1.484  53.257  1.00  0.00    -0.251 F 
ENDBRANCH  23  25
ENDBRANCH  21  22
ENDBRANCH  18  20
ENDBRANCH   6  18
TORSDOF 6
ENDMDL
MODEL 8
REMARK VINA RESULT:      -6.8      4.504      8.346
REMARK  6 active torsions:
REMARK  status: ('A' for Active; 'I' for Inactive)
REMARK    1  A    between atoms: O1_2  and  C2_3 
REMARK    2  A    between atoms: C4_5  and  N1_6 
REMARK       I    between atoms: N2_9  and  C7_10 
REMARK    3  A    between atoms: C13_17  and  N3_18 
REMARK    4  A    between atoms: N3_18  and  C14_19 
REMARK    5  A    between atoms: N4_20  and  C15_21 
REMARK    6  A    between atoms: C16_22  and  C18_24 
ROOT
HETATM    1  C2  UNL     1      22.610   1.017  52.158  1.00  0.00     0.097 A 
HETATM    2  C3  UNL     1      22.424   2.239  51.548  1.00  0.00     0.068 A 
HETATM    3  C4  UNL     1      23.247   3.331  51.719  1.00  0.00     0.033 A 
HETATM    4  C11 UNL     1      24.303   3.107  52.574  1.00  0.00     0.032 A 
HETATM    5  C12 UNL     1      24.510   1.894  53.196  1.00  0.00     0.035 A 
HETATM    6  C13 UNL     1      23.664   0.793  53.009  1.00  0.00     0.067 A 
ENDROOT
BRANCH   3   7
HETATM    7  N1  UNL     1      22.999   4.552  51.071  1.00  0.00    -0.378 N 
HETATM    8  C5  UNL     1      21.757   5.238  51.127  1.00  0.00     0.143 C 
HETATM    9  C6  UNL     1      21.779   6.713  51.052  1.00  0.00     0.145 C 
HETATM   10  N2  UNL     1      22.884   7.336  50.416  1.00  0.00    -0.349 N 
HETATM   11  C7  UNL     1      22.722   8.443  49.526  1.00  0.00     0.215 C 
HETATM   12  C9  UNL     1      24.083   6.651  50.843  1.00  0.00     0.145 C 
HETATM   13  C8  UNL     1      23.920   9.064  48.880  1.00  0.00     0.117 C 
HETATM   14  O2  UNL     1      21.501   8.751  49.410  1.00  0.00    -0.274 OA
HETATM   15  C10 UNL     1      23.976   5.247  50.260  1.00  0.00     0.143 C 
ENDBRANCH   3   7
BRANCH   1  16
HETATM   16  O1  UNL     1      21.758  -0.057  51.962  1.00  0.00    -0.354 OA
HETATM   17  C1  UNL     1      20.451   0.021  52.492  1.00  0.00     0.210 C 
ENDBRANCH   1  16
BRANCH   6  18
HETATM   18  N3  UNL     1      24.016  -0.394  53.697  1.00  0.00    -0.349 N 
HETATM   19  H18 UNL     1      23.259  -1.105  53.942  1.00  0.00     0.167 HD
BRANCH  18  20
HETATM   20  C14 UNL     1      25.355  -0.728  54.088  1.00  0.00     0.207 C 
HETATM   21  N4  UNL     1      26.133  -0.935  53.072  1.00  0.00    -0.256 NA
BRANCH  21  22
HETATM   22  C15 UNL     1      27.487  -1.277  53.135  1.00  0.00     0.122 C 
HETATM   23  C16 UNL     1      28.416  -0.374  53.365  1.00  0.00    -0.038 C 
HETATM   24  C17 UNL     1      29.808  -0.829  53.414  1.00  0.00     0.047 C 
BRANCH  23  25
HETATM   25  C18 UNL     1      28.145   1.057  53.574  1.00  0.00     0.257 C 
HETATM   26  F1  UNL     1      27.827   1.627  52.357  1.00  0.00    -0.251 F 
ENDBRANCH  23  25
ENDBRANCH  21  22
ENDBRANCH  18  20
ENDBRANCH   6  18
TORSDOF 6
ENDMDL
MODEL 9
REMARK VINA RESULT:      -6.8      1.961      2.516
REMARK  6 active torsions:
REMARK  status: ('A' for Active; 'I' for Inactive)
REMARK    1  A    between atoms: O1_2  and  C2_3 
REMARK    2  A    between atoms: C4_5  and  N1_6 
REMARK       I    between atoms: N2_9  and  C7_10 
REMARK    3  A    between atoms: C13_17  and  N3_18 
REMARK    4  A    between atoms: N3_18  and  C14_19 
REMARK    5  A    between atoms: N4_20  and  C15_21 
REMARK    6  A    between atoms: C16_22  and  C18_24 
ROOT
HETATM    1  C2  UNL     1      21.469   2.760  51.707  1.00  0.00     0.097 A 
HETATM    2  C3  UNL     1      22.693   2.512  52.290  1.00  0.00     0.068 A 
HETATM    3  C4  UNL     1      23.170   1.259  52.602  1.00  0.00     0.033 A 
HETATM    4  C11 UNL     1      22.308   0.235  52.280  1.00  0.00     0.032 A 
HETATM    5  C12 UNL     1      21.079   0.457  51.696  1.00  0.00     0.035 A 
HETATM    6  C13 UNL     1      20.608   1.739  51.384  1.00  0.00     0.067 A 
ENDROOT
BRANCH   3   7
HETATM    7  N1  UNL     1      24.427   1.075  53.201  1.00  0.00    -0.378 N 
HETATM    8  C5  UNL     1      24.889  -0.172  53.700  1.00  0.00     0.143 C 
HETATM    9  C6  UNL     1      26.341  -0.440  53.652  1.00  0.00     0.145 C 
HETATM   10  N2  UNL     1      27.228   0.668  53.633  1.00  0.00    -0.349 N 
HETATM   11  C7  UNL     1      28.427   0.694  54.411  1.00  0.00     0.215 C 
HETATM   12  C9  UNL     1      26.680   1.657  52.732  1.00  0.00     0.145 C 
HETATM   13  C8  UNL     1      29.327   1.886  54.356  1.00  0.00     0.117 C 
HETATM   14  O2  UNL     1      28.552  -0.374  55.077  1.00  0.00    -0.274 OA
HETATM   15  C10 UNL     1      25.393   2.136  53.392  1.00  0.00     0.143 C 
ENDBRANCH   3   7
BRANCH   1  16
HETATM   16  O1  UNL     1      21.022   4.036  51.411  1.00  0.00    -0.354 OA
HETATM   17  C1  UNL     1      21.895   5.122  51.648  1.00  0.00     0.210 C 
ENDBRANCH   1  16
BRANCH   6  18
HETATM   18  N3  UNL     1      19.336   1.809  50.767  1.00  0.00    -0.349 N 
HETATM   19  H18 UNL     1      18.952   2.755  50.456  1.00  0.00     0.167 HD
BRANCH  18  20
HETATM   20  C14 UNL     1      18.506   0.668  50.507  1.00  0.00     0.207 C 
HETATM   21  N4  UNL     1      17.520   0.569  51.343  1.00  0.00    -0.256 NA
BRANCH  21  22
HETATM   22  C15 UNL     1      16.547  -0.435  51.343  1.00  0.00     0.122 C 
HETATM   23  C16 UNL     1      16.488  -1.337  52.299  1.00  0.00    -0.038 C 
HETATM   24  C17 UNL     1      15.431  -2.349  52.214  1.00  0.00     0.047 C 
BRANCH  23  25
HETATM   25  C18 UNL     1      17.412  -1.392  53.442  1.00  0.00     0.257 C 
HETATM   26  F1  UNL     1      18.610  -1.931  53.014  1.00  0.00    -0.251 F 
ENDBRANCH  23  25
ENDBRANCH  21  22
ENDBRANCH  18  20
ENDBRANCH   6  18
TORSDOF 6
ENDMDL
