MODEL 1
REMARK VINA RESULT:      -7.1      0.000      0.000
REMARK  7 active torsions:
REMARK  status: ('A' for Active; 'I' for Inactive)
REMARK    1  A    between atoms: C2_3  and  N1_4 
REMARK    2  A    between atoms: N1_4  and  P1_5 
REMARK    3  A    between atoms: P1_5  and  C3_6 
REMARK    4  A    between atoms: C5_8  and  C6_9 
REMARK    5  A    between atoms: C6_9  and  O1_10 
REMARK    6  A    between atoms: C6_9  and  P2_13 
REMARK    7  A    between atoms: O1_10  and  C7_11 
ROOT
HETATM    1  C3  UNL     1      27.076   2.280  52.705  1.00  0.00     0.081 A 
HETATM    2  C4  UNL     1      25.880   1.898  53.266  1.00  0.00     0.064 A 
HETATM    3  C5  UNL     1      24.726   1.865  52.506  1.00  0.00     0.073 A 
HETATM    4  N2  UNL     1      24.814   2.223  51.190  1.00  0.00    -0.243 NA
HETATM    5  C11 UNL     1      26.018   2.598  50.665  1.00  0.00     0.234 A 
HETATM    6  N3  UNL     1      27.149   2.632  51.405  1.00  0.00    -0.240 NA
ENDROOT
BRANCH   3   7
HETATM    7  C6  UNL     1      23.359   1.496  52.880  1.00  0.00     0.226 C 
BRANCH   7   8
HETATM    8  O1  UNL     1      23.101   0.144  52.667  1.00  0.00    -0.359 OA
BRANCH   8   9
HETATM    9  C7  UNL     1      23.316  -0.543  53.865  1.00  0.00     0.283 C 
HETATM   10 CL1  UNL     1      21.811  -0.609  54.817  1.00  0.00    -0.102 Cl
ENDBRANCH   8   9
ENDBRANCH   7   8
BRANCH   7  11
HETATM   11  P2  UNL     1      22.092   2.461  52.063  1.00  0.00     0.044 P 
HETATM   12  C8  UNL     1      20.649   2.135  52.732  1.00  0.00     0.163 C 
HETATM   13  O2  UNL     1      19.713   3.148  52.489  1.00  0.00    -0.359 OA
HETATM   14  C9  UNL     1      20.039   4.015  51.411  1.00  0.00     0.201 C 
HETATM   15  C10 UNL     1      21.292   4.815  51.650  1.00  0.00     0.199 C 
HETATM   16  O3  UNL     1      22.320   4.113  52.212  1.00  0.00    -0.362 OA
HETATM   17  H7  UNL     1      22.008   2.125  50.694  1.00  0.00     0.090 HD
ENDBRANCH   7  11
ENDBRANCH   3   7
BRANCH   1  18
HETATM   18  P1  UNL     1      28.564   2.298  53.782  1.00  0.00     0.025 P 
HETATM   19  H2  UNL     1      28.449   3.354  54.795  1.00  0.00     0.086 HD
BRANCH  18  20
HETATM   20  N1  UNL     1      28.534   0.742  54.715  1.00  0.00    -0.363 N 
HETATM   21  H1  UNL     1      28.330   0.673  55.749  1.00  0.00     0.164 HD
BRANCH  20  22
HETATM   22  C2  UNL     1      28.800  -0.464  54.017  1.00  0.00     0.043 A 
HETATM   23  C1  UNL     1      28.024  -1.235  53.320  1.00  0.00     0.116 A 
HETATM   24  F1  UNL     1      26.719  -1.294  52.936  1.00  0.00    -0.209 F 
HETATM   25  C13 UNL     1      29.090  -2.166  53.008  1.00  0.00     0.078 A 
HETATM   26  C12 UNL     1      29.974  -1.279  53.809  1.00  0.00     0.067 A 
ENDBRANCH  20  22
ENDBRANCH  18  20
ENDBRANCH   1  18
TORSDOF 7
ENDMDL
MODEL 2
REMARK VINA RESULT:      -6.9      3.145      6.263
REMARK  7 active torsions:
REMARK  status: ('A' for Active; 'I' for Inactive)
REMARK    1  A    between atoms: C2_3  and  N1_4 
REMARK    2  A    between atoms: N1_4  and  P1_5 
REMARK    3  A    between atoms: P1_5  and  C3_6 
REMARK    4  A    between atoms: C5_8  and  C6_9 
REMARK    5  A    between atoms: C6_9  and  O1_10 
REMARK    6  A    between atoms: C6_9  and  P2_13 
REMARK    7  A    between atoms: O1_10  and  C7_11 
ROOT
HETATM    1  C3  UNL     1      24.010   3.747  50.781  1.00  0.00     0.081 A 
HETATM    2  C4  UNL     1      24.406   2.441  50.958  1.00  0.00     0.064 A 
HETATM    3  C5  UNL     1      24.518   1.907  52.227  1.00  0.00     0.073 A 
HETATM    4  N2  UNL     1      24.226   2.714  53.291  1.00  0.00    -0.243 NA
HETATM    5  C11 UNL     1      23.837   4.006  53.079  1.00  0.00     0.234 A 
HETATM    6  N3  UNL     1      23.726   4.532  51.839  1.00  0.00    -0.240 NA
ENDROOT
BRANCH   3   7
HETATM    7  C6  UNL     1      24.914   0.564  52.655  1.00  0.00     0.226 C 
BRANCH   7   8
HETATM    8  O1  UNL     1      24.204   0.137  53.775  1.00  0.00    -0.359 OA
BRANCH   8   9
HETATM    9  C7  UNL     1      23.208  -0.750  53.356  1.00  0.00     0.283 C 
HETATM   10 CL1  UNL     1      22.154  -1.188  54.725  1.00  0.00    -0.102 Cl
ENDBRANCH   8   9
ENDBRANCH   7   8
BRANCH   7  11
HETATM   11  P2  UNL     1      26.665   0.386  52.981  1.00  0.00     0.044 P 
HETATM   12  C8  UNL     1      27.447   1.719  52.483  1.00  0.00     0.163 C 
HETATM   13  O2  UNL     1      28.695   1.861  53.101  1.00  0.00    -0.359 OA
HETATM   14  C9  UNL     1      29.209   0.674  53.688  1.00  0.00     0.201 C 
HETATM   15  C10 UNL     1      28.368   0.160  54.826  1.00  0.00     0.199 C 
HETATM   16  O3  UNL     1      27.021   0.209  54.608  1.00  0.00    -0.362 OA
HETATM   17  H7  UNL     1      27.201  -0.708  52.267  1.00  0.00     0.090 HD
ENDBRANCH   7  11
ENDBRANCH   3   7
BRANCH   1  18
HETATM   18  P1  UNL     1      23.886   4.382  49.061  1.00  0.00     0.025 P 
HETATM   19  H2  UNL     1      22.526   4.862  48.791  1.00  0.00     0.086 HD
BRANCH  18  20
HETATM   20  N1  UNL     1      24.934   5.861  48.990  1.00  0.00    -0.363 N 
HETATM   21  H1  UNL     1      24.577   6.849  49.110  1.00  0.00     0.164 HD
BRANCH  20  22
HETATM   22  C2  UNL     1      26.322   5.689  48.757  1.00  0.00     0.043 A 
HETATM   23  C1  UNL     1      27.080   4.641  48.857  1.00  0.00     0.116 A 
HETATM   24  F1  UNL     1      26.966   3.325  49.189  1.00  0.00    -0.209 F 
HETATM   25  C13 UNL     1      28.271   5.360  48.451  1.00  0.00     0.078 A 
HETATM   26  C12 UNL     1      27.398   6.558  48.341  1.00  0.00     0.067 A 
ENDBRANCH  20  22
ENDBRANCH  18  20
ENDBRANCH   1  18
TORSDOF 7
ENDMDL
MODEL 3
REMARK VINA RESULT:      -6.8      3.543      5.211
REMARK  7 active torsions:
REMARK  status: ('A' for Active; 'I' for Inactive)
REMARK    1  A    between atoms: C2_3  and  N1_4 
REMARK    2  A    between atoms: N1_4  and  P1_5 
REMARK    3  A    between atoms: P1_5  and  C3_6 
REMARK    4  A    between atoms: C5_8  and  C6_9 
REMARK    5  A    between atoms: C6_9  and  O1_10 
REMARK    6  A    between atoms: C6_9  and  P2_13 
REMARK    7  A    between atoms: O1_10  and  C7_11 
ROOT
HETATM    1  C3  UNL     1      26.288   0.722  53.591  1.00  0.00     0.081 A 
HETATM    2  C4  UNL     1      25.805   1.185  52.389  1.00  0.00     0.064 A 
HETATM    3  C5  UNL     1      26.508   2.133  51.669  1.00  0.00     0.073 A 
HETATM    4  N2  UNL     1      27.687   2.590  52.187  1.00  0.00    -0.243 NA
HETATM    5  C11 UNL     1      28.136   2.108  53.384  1.00  0.00     0.234 A 
HETATM    6  N3  UNL     1      27.452   1.182  54.092  1.00  0.00    -0.240 NA
ENDROOT
BRANCH   3   7
HETATM    7  C6  UNL     1      26.196   2.765  50.385  1.00  0.00     0.226 C 
BRANCH   7   8
HETATM    8  O1  UNL     1      27.236   3.574  49.931  1.00  0.00    -0.359 OA
BRANCH   8   9
HETATM    9  C7  UNL     1      26.693   4.587  49.134  1.00  0.00     0.283 C 
HETATM   10 CL1  UNL     1      27.994   5.542  48.378  1.00  0.00    -0.102 Cl
ENDBRANCH   8   9
ENDBRANCH   7   8
BRANCH   7  11
HETATM   11  P2  UNL     1      24.681   3.719  50.387  1.00  0.00     0.044 P 
HETATM   12  C8  UNL     1      23.467   2.806  49.815  1.00  0.00     0.163 C 
HETATM   13  O2  UNL     1      22.213   3.291  50.208  1.00  0.00    -0.359 OA
HETATM   14  C9  UNL     1      22.205   4.643  50.642  1.00  0.00     0.201 C 
HETATM   15  C10 UNL     1      23.018   4.872  51.888  1.00  0.00     0.199 C 
HETATM   16  O3  UNL     1      24.218   4.221  51.916  1.00  0.00    -0.362 OA
HETATM   17  H7  UNL     1      24.796   4.845  49.543  1.00  0.00     0.090 HD
ENDBRANCH   7  11
ENDBRANCH   3   7
BRANCH   1  18
HETATM   18  P1  UNL     1      25.295  -0.537  54.488  1.00  0.00     0.025 P 
HETATM   19  H2  UNL     1      24.711   0.042  55.703  1.00  0.00     0.086 HD
BRANCH  18  20
HETATM   20  N1  UNL     1      23.880  -0.922  53.420  1.00  0.00    -0.363 N 
HETATM   21  H1  UNL     1      23.949  -1.453  52.509  1.00  0.00     0.164 HD
BRANCH  20  22
HETATM   22  C2  UNL     1      22.593  -0.484  53.827  1.00  0.00     0.043 A 
HETATM   23  C1  UNL     1      21.959   0.625  53.601  1.00  0.00     0.116 A 
HETATM   24  F1  UNL     1      22.158   1.800  52.942  1.00  0.00    -0.209 F 
HETATM   25  C13 UNL     1      20.794   0.210  54.358  1.00  0.00     0.078 A 
HETATM   26  C12 UNL     1      21.527  -1.057  54.614  1.00  0.00     0.067 A 
ENDBRANCH  20  22
ENDBRANCH  18  20
ENDBRANCH   1  18
TORSDOF 7
ENDMDL
MODEL 4
REMARK VINA RESULT:      -6.8      3.688      6.496
REMARK  7 active torsions:
REMARK  status: ('A' for Active; 'I' for Inactive)
REMARK    1  A    between atoms: C2_3  and  N1_4 
REMARK    2  A    between atoms: N1_4  and  P1_5 
REMARK    3  A    between atoms: P1_5  and  C3_6 
REMARK    4  A    between atoms: C5_8  and  C6_9 
REMARK    5  A    between atoms: C6_9  and  O1_10 
REMARK    6  A    between atoms: C6_9  and  P2_13 
REMARK    7  A    between atoms: O1_10  and  C7_11 
ROOT
HETATM    1  C3  UNL     1      22.158   2.151  51.301  1.00  0.00     0.081 A 
HETATM    2  C4  UNL     1      23.503   1.925  51.120  1.00  0.00     0.064 A 
HETATM    3  C5  UNL     1      24.435   2.845  51.561  1.00  0.00     0.073 A 
HETATM    4  N2  UNL     1      23.978   3.977  52.177  1.00  0.00    -0.243 NA
HETATM    5  C11 UNL     1      22.636   4.169  52.340  1.00  0.00     0.234 A 
HETATM    6  N3  UNL     1      21.721   3.272  51.910  1.00  0.00    -0.240 NA
ENDROOT
BRANCH   3   7
HETATM    7  C6  UNL     1      25.897   2.822  51.481  1.00  0.00     0.226 C 
BRANCH   7   8
HETATM    8  O1  UNL     1      26.350   2.632  50.177  1.00  0.00    -0.359 OA
BRANCH   8   9
HETATM    9  C7  UNL     1      26.831   3.852  49.693  1.00  0.00     0.283 C 
HETATM   10 CL1  UNL     1      25.493   4.827  49.034  1.00  0.00    -0.102 Cl
ENDBRANCH   8   9
ENDBRANCH   7   8
BRANCH   7  11
HETATM   11  P2  UNL     1      26.669   1.605  52.542  1.00  0.00     0.044 P 
HETATM   12  C8  UNL     1      27.974   2.258  53.254  1.00  0.00     0.163 C 
HETATM   13  O2  UNL     1      28.347   1.562  54.411  1.00  0.00    -0.359 OA
HETATM   14  C9  UNL     1      27.821   0.246  54.512  1.00  0.00     0.201 C 
HETATM   15  C10 UNL     1      26.319   0.213  54.614  1.00  0.00     0.199 C 
HETATM   16  O3  UNL     1      25.670   1.076  53.778  1.00  0.00    -0.362 OA
HETATM   17  H7  UNL     1      27.110   0.492  51.793  1.00  0.00     0.090 HD
ENDBRANCH   7  11
ENDBRANCH   3   7
BRANCH   1  18
HETATM   18  P1  UNL     1      20.982   0.880  50.686  1.00  0.00     0.025 P 
HETATM   19  H2  UNL     1      21.699  -0.161  49.940  1.00  0.00     0.086 HD
BRANCH  18  20
HETATM   20  N1  UNL     1      20.327   0.042  52.156  1.00  0.00    -0.363 N 
HETATM   21  H1  UNL     1      19.306  -0.183  52.306  1.00  0.00     0.164 HD
BRANCH  20  22
HETATM   22  C2  UNL     1      21.239  -0.338  53.174  1.00  0.00     0.043 A 
HETATM   23  C1  UNL     1      21.274  -0.051  54.438  1.00  0.00     0.116 A 
HETATM   24  F1  UNL     1      20.552   0.667  55.343  1.00  0.00    -0.209 F 
HETATM   25  C13 UNL     1      22.477  -0.826  54.667  1.00  0.00     0.078 A 
HETATM   26  C12 UNL     1      22.433  -1.150  53.217  1.00  0.00     0.067 A 
ENDBRANCH  20  22
ENDBRANCH  18  20
ENDBRANCH   1  18
TORSDOF 7
ENDMDL
MODEL 5
REMARK VINA RESULT:      -6.7      3.827      7.057
REMARK  7 active torsions:
REMARK  status: ('A' for Active; 'I' for Inactive)
REMARK    1  A    between atoms: C2_3  and  N1_4 
REMARK    2  A    between atoms: N1_4  and  P1_5 
REMARK    3  A    between atoms: P1_5  and  C3_6 
REMARK    4  A    between atoms: C5_8  and  C6_9 
REMARK    5  A    between atoms: C6_9  and  O1_10 
REMARK    6  A    between atoms: C6_9  and  P2_13 
REMARK    7  A    between atoms: O1_10  and  C7_11 
ROOT
HETATM    1  C3  UNL     1      25.465   3.085  50.974  1.00  0.00     0.081 A 
HETATM    2  C4  UNL     1      25.942   1.899  51.484  1.00  0.00     0.064 A 
HETATM    3  C5  UNL     1      25.297   1.277  52.536  1.00  0.00     0.073 A 
HETATM    4  N2  UNL     1      24.181   1.876  53.049  1.00  0.00    -0.243 NA
HETATM    5  C11 UNL     1      23.736   3.054  52.519  1.00  0.00     0.234 A 
HETATM    6  N3  UNL     1      24.363   3.665  51.490  1.00  0.00    -0.240 NA
ENDROOT
BRANCH   3   7
HETATM    7  C6  UNL     1      25.615   0.029  53.233  1.00  0.00     0.226 C 
BRANCH   7   8
HETATM    8  O1  UNL     1      25.282   0.082  54.585  1.00  0.00    -0.359 OA
BRANCH   8   9
HETATM    9  C7  UNL     1      24.679  -1.128  54.941  1.00  0.00     0.283 C 
HETATM   10 CL1  UNL     1      22.911  -1.018  54.745  1.00  0.00    -0.102 Cl
ENDBRANCH   8   9
ENDBRANCH   7   8
BRANCH   7  11
HETATM   11  P2  UNL     1      27.324  -0.481  53.080  1.00  0.00     0.044 P 
HETATM   12  C8  UNL     1      28.193   0.168  54.288  1.00  0.00     0.163 C 
HETATM   13  O2  UNL     1      29.387  -0.528  54.511  1.00  0.00    -0.359 OA
HETATM   14  C9  UNL     1      29.805  -1.357  53.436  1.00  0.00     0.201 C 
HETATM   15  C10 UNL     1      28.851  -2.485  53.149  1.00  0.00     0.199 C 
HETATM   16  O3  UNL     1      27.530  -2.140  53.186  1.00  0.00    -0.362 OA
HETATM   17  H7  UNL     1      27.879  -0.021  51.866  1.00  0.00     0.090 HD
ENDBRANCH   7  11
ENDBRANCH   3   7
BRANCH   1  18
HETATM   18  P1  UNL     1      26.379   3.848  49.575  1.00  0.00     0.025 P 
HETATM   19  H2  UNL     1      25.609   3.723  48.332  1.00  0.00     0.086 HD
BRANCH  18  20
HETATM   20  N1  UNL     1      26.437   5.629  49.918  1.00  0.00    -0.363 N 
HETATM   21  H1  UNL     1      26.161   6.066  50.840  1.00  0.00     0.164 HD
BRANCH  20  22
HETATM   22  C2  UNL     1      26.879   6.497  48.887  1.00  0.00     0.043 A 
HETATM   23  C1  UNL     1      27.909   6.432  48.101  1.00  0.00     0.116 A 
HETATM   24  F1  UNL     1      28.970   5.609  47.873  1.00  0.00    -0.209 F 
HETATM   25  C13 UNL     1      27.573   7.666  47.420  1.00  0.00     0.078 A 
HETATM   26  C12 UNL     1      26.396   7.736  48.324  1.00  0.00     0.067 A 
ENDBRANCH  20  22
ENDBRANCH  18  20
ENDBRANCH   1  18
TORSDOF 7
ENDMDL
MODEL 6
REMARK VINA RESULT:      -6.6      3.286      4.075
REMARK  7 active torsions:
REMARK  status: ('A' for Active; 'I' for Inactive)
REMARK    1  A    between atoms: C2_3  and  N1_4 
REMARK    2  A    between atoms: N1_4  and  P1_5 
REMARK    3  A    between atoms: P1_5  and  C3_6 
REMARK    4  A    between atoms: C5_8  and  C6_9 
REMARK    5  A    between atoms: C6_9  and  O1_10 
REMARK    6  A    between atoms: C6_9  and  P2_13 
REMARK    7  A    between atoms: O1_10  and  C7_11 
ROOT
HETATM    1  C3  UNL     1      24.318   0.375  53.112  1.00  0.00     0.081 A 
HETATM    2  C4  UNL     1      24.833   1.426  52.388  1.00  0.00     0.064 A 
HETATM    3  C5  UNL     1      24.043   2.111  51.485  1.00  0.00     0.073 A 
HETATM    4  N2  UNL     1      22.745   1.712  51.336  1.00  0.00    -0.243 NA
HETATM    5  C11 UNL     1      22.266   0.664  52.070  1.00  0.00     0.234 A 
HETATM    6  N3  UNL     1      23.035  -0.009  52.955  1.00  0.00    -0.240 NA
ENDROOT
BRANCH   3   7
HETATM    7  C6  UNL     1      24.367   3.244  50.616  1.00  0.00     0.226 C 
BRANCH   7   8
HETATM    8  O1  UNL     1      25.697   3.643  50.744  1.00  0.00    -0.359 OA
BRANCH   8   9
HETATM    9  C7  UNL     1      26.385   3.268  49.587  1.00  0.00     0.283 C 
HETATM   10 CL1  UNL     1      27.181   4.684  48.854  1.00  0.00    -0.102 Cl
ENDBRANCH   8   9
ENDBRANCH   7   8
BRANCH   7  11
HETATM   11  P2  UNL     1      23.312   4.671  50.848  1.00  0.00     0.044 P 
HETATM   12  C8  UNL     1      24.228   6.004  50.988  1.00  0.00     0.163 C 
HETATM   13  O2  UNL     1      23.507   7.171  50.709  1.00  0.00    -0.359 OA
HETATM   14  C9  UNL     1      22.095   7.030  50.771  1.00  0.00     0.201 C 
HETATM   15  C10 UNL     1      21.546   6.084  49.737  1.00  0.00     0.199 C 
HETATM   16  O3  UNL     1      22.275   4.942  49.562  1.00  0.00    -0.362 OA
HETATM   17  H7  UNL     1      22.558   4.550  52.036  1.00  0.00     0.090 HD
ENDBRANCH   7  11
ENDBRANCH   3   7
BRANCH   1  18
HETATM   18  P1  UNL     1      25.433  -0.484  54.293  1.00  0.00     0.025 P 
HETATM   19  H2  UNL     1      24.718  -1.571  54.972  1.00  0.00     0.086 HD
BRANCH  18  20
HETATM   20  N1  UNL     1      26.700  -1.306  53.287  1.00  0.00    -0.363 N 
HETATM   21  H1  UNL     1      26.510  -2.120  52.641  1.00  0.00     0.164 HD
BRANCH  20  22
HETATM   22  C2  UNL     1      28.034  -0.830  53.368  1.00  0.00     0.043 A 
HETATM   23  C1  UNL     1      29.161  -1.465  53.469  1.00  0.00     0.116 A 
HETATM   24  F1  UNL     1      29.607  -2.750  53.539  1.00  0.00    -0.209 F 
HETATM   25  C13 UNL     1      29.942  -0.245  53.488  1.00  0.00     0.078 A 
HETATM   26  C12 UNL     1      28.648   0.476  53.374  1.00  0.00     0.067 A 
ENDBRANCH  20  22
ENDBRANCH  18  20
ENDBRANCH   1  18
TORSDOF 7
ENDMDL
MODEL 7
REMARK VINA RESULT:      -6.5      3.234      5.957
REMARK  7 active torsions:
REMARK  status: ('A' for Active; 'I' for Inactive)
REMARK    1  A    between atoms: C2_3  and  N1_4 
REMARK    2  A    between atoms: N1_4  and  P1_5 
REMARK    3  A    between atoms: P1_5  and  C3_6 
REMARK    4  A    between atoms: C5_8  and  C6_9 
REMARK    5  A    between atoms: C6_9  and  O1_10 
REMARK    6  A    between atoms: C6_9  and  P2_13 
REMARK    7  A    between atoms: O1_10  and  C7_11 
ROOT
HETATM    1  C3  UNL     1      22.794   3.474  49.119  1.00  0.00     0.081 A 
HETATM    2  C4  UNL     1      23.400   2.963  50.243  1.00  0.00     0.064 A 
HETATM    3  C5  UNL     1      23.029   1.729  50.742  1.00  0.00     0.073 A 
HETATM    4  N2  UNL     1      22.047   1.040  50.086  1.00  0.00    -0.243 NA
HETATM    5  C11 UNL     1      21.466   1.578  48.972  1.00  0.00     0.234 A 
HETATM    6  N3  UNL     1      21.826   2.785  48.482  1.00  0.00    -0.240 NA
ENDROOT
BRANCH   3   7
HETATM    7  C6  UNL     1      23.524   0.993  51.906  1.00  0.00     0.226 C 
BRANCH   7   8
HETATM    8  O1  UNL     1      22.771   1.247  53.051  1.00  0.00    -0.359 OA
BRANCH   8   9
HETATM    9  C7  UNL     1      22.392   0.025  53.612  1.00  0.00     0.283 C 
HETATM   10 CL1  UNL     1      20.970   0.243  54.664  1.00  0.00    -0.102 Cl
ENDBRANCH   8   9
ENDBRANCH   7   8
BRANCH   7  11
HETATM   11  P2  UNL     1      25.251   1.284  52.276  1.00  0.00     0.044 P 
HETATM   12  C8  UNL     1      25.372   2.362  53.484  1.00  0.00     0.163 C 
HETATM   13  O2  UNL     1      26.613   2.295  54.129  1.00  0.00    -0.359 OA
HETATM   14  C9  UNL     1      27.635   1.642  53.391  1.00  0.00     0.201 C 
HETATM   15  C10 UNL     1      27.349   0.185  53.139  1.00  0.00     0.199 C 
HETATM   16  O3  UNL     1      26.059  -0.092  52.787  1.00  0.00    -0.362 OA
HETATM   17  H7  UNL     1      25.920   1.826  51.157  1.00  0.00     0.090 HD
ENDBRANCH   7  11
ENDBRANCH   3   7
BRANCH   1  18
HETATM   18  P1  UNL     1      23.344   5.121  48.519  1.00  0.00     0.025 P 
HETATM   19  H2  UNL     1      22.293   6.122  48.737  1.00  0.00     0.086 HD
BRANCH  18  20
HETATM   20  N1  UNL     1      24.709   5.626  49.603  1.00  0.00    -0.363 N 
HETATM   21  H1  UNL     1      24.581   6.076  50.550  1.00  0.00     0.164 HD
BRANCH  20  22
HETATM   22  C2  UNL     1      26.037   5.404  49.157  1.00  0.00     0.043 A 
HETATM   23  C1  UNL     1      26.758   4.326  49.126  1.00  0.00     0.116 A 
HETATM   24  F1  UNL     1      26.642   3.010  49.457  1.00  0.00    -0.209 F 
HETATM   25  C13 UNL     1      27.901   5.005  48.550  1.00  0.00     0.078 A 
HETATM   26  C12 UNL     1      27.071   6.237  48.590  1.00  0.00     0.067 A 
ENDBRANCH  20  22
ENDBRANCH  18  20
ENDBRANCH   1  18
TORSDOF 7
ENDMDL
MODEL 8
REMARK VINA RESULT:      -6.5      3.648      6.473
REMARK  7 active torsions:
REMARK  status: ('A' for Active; 'I' for Inactive)
REMARK    1  A    between atoms: C2_3  and  N1_4 
REMARK    2  A    between atoms: N1_4  and  P1_5 
REMARK    3  A    between atoms: P1_5  and  C3_6 
REMARK    4  A    between atoms: C5_8  and  C6_9 
REMARK    5  A    between atoms: C6_9  and  O1_10 
REMARK    6  A    between atoms: C6_9  and  P2_13 
REMARK    7  A    between atoms: O1_10  and  C7_11 
ROOT
HETATM    1  C3  UNL     1      22.728  -1.003  54.511  1.00  0.00     0.081 A 
HETATM    2  C4  UNL     1      23.616  -0.305  53.724  1.00  0.00     0.064 A 
HETATM    3  C5  UNL     1      24.940  -0.183  54.100  1.00  0.00     0.073 A 
HETATM    4  N2  UNL     1      25.333  -0.773  55.269  1.00  0.00    -0.243 NA
HETATM    5  C11 UNL     1      24.424  -1.458  56.025  1.00  0.00     0.234 A 
HETATM    6  N3  UNL     1      23.128  -1.579  55.662  1.00  0.00    -0.240 NA
ENDROOT
BRANCH   3   7
HETATM    7  C6  UNL     1      26.051   0.500  53.436  1.00  0.00     0.226 C 
BRANCH   7   8
HETATM    8  O1  UNL     1      26.783   1.295  54.316  1.00  0.00    -0.359 OA
BRANCH   8   9
HETATM    9  C7  UNL     1      28.144   1.052  54.105  1.00  0.00     0.283 C 
HETATM   10 CL1  UNL     1      28.997   2.577  53.758  1.00  0.00    -0.102 Cl
ENDBRANCH   8   9
ENDBRANCH   7   8
BRANCH   7  11
HETATM   11  P2  UNL     1      25.564   1.496  52.030  1.00  0.00     0.044 P 
HETATM   12  C8  UNL     1      24.682   2.759  52.542  1.00  0.00     0.163 C 
HETATM   13  O2  UNL     1      24.661   3.801  51.606  1.00  0.00    -0.359 OA
HETATM   14  C9  UNL     1      25.028   3.426  50.286  1.00  0.00     0.201 C 
HETATM   15  C10 UNL     1      26.453   2.954  50.177  1.00  0.00     0.199 C 
HETATM   16  O3  UNL     1      26.864   2.135  51.189  1.00  0.00    -0.362 OA
HETATM   17  H7  UNL     1      24.757   0.750  51.142  1.00  0.00     0.090 HD
ENDBRANCH   7  11
ENDBRANCH   3   7
BRANCH   1  18
HETATM   18  P1  UNL     1      20.984  -1.119  53.942  1.00  0.00     0.025 P 
HETATM   19  H2  UNL     1      20.092  -1.374  55.078  1.00  0.00     0.086 HD
BRANCH  18  20
HETATM   20  N1  UNL     1      20.533   0.536  53.348  1.00  0.00    -0.363 N 
HETATM   21  H1  UNL     1      20.462   1.390  53.966  1.00  0.00     0.164 HD
BRANCH  20  22
HETATM   22  C2  UNL     1      20.257   0.700  51.967  1.00  0.00     0.043 A 
HETATM   23  C1  UNL     1      21.049   0.861  50.952  1.00  0.00     0.116 A 
HETATM   24  F1  UNL     1      22.385   0.942  50.701  1.00  0.00    -0.209 F 
HETATM   25  C13 UNL     1      19.956   0.939  50.004  1.00  0.00     0.078 A 
HETATM   26  C12 UNL     1      19.053   0.757  51.171  1.00  0.00     0.067 A 
ENDBRANCH  20  22
ENDBRANCH  18  20
ENDBRANCH   1  18
TORSDOF 7
ENDMDL
MODEL 9
REMARK VINA RESULT:      -6.5      2.839      3.698
REMARK  7 active torsions:
REMARK  status: ('A' for Active; 'I' for Inactive)
REMARK    1  A    between atoms: C2_3  and  N1_4 
REMARK    2  A    between atoms: N1_4  and  P1_5 
REMARK    3  A    between atoms: P1_5  and  C3_6 
REMARK    4  A    between atoms: C5_8  and  C6_9 
REMARK    5  A    between atoms: C6_9  and  O1_10 
REMARK    6  A    between atoms: C6_9  and  P2_13 
REMARK    7  A    between atoms: O1_10  and  C7_11 
ROOT
HETATM    1  C3  UNL     1      23.978  -0.259  53.677  1.00  0.00     0.081 A 
HETATM    2  C4  UNL     1      22.882   0.269  53.034  1.00  0.00     0.064 A 
HETATM    3  C5  UNL     1      21.606   0.012  53.498  1.00  0.00     0.073 A 
HETATM    4  N2  UNL     1      21.471  -0.776  54.607  1.00  0.00    -0.243 NA
HETATM    5  C11 UNL     1      22.581  -1.284  55.220  1.00  0.00     0.234 A 
HETATM    6  N3  UNL     1      23.831  -1.036  54.769  1.00  0.00    -0.240 NA
ENDROOT
BRANCH   3   7
HETATM    7  C6  UNL     1      20.308   0.458  52.986  1.00  0.00     0.226 C 
BRANCH   7   8
HETATM    8  O1  UNL     1      19.643  -0.549  52.289  1.00  0.00    -0.359 OA
BRANCH   8   9
HETATM    9  C7  UNL     1      18.360  -0.688  52.826  1.00  0.00     0.283 C 
HETATM   10 CL1  UNL     1      17.137  -0.116  51.663  1.00  0.00    -0.102 Cl
ENDBRANCH   8   9
ENDBRANCH   7   8
BRANCH   7  11
HETATM   11  P2  UNL     1      20.389   1.918  51.955  1.00  0.00     0.044 P 
HETATM   12  C8  UNL     1      20.359   1.478  50.392  1.00  0.00     0.163 C 
HETATM   13  O2  UNL     1      19.958   2.528  49.556  1.00  0.00    -0.359 OA
HETATM   14  C9  UNL     1      20.057   3.822  50.133  1.00  0.00     0.201 C 
HETATM   15  C10 UNL     1      19.148   4.017  51.317  1.00  0.00     0.199 C 
HETATM   16  O3  UNL     1      19.095   2.958  52.178  1.00  0.00    -0.362 OA
HETATM   17  H7  UNL     1      21.594   2.621  52.173  1.00  0.00     0.090 HD
ENDBRANCH   7  11
ENDBRANCH   3   7
BRANCH   1  18
HETATM   18  P1  UNL     1      25.641   0.128  52.998  1.00  0.00     0.025 P 
HETATM   19  H2  UNL     1      25.953   1.549  53.190  1.00  0.00     0.086 HD
BRANCH  18  20
HETATM   20  N1  UNL     1      26.832  -0.763  54.037  1.00  0.00    -0.363 N 
HETATM   21  H1  UNL     1      26.564  -1.435  54.807  1.00  0.00     0.164 HD
BRANCH  20  22
HETATM   22  C2  UNL     1      28.216  -0.548  53.806  1.00  0.00     0.043 A 
HETATM   23  C1  UNL     1      29.154  -1.361  53.431  1.00  0.00     0.116 A 
HETATM   24  F1  UNL     1      29.296  -2.675  53.100  1.00  0.00    -0.209 F 
HETATM   25  C13 UNL     1      30.173  -0.332  53.460  1.00  0.00     0.078 A 
HETATM   26  C12 UNL     1      29.094   0.595  53.891  1.00  0.00     0.067 A 
ENDBRANCH  20  22
ENDBRANCH  18  20
ENDBRANCH   1  18
TORSDOF 7
ENDMDL
