MODEL 1
REMARK VINA RESULT:      -8.3      0.000      0.000
REMARK  7 active torsions:
REMARK  status: ('A' for Active; 'I' for Inactive)
REMARK    1  A    between atoms: C5_5  and  N1_6 
REMARK       I    between atoms: N1_6  and  C6_7 
REMARK    2  A    between atoms: C6_7  and  C7_9 
REMARK    3  A    between atoms: C14_16  and  N2_17 
REMARK    4  A    between atoms: N4_20  and  C16_21 
REMARK    5  A    between atoms: C16_21  and  C17_22 
REMARK    6  A    between atoms: C17_22  and  C18_23 
REMARK    7  A    between atoms: C18_23  and  C19_24 
ROOT
HETATM    1  C1  UNL     1      26.599   1.922  53.292  1.00  0.00     0.050 C 
HETATM    2  C2  UNL     1      25.240   1.364  52.957  1.00  0.00    -0.033 A 
HETATM    3  C3  UNL     1      24.833   0.333  53.814  1.00  0.00     0.011 A 
HETATM    4  C4  UNL     1      23.607  -0.261  53.601  1.00  0.00     0.030 A 
HETATM    5  C5  UNL     1      22.843   0.194  52.548  1.00  0.00     0.037 A 
HETATM    6  C13 UNL     1      23.230   1.205  51.698  1.00  0.00     0.062 A 
HETATM    7  C14 UNL     1      24.449   1.813  51.892  1.00  0.00     0.083 A 
ENDROOT
BRANCH   7   8
HETATM    8  N2  UNL     1      25.094   2.869  51.191  1.00  0.00    -0.068 N 
HETATM    9  N3  UNL     1      24.983   4.301  51.181  1.00  0.00    -0.107 N 
HETATM   10  C15 UNL     1      25.913   3.588  50.351  1.00  0.00     0.741 A 
HETATM   11  H13 UNL     1      24.621   5.247  51.449  1.00  0.00     0.207 HD
HETATM   12  N4  UNL     1      26.875   3.558  49.462  1.00  0.00    -0.074 NA
BRANCH  12  13
HETATM   13  C16 UNL     1      27.285   4.830  48.942  1.00  0.00     0.132 C 
BRANCH  13  14
HETATM   14  C17 UNL     1      28.191   5.545  48.301  1.00  0.00    -0.002 C 
BRANCH  14  15
HETATM   15  C18 UNL     1      29.135   6.557  47.763  1.00  0.00     0.074 C 
BRANCH  15  16
HETATM   16  C19 UNL     1      30.507   6.125  48.071  1.00  0.00    -0.014 A 
HETATM   17  C20 UNL     1      31.100   4.968  47.720  1.00  0.00     0.015 A 
HETATM   18  C21 UNL     1      32.398   4.714  48.095  1.00  0.00     0.008 A 
HETATM   19  C22 UNL     1      33.029   5.752  48.858  1.00  0.00     0.050 A 
HETATM   20  S1  UNL     1      31.693   7.053  48.993  1.00  0.00    -0.106 SA
ENDBRANCH  15  16
ENDBRANCH  14  15
ENDBRANCH  13  14
ENDBRANCH  12  13
ENDBRANCH   7   8
BRANCH   5  21
HETATM   21  N1  UNL     1      21.580  -0.416  52.327  1.00  0.00    -0.323 N 
HETATM   22  C6  UNL     1      20.419   0.215  52.904  1.00  0.00     0.256 C 
HETATM   23  O1  UNL     1      20.721   1.249  53.532  1.00  0.00    -0.267 OA
HETATM   24  H6  UNL     1      21.508  -1.294  51.765  1.00  0.00     0.169 HD
BRANCH  22  25
HETATM   25  C7  UNL     1      19.102  -0.361  52.719  1.00  0.00     0.032 A 
HETATM   26  C8  UNL     1      18.128   0.064  51.866  1.00  0.00     0.017 A 
HETATM   27  C9  UNL     1      16.893  -0.516  51.709  1.00  0.00     0.001 A 
HETATM   28  C10 UNL     1      16.626  -1.624  52.487  1.00  0.00     0.000 A 
HETATM   29  C11 UNL     1      17.546  -2.130  53.378  1.00  0.00     0.001 A 
HETATM   30  C12 UNL     1      18.780  -1.491  53.486  1.00  0.00     0.017 A 
ENDBRANCH  22  25
ENDBRANCH   5  21
TORSDOF 7
ENDMDL
MODEL 2
REMARK VINA RESULT:      -8.2      1.418      1.868
REMARK  7 active torsions:
REMARK  status: ('A' for Active; 'I' for Inactive)
REMARK    1  A    between atoms: C5_5  and  N1_6 
REMARK       I    between atoms: N1_6  and  C6_7 
REMARK    2  A    between atoms: C6_7  and  C7_9 
REMARK    3  A    between atoms: C14_16  and  N2_17 
REMARK    4  A    between atoms: N4_20  and  C16_21 
REMARK    5  A    between atoms: C16_21  and  C17_22 
REMARK    6  A    between atoms: C17_22  and  C18_23 
REMARK    7  A    between atoms: C18_23  and  C19_24 
ROOT
HETATM    1  C1  UNL     1      26.841   2.016  53.051  1.00  0.00     0.050 C 
HETATM    2  C2  UNL     1      25.467   1.479  52.747  1.00  0.00    -0.033 A 
HETATM    3  C3  UNL     1      25.059   0.462  53.618  1.00  0.00     0.011 A 
HETATM    4  C4  UNL     1      23.819  -0.113  53.433  1.00  0.00     0.030 A 
HETATM    5  C5  UNL     1      23.042   0.347  52.391  1.00  0.00     0.037 A 
HETATM    6  C13 UNL     1      23.430   1.346  51.526  1.00  0.00     0.062 A 
HETATM    7  C14 UNL     1      24.663   1.934  51.692  1.00  0.00     0.083 A 
ENDROOT
BRANCH   7   8
HETATM    8  N2  UNL     1      25.312   2.973  50.971  1.00  0.00    -0.068 N 
HETATM    9  N3  UNL     1      25.187   4.403  50.914  1.00  0.00    -0.107 N 
HETATM   10  C15 UNL     1      26.142   3.674  50.126  1.00  0.00     0.741 A 
HETATM   11  H13 UNL     1      24.812   5.354  51.144  1.00  0.00     0.207 HD
HETATM   12  N4  UNL     1      27.121   3.626  49.258  1.00  0.00    -0.074 NA
BRANCH  12  13
HETATM   13  C16 UNL     1      27.531   4.884  48.707  1.00  0.00     0.132 C 
BRANCH  13  14
HETATM   14  C17 UNL     1      28.512   5.681  48.327  1.00  0.00    -0.002 C 
BRANCH  14  15
HETATM   15  C18 UNL     1      29.745   6.335  47.820  1.00  0.00     0.074 C 
BRANCH  15  16
HETATM   16  C19 UNL     1      29.777   7.719  48.316  1.00  0.00    -0.014 A 
HETATM   17  C20 UNL     1      30.711   8.286  49.103  1.00  0.00     0.015 A 
HETATM   18  C21 UNL     1      30.588   9.602  49.485  1.00  0.00     0.008 A 
HETATM   19  C22 UNL     1      29.426  10.278  48.986  1.00  0.00     0.050 A 
HETATM   20  S1  UNL     1      28.564   8.958  47.980  1.00  0.00    -0.106 SA
ENDBRANCH  15  16
ENDBRANCH  14  15
ENDBRANCH  13  14
ENDBRANCH  12  13
ENDBRANCH   7   8
BRANCH   5  21
HETATM   21  N1  UNL     1      21.765  -0.243  52.199  1.00  0.00    -0.323 N 
HETATM   22  C6  UNL     1      20.606   0.535  52.556  1.00  0.00     0.256 C 
HETATM   23  O1  UNL     1      20.921   1.659  52.994  1.00  0.00    -0.267 OA
HETATM   24  H6  UNL     1      21.683  -1.210  51.812  1.00  0.00     0.169 HD
BRANCH  22  25
HETATM   25  C7  UNL     1      19.274  -0.013  52.389  1.00  0.00     0.032 A 
HETATM   26  C8  UNL     1      18.381   0.277  51.401  1.00  0.00     0.017 A 
HETATM   27  C9  UNL     1      17.130  -0.272  51.267  1.00  0.00     0.001 A 
HETATM   28  C10 UNL     1      16.754  -1.196  52.221  1.00  0.00     0.000 A 
HETATM   29  C11 UNL     1      17.586  -1.556  53.258  1.00  0.00     0.001 A 
HETATM   30  C12 UNL     1      18.843  -0.958  53.332  1.00  0.00     0.017 A 
ENDBRANCH  22  25
ENDBRANCH   5  21
TORSDOF 7
ENDMDL
MODEL 3
REMARK VINA RESULT:      -8.0      3.976     12.167
REMARK  7 active torsions:
REMARK  status: ('A' for Active; 'I' for Inactive)
REMARK    1  A    between atoms: C5_5  and  N1_6 
REMARK       I    between atoms: N1_6  and  C6_7 
REMARK    2  A    between atoms: C6_7  and  C7_9 
REMARK    3  A    between atoms: C14_16  and  N2_17 
REMARK    4  A    between atoms: N4_20  and  C16_21 
REMARK    5  A    between atoms: C16_21  and  C17_22 
REMARK    6  A    between atoms: C17_22  and  C18_23 
REMARK    7  A    between atoms: C18_23  and  C19_24 
ROOT
HETATM    1  C1  UNL     1      24.856   6.872  48.169  1.00  0.00     0.050 C 
HETATM    2  C2  UNL     1      26.344   6.640  48.114  1.00  0.00    -0.033 A 
HETATM    3  C3  UNL     1      27.037   7.625  47.400  1.00  0.00     0.011 A 
HETATM    4  C4  UNL     1      28.406   7.515  47.276  1.00  0.00     0.030 A 
HETATM    5  C5  UNL     1      29.023   6.433  47.866  1.00  0.00     0.037 A 
HETATM    6  C13 UNL     1      28.355   5.457  48.571  1.00  0.00     0.062 A 
HETATM    7  C14 UNL     1      26.989   5.546  48.708  1.00  0.00     0.083 A 
ENDROOT
BRANCH   7   8
HETATM    8  N2  UNL     1      26.055   4.707  49.376  1.00  0.00    -0.068 N 
HETATM    9  N3  UNL     1      25.804   4.351  50.745  1.00  0.00    -0.107 N 
HETATM   10  C15 UNL     1      25.027   3.835  49.652  1.00  0.00     0.741 A 
HETATM   11  H13 UNL     1      25.936   4.343  51.784  1.00  0.00     0.207 HD
HETATM   12  N4  UNL     1      24.046   3.108  49.180  1.00  0.00    -0.074 NA
BRANCH  12  13
HETATM   13  C16 UNL     1      23.297   2.363  50.149  1.00  0.00     0.132 C 
BRANCH  13  14
HETATM   14  C17 UNL     1      23.270   1.728  51.307  1.00  0.00    -0.002 C 
BRANCH  14  15
HETATM   15  C18 UNL     1      23.524   1.064  52.610  1.00  0.00     0.074 C 
BRANCH  15  16
HETATM   16  C19 UNL     1      22.299   0.361  53.020  1.00  0.00    -0.014 A 
HETATM   17  C20 UNL     1      22.205  -0.750  53.776  1.00  0.00     0.015 A 
HETATM   18  C21 UNL     1      20.973  -1.288  54.066  1.00  0.00     0.008 A 
HETATM   19  C22 UNL     1      19.852  -0.584  53.514  1.00  0.00     0.050 A 
HETATM   20  S1  UNL     1      20.651   0.834  52.594  1.00  0.00    -0.106 SA
ENDBRANCH  15  16
ENDBRANCH  14  15
ENDBRANCH  13  14
ENDBRANCH  12  13
ENDBRANCH   7   8
BRANCH   5  21
HETATM   21  N1  UNL     1      30.433   6.317  47.740  1.00  0.00    -0.323 N 
HETATM   22  C6  UNL     1      31.252   7.129  48.605  1.00  0.00     0.256 C 
HETATM   23  O1  UNL     1      30.562   7.834  49.366  1.00  0.00    -0.267 OA
HETATM   24  H6  UNL     1      30.849   5.664  47.039  1.00  0.00     0.169 HD
BRANCH  22  25
HETATM   25  C7  UNL     1      32.698   7.061  48.522  1.00  0.00     0.032 A 
HETATM   26  C8  UNL     1      33.561   8.094  48.310  1.00  0.00     0.017 A 
HETATM   27  C9  UNL     1      34.929   7.994  48.249  1.00  0.00     0.001 A 
HETATM   28  C10 UNL     1      35.466   6.734  48.417  1.00  0.00     0.000 A 
HETATM   29  C11 UNL     1      34.677   5.627  48.636  1.00  0.00     0.001 A 
HETATM   30  C12 UNL     1      33.295   5.802  48.687  1.00  0.00     0.017 A 
ENDBRANCH  22  25
ENDBRANCH   5  21
TORSDOF 7
ENDMDL
MODEL 4
REMARK VINA RESULT:      -7.9      4.302     11.147
REMARK  7 active torsions:
REMARK  status: ('A' for Active; 'I' for Inactive)
REMARK    1  A    between atoms: C5_5  and  N1_6 
REMARK       I    between atoms: N1_6  and  C6_7 
REMARK    2  A    between atoms: C6_7  and  C7_9 
REMARK    3  A    between atoms: C14_16  and  N2_17 
REMARK    4  A    between atoms: N4_20  and  C16_21 
REMARK    5  A    between atoms: C16_21  and  C17_22 
REMARK    6  A    between atoms: C17_22  and  C18_23 
REMARK    7  A    between atoms: C18_23  and  C19_24 
ROOT
HETATM    1  C1  UNL     1      25.389   7.355  49.391  1.00  0.00     0.050 C 
HETATM    2  C2  UNL     1      26.668   6.720  48.910  1.00  0.00    -0.033 A 
HETATM    3  C3  UNL     1      27.586   7.638  48.386  1.00  0.00     0.011 A 
HETATM    4  C4  UNL     1      28.793   7.172  47.908  1.00  0.00     0.030 A 
HETATM    5  C5  UNL     1      29.031   5.815  47.971  1.00  0.00     0.037 A 
HETATM    6  C13 UNL     1      28.139   4.901  48.483  1.00  0.00     0.062 A 
HETATM    7  C14 UNL     1      26.929   5.343  48.966  1.00  0.00     0.083 A 
ENDROOT
BRANCH   7   8
HETATM    8  N2  UNL     1      25.837   4.643  49.549  1.00  0.00    -0.068 N 
HETATM    9  N3  UNL     1      25.517   4.176  50.869  1.00  0.00    -0.107 N 
HETATM   10  C15 UNL     1      24.646   3.982  49.743  1.00  0.00     0.741 A 
HETATM   11  H13 UNL     1      25.643   4.007  51.895  1.00  0.00     0.207 HD
HETATM   12  N4  UNL     1      23.532   3.546  49.211  1.00  0.00    -0.074 NA
BRANCH  12  13
HETATM   13  C16 UNL     1      22.641   2.859  50.100  1.00  0.00     0.132 C 
BRANCH  13  14
HETATM   14  C17 UNL     1      22.475   2.145  51.198  1.00  0.00    -0.002 C 
BRANCH  14  15
HETATM   15  C18 UNL     1      22.468   1.531  52.550  1.00  0.00     0.074 C 
BRANCH  15  16
HETATM   16  C19 UNL     1      23.737   0.812  52.742  1.00  0.00    -0.014 A 
HETATM   17  C20 UNL     1      24.912   1.045  52.126  1.00  0.00     0.015 A 
HETATM   18  C21 UNL     1      26.011   0.271  52.417  1.00  0.00     0.008 A 
HETATM   19  C22 UNL     1      25.795  -0.757  53.393  1.00  0.00     0.050 A 
HETATM   20  S1  UNL     1      23.992  -0.546  53.841  1.00  0.00    -0.106 SA
ENDBRANCH  15  16
ENDBRANCH  14  15
ENDBRANCH  13  14
ENDBRANCH  12  13
ENDBRANCH   7   8
BRANCH   5  21
HETATM   21  N1  UNL     1      30.273   5.332  47.480  1.00  0.00    -0.323 N 
HETATM   22  C6  UNL     1      31.353   5.180  48.422  1.00  0.00     0.256 C 
HETATM   23  O1  UNL     1      31.010   5.507  49.574  1.00  0.00    -0.267 OA
HETATM   24  H6  UNL     1      30.386   5.101  46.467  1.00  0.00     0.169 HD
BRANCH  22  25
HETATM   25  C7  UNL     1      32.647   4.696  47.982  1.00  0.00     0.032 A 
HETATM   26  C8  UNL     1      33.867   5.241  48.253  1.00  0.00     0.017 A 
HETATM   27  C9  UNL     1      35.076   4.748  47.828  1.00  0.00     0.001 A 
HETATM   28  C10 UNL     1      35.042   3.602  47.060  1.00  0.00     0.000 A 
HETATM   29  C11 UNL     1      33.859   2.977  46.733  1.00  0.00     0.001 A 
HETATM   30  C12 UNL     1      32.669   3.532  47.199  1.00  0.00     0.017 A 
ENDBRANCH  22  25
ENDBRANCH   5  21
TORSDOF 7
ENDMDL
MODEL 5
REMARK VINA RESULT:      -7.9      3.845     11.179
REMARK  7 active torsions:
REMARK  status: ('A' for Active; 'I' for Inactive)
REMARK    1  A    between atoms: C5_5  and  N1_6 
REMARK       I    between atoms: N1_6  and  C6_7 
REMARK    2  A    between atoms: C6_7  and  C7_9 
REMARK    3  A    between atoms: C14_16  and  N2_17 
REMARK    4  A    between atoms: N4_20  and  C16_21 
REMARK    5  A    between atoms: C16_21  and  C17_22 
REMARK    6  A    between atoms: C17_22  and  C18_23 
REMARK    7  A    between atoms: C18_23  and  C19_24 
ROOT
HETATM    1  C1  UNL     1      24.144  -0.488  53.620  1.00  0.00     0.050 C 
HETATM    2  C2  UNL     1      24.503   0.757  52.849  1.00  0.00    -0.033 A 
HETATM    3  C3  UNL     1      25.834   1.156  53.021  1.00  0.00     0.011 A 
HETATM    4  C4  UNL     1      26.276   2.288  52.368  1.00  0.00     0.030 A 
HETATM    5  C5  UNL     1      25.377   2.971  51.578  1.00  0.00     0.037 A 
HETATM    6  C13 UNL     1      24.065   2.591  51.400  1.00  0.00     0.062 A 
HETATM    7  C14 UNL     1      23.602   1.464  52.040  1.00  0.00     0.083 A 
ENDROOT
BRANCH   7   8
HETATM    8  N2  UNL     1      22.325   0.840  52.036  1.00  0.00    -0.068 N 
HETATM    9  N3  UNL     1      21.416   0.388  51.019  1.00  0.00    -0.107 N 
HETATM   10  C15 UNL     1      21.138   0.261  52.423  1.00  0.00     0.741 A 
HETATM   11  H13 UNL     1      21.056   0.206  50.053  1.00  0.00     0.207 HD
HETATM   12  N4  UNL     1      20.375  -0.126  53.414  1.00  0.00    -0.074 NA
BRANCH  12  13
HETATM   13  C16 UNL     1      19.124  -0.720  53.046  1.00  0.00     0.132 C 
BRANCH  13  14
HETATM   14  C17 UNL     1      17.963  -0.608  52.426  1.00  0.00    -0.002 C 
BRANCH  14  15
HETATM   15  C18 UNL     1      16.785  -0.635  51.522  1.00  0.00     0.074 C 
BRANCH  15  16
HETATM   16  C19 UNL     1      15.782   0.309  52.037  1.00  0.00    -0.014 A 
HETATM   17  C20 UNL     1      14.711   0.029  52.806  1.00  0.00     0.015 A 
HETATM   18  C21 UNL     1      13.861   1.035  53.200  1.00  0.00     0.008 A 
HETATM   19  C22 UNL     1      14.208   2.347  52.738  1.00  0.00     0.050 A 
HETATM   20  S1  UNL     1      15.764   2.051  51.745  1.00  0.00    -0.106 SA
ENDBRANCH  15  16
ENDBRANCH  14  15
ENDBRANCH  13  14
ENDBRANCH  12  13
ENDBRANCH   7   8
BRANCH   5  21
HETATM   21  N1  UNL     1      25.830   4.137  50.905  1.00  0.00    -0.323 N 
HETATM   22  C6  UNL     1      26.516   3.963  49.650  1.00  0.00     0.256 C 
HETATM   23  O1  UNL     1      26.605   2.760  49.335  1.00  0.00    -0.267 OA
HETATM   24  H6  UNL     1      25.666   5.082  51.318  1.00  0.00     0.169 HD
BRANCH  22  25
HETATM   25  C7  UNL     1      27.008   5.113  48.917  1.00  0.00     0.032 A 
HETATM   26  C8  UNL     1      28.280   5.327  48.475  1.00  0.00     0.017 A 
HETATM   27  C9  UNL     1      28.708   6.426  47.772  1.00  0.00     0.001 A 
HETATM   28  C10 UNL     1      27.761   7.391  47.494  1.00  0.00     0.000 A 
HETATM   29  C11 UNL     1      26.450   7.266  47.898  1.00  0.00     0.001 A 
HETATM   30  C12 UNL     1      26.085   6.123  48.608  1.00  0.00     0.017 A 
ENDBRANCH  22  25
ENDBRANCH   5  21
TORSDOF 7
ENDMDL
MODEL 6
REMARK VINA RESULT:      -7.8      2.434      4.188
REMARK  7 active torsions:
REMARK  status: ('A' for Active; 'I' for Inactive)
REMARK    1  A    between atoms: C5_5  and  N1_6 
REMARK       I    between atoms: N1_6  and  C6_7 
REMARK    2  A    between atoms: C6_7  and  C7_9 
REMARK    3  A    between atoms: C14_16  and  N2_17 
REMARK    4  A    between atoms: N4_20  and  C16_21 
REMARK    5  A    between atoms: C16_21  and  C17_22 
REMARK    6  A    between atoms: C17_22  and  C18_23 
REMARK    7  A    between atoms: C18_23  and  C19_24 
ROOT
HETATM    1  C1  UNL     1      24.171   6.564  47.741  1.00  0.00     0.050 C 
HETATM    2  C2  UNL     1      23.979   5.336  48.593  1.00  0.00    -0.033 A 
HETATM    3  C3  UNL     1      22.664   4.856  48.593  1.00  0.00     0.011 A 
HETATM    4  C4  UNL     1      22.365   3.738  49.343  1.00  0.00     0.030 A 
HETATM    5  C5  UNL     1      23.385   3.149  50.060  1.00  0.00     0.037 A 
HETATM    6  C13 UNL     1      24.683   3.610  50.069  1.00  0.00     0.062 A 
HETATM    7  C14 UNL     1      25.004   4.723  49.327  1.00  0.00     0.083 A 
ENDROOT
BRANCH   7   8
HETATM    8  N2  UNL     1      26.238   5.405  49.144  1.00  0.00    -0.068 N 
HETATM    9  N3  UNL     1      26.786   6.655  49.593  1.00  0.00    -0.107 N 
HETATM   10  C15 UNL     1      27.512   5.746  48.751  1.00  0.00     0.741 A 
HETATM   11  H13 UNL     1      26.819   7.576  50.092  1.00  0.00     0.207 HD
HETATM   12  N4  UNL     1      28.587   5.400  48.088  1.00  0.00    -0.074 NA
BRANCH  12  13
HETATM   13  C16 UNL     1      29.663   6.347  48.102  1.00  0.00     0.132 C 
BRANCH  13  14
HETATM   14  C17 UNL     1      30.963   6.574  48.143  1.00  0.00    -0.002 C 
BRANCH  14  15
HETATM   15  C18 UNL     1      32.410   6.707  48.448  1.00  0.00     0.074 C 
BRANCH  15  16
HETATM   16  C19 UNL     1      33.062   5.415  48.185  1.00  0.00    -0.014 A 
HETATM   17  C20 UNL     1      32.474   4.260  47.816  1.00  0.00     0.015 A 
HETATM   18  C21 UNL     1      33.233   3.132  47.614  1.00  0.00     0.008 A 
HETATM   19  C22 UNL     1      34.642   3.295  47.822  1.00  0.00     0.050 A 
HETATM   20  S1  UNL     1      34.795   5.094  48.307  1.00  0.00    -0.106 SA
ENDBRANCH  15  16
ENDBRANCH  14  15
ENDBRANCH  13  14
ENDBRANCH  12  13
ENDBRANCH   7   8
BRANCH   5  21
HETATM   21  N1  UNL     1      23.081   1.998  50.833  1.00  0.00    -0.323 N 
HETATM   22  C6  UNL     1      22.571   2.201  52.166  1.00  0.00     0.256 C 
HETATM   23  O1  UNL     1      22.469   3.412  52.441  1.00  0.00    -0.267 OA
HETATM   24  H6  UNL     1      23.227   1.042  50.437  1.00  0.00     0.169 HD
BRANCH  22  25
HETATM   25  C7  UNL     1      22.246   1.066  53.007  1.00  0.00     0.032 A 
HETATM   26  C8  UNL     1      21.022   0.732  53.505  1.00  0.00     0.017 A 
HETATM   27  C9  UNL     1      20.749  -0.360  54.292  1.00  0.00     0.001 A 
HETATM   28  C10 UNL     1      21.812  -1.184  54.598  1.00  0.00     0.000 A 
HETATM   29  C11 UNL     1      23.087  -0.932  54.142  1.00  0.00     0.001 A 
HETATM   30  C12 UNL     1      23.292   0.195  53.348  1.00  0.00     0.017 A 
ENDBRANCH  22  25
ENDBRANCH   5  21
TORSDOF 7
ENDMDL
MODEL 7
REMARK VINA RESULT:      -7.8      2.578      4.318
REMARK  7 active torsions:
REMARK  status: ('A' for Active; 'I' for Inactive)
REMARK    1  A    between atoms: C5_5  and  N1_6 
REMARK       I    between atoms: N1_6  and  C6_7 
REMARK    2  A    between atoms: C6_7  and  C7_9 
REMARK    3  A    between atoms: C14_16  and  N2_17 
REMARK    4  A    between atoms: N4_20  and  C16_21 
REMARK    5  A    between atoms: C16_21  and  C17_22 
REMARK    6  A    between atoms: C17_22  and  C18_23 
REMARK    7  A    between atoms: C18_23  and  C19_24 
ROOT
HETATM    1  C1  UNL     1      23.739   6.618  47.665  1.00  0.00     0.050 C 
HETATM    2  C2  UNL     1      23.631   5.406  48.553  1.00  0.00    -0.033 A 
HETATM    3  C3  UNL     1      22.533   4.589  48.253  1.00  0.00     0.011 A 
HETATM    4  C4  UNL     1      22.327   3.452  49.006  1.00  0.00     0.030 A 
HETATM    5  C5  UNL     1      23.219   3.178  50.021  1.00  0.00     0.037 A 
HETATM    6  C13 UNL     1      24.302   3.971  50.327  1.00  0.00     0.062 A 
HETATM    7  C14 UNL     1      24.528   5.111  49.590  1.00  0.00     0.083 A 
ENDROOT
BRANCH   7   8
HETATM    8  N2  UNL     1      25.550   6.095  49.672  1.00  0.00    -0.068 N 
HETATM    9  N3  UNL     1      26.972   6.104  49.468  1.00  0.00    -0.107 N 
HETATM   10  C15 UNL     1      26.233   7.276  49.848  1.00  0.00     0.741 A 
HETATM   11  H13 UNL     1      27.922   5.724  49.242  1.00  0.00     0.207 HD
HETATM   12  N4  UNL     1      26.167   8.552  50.136  1.00  0.00    -0.074 NA
BRANCH  12  13
HETATM   13  C16 UNL     1      27.414   9.258  50.139  1.00  0.00     0.132 C 
BRANCH  13  14
HETATM   14  C17 UNL     1      28.560   9.524  49.538  1.00  0.00    -0.002 C 
BRANCH  14  15
HETATM   15  C18 UNL     1      29.928   9.565  48.961  1.00  0.00     0.074 C 
BRANCH  15  16
HETATM   16  C19 UNL     1      30.373   8.184  48.720  1.00  0.00    -0.014 A 
HETATM   17  C20 UNL     1      29.822   7.279  47.888  1.00  0.00     0.015 A 
HETATM   18  C21 UNL     1      30.362   6.019  47.782  1.00  0.00     0.008 A 
HETATM   19  C22 UNL     1      31.511   5.773  48.603  1.00  0.00     0.050 A 
HETATM   20  S1  UNL     1      31.752   7.399  49.495  1.00  0.00    -0.106 SA
ENDBRANCH  15  16
ENDBRANCH  14  15
ENDBRANCH  13  14
ENDBRANCH  12  13
ENDBRANCH   7   8
BRANCH   5  21
HETATM   21  N1  UNL     1      23.008   2.008  50.797  1.00  0.00    -0.323 N 
HETATM   22  C6  UNL     1      22.356   2.157  52.073  1.00  0.00     0.256 C 
HETATM   23  O1  UNL     1      22.062   3.346  52.305  1.00  0.00    -0.267 OA
HETATM   24  H6  UNL     1      23.322   1.076  50.443  1.00  0.00     0.169 HD
BRANCH  22  25
HETATM   25  C7  UNL     1      22.118   1.001  52.915  1.00  0.00     0.032 A 
HETATM   26  C8  UNL     1      20.913   0.512  53.323  1.00  0.00     0.017 A 
HETATM   27  C9  UNL     1      20.724  -0.595  54.112  1.00  0.00     0.001 A 
HETATM   28  C10 UNL     1      21.860  -1.264  54.523  1.00  0.00     0.000 A 
HETATM   29  C11 UNL     1      23.123  -0.848  54.163  1.00  0.00     0.001 A 
HETATM   30  C12 UNL     1      23.240   0.284  53.359  1.00  0.00     0.017 A 
ENDBRANCH  22  25
ENDBRANCH   5  21
TORSDOF 7
ENDMDL
MODEL 8
REMARK VINA RESULT:      -7.6      4.327     11.713
REMARK  7 active torsions:
REMARK  status: ('A' for Active; 'I' for Inactive)
REMARK    1  A    between atoms: C5_5  and  N1_6 
REMARK       I    between atoms: N1_6  and  C6_7 
REMARK    2  A    between atoms: C6_7  and  C7_9 
REMARK    3  A    between atoms: C14_16  and  N2_17 
REMARK    4  A    between atoms: N4_20  and  C16_21 
REMARK    5  A    between atoms: C16_21  and  C17_22 
REMARK    6  A    between atoms: C17_22  and  C18_23 
REMARK    7  A    between atoms: C18_23  and  C19_24 
ROOT
HETATM    1  C1  UNL     1      24.990   7.283  47.960  1.00  0.00     0.050 C 
HETATM    2  C2  UNL     1      26.457   6.941  47.980  1.00  0.00    -0.033 A 
HETATM    3  C3  UNL     1      27.238   7.781  47.176  1.00  0.00     0.011 A 
HETATM    4  C4  UNL     1      28.598   7.559  47.110  1.00  0.00     0.030 A 
HETATM    5  C5  UNL     1      29.119   6.514  47.842  1.00  0.00     0.037 A 
HETATM    6  C13 UNL     1      28.364   5.680  48.636  1.00  0.00     0.062 A 
HETATM    7  C14 UNL     1      27.005   5.883  48.718  1.00  0.00     0.083 A 
ENDROOT
BRANCH   7   8
HETATM    8  N2  UNL     1      25.997   5.198  49.450  1.00  0.00    -0.068 N 
HETATM    9  N3  UNL     1      25.552   3.835  49.538  1.00  0.00    -0.107 N 
HETATM   10  C15 UNL     1      24.955   4.899  50.297  1.00  0.00     0.741 A 
HETATM   11  H13 UNL     1      25.527   2.808  49.333  1.00  0.00     0.207 HD
HETATM   12  N4  UNL     1      24.091   5.341  51.176  1.00  0.00    -0.074 NA
BRANCH  12  13
HETATM   13  C16 UNL     1      23.195   4.363  51.720  1.00  0.00     0.132 C 
BRANCH  13  14
HETATM   14  C17 UNL     1      23.018   3.159  52.233  1.00  0.00    -0.002 C 
BRANCH  14  15
HETATM   15  C18 UNL     1      22.674   1.755  52.569  1.00  0.00     0.074 C 
BRANCH  15  16
HETATM   16  C19 UNL     1      23.893   1.074  53.032  1.00  0.00    -0.014 A 
HETATM   17  C20 UNL     1      24.016  -0.207  53.430  1.00  0.00     0.015 A 
HETATM   18  C21 UNL     1      25.236  -0.689  53.841  1.00  0.00     0.008 A 
HETATM   19  C22 UNL     1      26.313   0.257  53.806  1.00  0.00     0.050 A 
HETATM   20  S1  UNL     1      25.492   1.813  53.172  1.00  0.00    -0.106 SA
ENDBRANCH  15  16
ENDBRANCH  14  15
ENDBRANCH  13  14
ENDBRANCH  12  13
ENDBRANCH   7   8
BRANCH   5  21
HETATM   21  N1  UNL     1      30.519   6.284  47.775  1.00  0.00    -0.323 N 
HETATM   22  C6  UNL     1      31.371   7.080  48.622  1.00  0.00     0.256 C 
HETATM   23  O1  UNL     1      30.713   7.880  49.316  1.00  0.00    -0.267 OA
HETATM   24  H6  UNL     1      30.905   5.560  47.127  1.00  0.00     0.169 HD
BRANCH  22  25
HETATM   25  C7  UNL     1      32.808   6.897  48.596  1.00  0.00     0.032 A 
HETATM   26  C8  UNL     1      33.492   5.723  48.698  1.00  0.00     0.017 A 
HETATM   27  C9  UNL     1      34.858   5.586  48.657  1.00  0.00     0.001 A 
HETATM   28  C10 UNL     1      35.592   6.744  48.499  1.00  0.00     0.000 A 
HETATM   29  C11 UNL     1      34.993   7.979  48.387  1.00  0.00     0.001 A 
HETATM   30  C12 UNL     1      33.601   8.044  48.437  1.00  0.00     0.017 A 
ENDBRANCH  22  25
ENDBRANCH   5  21
TORSDOF 7
ENDMDL
MODEL 9
REMARK VINA RESULT:      -7.5      2.930      5.362
REMARK  7 active torsions:
REMARK  status: ('A' for Active; 'I' for Inactive)
REMARK    1  A    between atoms: C5_5  and  N1_6 
REMARK       I    between atoms: N1_6  and  C6_7 
REMARK    2  A    between atoms: C6_7  and  C7_9 
REMARK    3  A    between atoms: C14_16  and  N2_17 
REMARK    4  A    between atoms: N4_20  and  C16_21 
REMARK    5  A    between atoms: C16_21  and  C17_22 
REMARK    6  A    between atoms: C17_22  and  C18_23 
REMARK    7  A    between atoms: C18_23  and  C19_24 
ROOT
HETATM    1  C1  UNL     1      25.440   7.760  47.575  1.00  0.00     0.050 C 
HETATM    2  C2  UNL     1      25.299   6.440  48.289  1.00  0.00    -0.033 A 
HETATM    3  C3  UNL     1      23.974   5.996  48.385  1.00  0.00     0.011 A 
HETATM    4  C4  UNL     1      23.720   4.801  49.025  1.00  0.00     0.030 A 
HETATM    5  C5  UNL     1      24.791   4.104  49.541  1.00  0.00     0.037 A 
HETATM    6  C13 UNL     1      26.098   4.528  49.454  1.00  0.00     0.062 A 
HETATM    7  C14 UNL     1      26.376   5.716  48.819  1.00  0.00     0.083 A 
ENDROOT
BRANCH   7   8
HETATM    8  N2  UNL     1      27.606   6.386  48.576  1.00  0.00    -0.068 N 
HETATM    9  N3  UNL     1      28.790   6.095  47.815  1.00  0.00    -0.107 N 
HETATM   10  C15 UNL     1      28.631   7.304  48.574  1.00  0.00     0.741 A 
HETATM   11  H13 UNL     1      29.430   5.553  47.188  1.00  0.00     0.207 HD
HETATM   12  N4  UNL     1      29.064   8.469  48.988  1.00  0.00    -0.074 NA
BRANCH  12  13
HETATM   13  C16 UNL     1      30.379   8.838  48.555  1.00  0.00     0.132 C 
BRANCH  13  14
HETATM   14  C17 UNL     1      31.628   8.480  48.318  1.00  0.00    -0.002 C 
BRANCH  14  15
HETATM   15  C18 UNL     1      33.086   8.195  48.308  1.00  0.00     0.074 C 
BRANCH  15  16
HETATM   16  C19 UNL     1      33.276   6.749  48.119  1.00  0.00    -0.014 A 
HETATM   17  C20 UNL     1      32.323   5.813  47.946  1.00  0.00     0.015 A 
HETATM   18  C21 UNL     1      32.672   4.492  47.787  1.00  0.00     0.008 A 
HETATM   19  C22 UNL     1      34.080   4.222  47.820  1.00  0.00     0.050 A 
HETATM   20  S1  UNL     1      34.832   5.914  48.083  1.00  0.00    -0.106 SA
ENDBRANCH  15  16
ENDBRANCH  14  15
ENDBRANCH  13  14
ENDBRANCH  12  13
ENDBRANCH   7   8
BRANCH   5  21
HETATM   21  N1  UNL     1      24.532   2.873  50.200  1.00  0.00    -0.323 N 
HETATM   22  C6  UNL     1      24.167   2.922  51.594  1.00  0.00     0.256 C 
HETATM   23  O1  UNL     1      24.130   4.093  52.020  1.00  0.00    -0.267 OA
HETATM   24  H6  UNL     1      24.608   1.969  49.681  1.00  0.00     0.169 HD
BRANCH  22  25
HETATM   25  C7  UNL     1      23.895   1.700  52.325  1.00  0.00     0.032 A 
HETATM   26  C8  UNL     1      24.780   0.711  52.636  1.00  0.00     0.017 A 
HETATM   27  C9  UNL     1      24.489  -0.430  53.342  1.00  0.00     0.001 A 
HETATM   28  C10 UNL     1      23.184  -0.579  53.768  1.00  0.00     0.000 A 
HETATM   29  C11 UNL     1      22.217   0.366  53.503  1.00  0.00     0.001 A 
HETATM   30  C12 UNL     1      22.584   1.500  52.781  1.00  0.00     0.017 A 
ENDBRANCH  22  25
ENDBRANCH   5  21
TORSDOF 7
ENDMDL
