MODEL 1
REMARK VINA RESULT:      -7.9      0.000      0.000
REMARK  6 active torsions:
REMARK  status: ('A' for Active; 'I' for Inactive)
REMARK    1  A    between atoms: N1_2  and  C2_3 
REMARK    2  A    between atoms: C3_5  and  N3_6 
REMARK    3  A    between atoms: N4_7  and  C4_8 
REMARK    4  A    between atoms: C4_8  and  C5_9 
REMARK    5  A    between atoms: C8_12  and  O1_13 
REMARK    6  A    between atoms: C11_16  and  C12_17 
ROOT
HETATM    1  C2  UNL     1      26.628   3.969  49.640  1.00  0.00     0.720 A 
HETATM    2  N2  UNL     1      25.352   3.810  49.585  1.00  0.00    -0.069 NA
HETATM    3  C3  UNL     1      24.952   2.887  50.618  1.00  0.00     0.324 A 
HETATM    4  C11 UNL     1      26.205   2.535  51.284  1.00  0.00     0.114 A 
HETATM    5  N5  UNL     1      27.173   3.170  50.706  1.00  0.00    -0.063 NA
ENDROOT
BRANCH   3   6
HETATM    6  N3  UNL     1      24.030   3.573  51.459  1.00  0.00    -0.163 NA
HETATM    7  N4  UNL     1      22.922   3.056  51.663  1.00  0.00    -0.191 NA
BRANCH   7   8
HETATM    8  C4  UNL     1      22.621   1.813  51.053  1.00  0.00     0.211 C 
BRANCH   8   9
HETATM    9  C5  UNL     1      22.152   0.843  52.104  1.00  0.00    -0.037 A 
HETATM   10  C6  UNL     1      23.090   0.343  53.014  1.00  0.00     0.012 A 
HETATM   11  C7  UNL     1      22.710  -0.549  53.995  1.00  0.00     0.037 A 
HETATM   12  C8  UNL     1      21.384  -0.926  54.045  1.00  0.00     0.065 A 
HETATM   13  C9  UNL     1      20.411  -0.456  53.160  1.00  0.00     0.037 A 
HETATM   14  C10 UNL     1      20.819   0.446  52.175  1.00  0.00     0.012 A 
BRANCH  12  15
HETATM   15  O1  UNL     1      20.974  -1.829  55.031  1.00  0.00    -0.361 OA
HETATM   16  H10 UNL     1      21.652  -2.185  55.702  1.00  0.00     0.217 HD
ENDBRANCH  12  15
ENDBRANCH   8   9
ENDBRANCH   7   8
ENDBRANCH   3   6
BRANCH   4  17
HETATM   17  C12 UNL     1      26.386   1.631  52.407  1.00  0.00     0.015 A 
HETATM   18  C13 UNL     1      26.379   2.033  53.646  1.00  0.00     0.148 A 
HETATM   19  O2  UNL     1      26.539   1.282  54.798  1.00  0.00    -0.358 OA
HETATM   20  C14 UNL     1      26.740  -0.106  54.698  1.00  0.00     0.202 A 
HETATM   21  C15 UNL     1      26.736  -0.488  53.267  1.00  0.00     0.000 A 
HETATM   22  C16 UNL     1      26.586   0.215  52.159  1.00  0.00     0.013 A 
ENDBRANCH   4  17
BRANCH   1  23
HETATM   23  N1  UNL     1      27.426   4.792  48.802  1.00  0.00    -0.227 N 
HETATM   24  C1  UNL     1      27.016   6.156  48.538  1.00  0.00     0.165 C 
HETATM   25  H4  UNL     1      28.311   4.461  48.358  1.00  0.00     0.177 HD
ENDBRANCH   1  23
TORSDOF 6
ENDMDL
MODEL 2
REMARK VINA RESULT:      -7.8      2.833      6.348
REMARK  6 active torsions:
REMARK  status: ('A' for Active; 'I' for Inactive)
REMARK    1  A    between atoms: N1_2  and  C2_3 
REMARK    2  A    between atoms: C3_5  and  N3_6 
REMARK    3  A    between atoms: N4_7  and  C4_8 
REMARK    4  A    between atoms: C4_8  and  C5_9 
REMARK    5  A    between atoms: C8_12  and  O1_13 
REMARK    6  A    between atoms: C11_16  and  C12_17 
ROOT
HETATM    1  C2  UNL     1      27.267  -0.078  54.079  1.00  0.00     0.720 A 
HETATM    2  N2  UNL     1      27.005   0.897  53.281  1.00  0.00    -0.069 NA
HETATM    3  C3  UNL     1      25.582   0.941  53.051  1.00  0.00     0.324 A 
HETATM    4  C11 UNL     1      25.059  -0.169  53.845  1.00  0.00     0.114 A 
HETATM    5  N5  UNL     1      26.049  -0.755  54.439  1.00  0.00    -0.063 NA
ENDROOT
BRANCH   3   6
HETATM    6  N3  UNL     1      25.125   2.219  53.484  1.00  0.00    -0.163 NA
HETATM    7  N4  UNL     1      24.681   3.005  52.634  1.00  0.00    -0.191 NA
BRANCH   7   8
HETATM    8  C4  UNL     1      24.648   2.601  51.276  1.00  0.00     0.211 C 
BRANCH   8   9
HETATM    9  C5  UNL     1      25.356   3.629  50.433  1.00  0.00    -0.037 A 
HETATM   10  C6  UNL     1      24.804   4.911  50.345  1.00  0.00     0.012 A 
HETATM   11  C7  UNL     1      25.413   5.888  49.586  1.00  0.00     0.037 A 
HETATM   12  C8  UNL     1      26.577   5.556  48.923  1.00  0.00     0.065 A 
HETATM   13  C9  UNL     1      27.167   4.291  48.979  1.00  0.00     0.037 A 
HETATM   14  C10 UNL     1      26.531   3.318  49.754  1.00  0.00     0.012 A 
BRANCH  12  15
HETATM   15  O1  UNL     1      27.214   6.529  48.147  1.00  0.00    -0.361 OA
HETATM   16  H10 UNL     1      28.153   6.356  47.792  1.00  0.00     0.217 HD
ENDBRANCH  12  15
ENDBRANCH   8   9
ENDBRANCH   7   8
ENDBRANCH   3   6
BRANCH   4  17
HETATM   17  C12 UNL     1      23.674  -0.586  53.979  1.00  0.00     0.015 A 
HETATM   18  C13 UNL     1      23.233  -1.252  55.008  1.00  0.00     0.148 A 
HETATM   19  O2  UNL     1      21.948  -1.706  55.257  1.00  0.00    -0.358 OA
HETATM   20  C14 UNL     1      20.931  -1.452  54.321  1.00  0.00     0.202 A 
HETATM   21  C15 UNL     1      21.504  -0.695  53.185  1.00  0.00     0.000 A 
HETATM   22  C16 UNL     1      22.724  -0.256  52.933  1.00  0.00     0.013 A 
ENDBRANCH   4  17
BRANCH   1  23
HETATM   23  N1  UNL     1      28.544  -0.470  54.561  1.00  0.00    -0.227 N 
HETATM   24  C1  UNL     1      29.580  -0.845  53.621  1.00  0.00     0.165 C 
HETATM   25  H4  UNL     1      28.781  -0.503  55.577  1.00  0.00     0.177 HD
ENDBRANCH   1  23
TORSDOF 6
ENDMDL
MODEL 3
REMARK VINA RESULT:      -7.3      2.308      5.205
REMARK  6 active torsions:
REMARK  status: ('A' for Active; 'I' for Inactive)
REMARK    1  A    between atoms: N1_2  and  C2_3 
REMARK    2  A    between atoms: C3_5  and  N3_6 
REMARK    3  A    between atoms: N4_7  and  C4_8 
REMARK    4  A    between atoms: C4_8  and  C5_9 
REMARK    5  A    between atoms: C8_12  and  O1_13 
REMARK    6  A    between atoms: C11_16  and  C12_17 
ROOT
HETATM    1  C2  UNL     1      23.054   5.154  51.722  1.00  0.00     0.720 A 
HETATM    2  N2  UNL     1      24.256   4.694  51.686  1.00  0.00    -0.069 NA
HETATM    3  C3  UNL     1      24.233   3.301  52.058  1.00  0.00     0.324 A 
HETATM    4  C11 UNL     1      22.821   3.025  52.315  1.00  0.00     0.114 A 
HETATM    5  N5  UNL     1      22.145   4.111  52.116  1.00  0.00    -0.063 NA
ENDROOT
BRANCH   3   6
HETATM    6  N3  UNL     1      24.769   2.566  50.963  1.00  0.00    -0.163 NA
HETATM    7  N4  UNL     1      25.787   1.884  51.152  1.00  0.00    -0.191 NA
BRANCH   7   8
HETATM    8  C4  UNL     1      26.371   1.867  52.444  1.00  0.00     0.211 C 
BRANCH   8   9
HETATM    9  C5  UNL     1      27.016   0.528  52.681  1.00  0.00    -0.037 A 
HETATM   10  C6  UNL     1      26.318  -0.624  52.301  1.00  0.00     0.012 A 
HETATM   11  C7  UNL     1      26.866  -1.874  52.497  1.00  0.00     0.037 A 
HETATM   12  C8  UNL     1      28.116  -1.947  53.078  1.00  0.00     0.065 A 
HETATM   13  C9  UNL     1      28.851  -0.828  53.476  1.00  0.00     0.037 A 
HETATM   14  C10 UNL     1      28.276   0.428  53.267  1.00  0.00     0.012 A 
BRANCH  12  15
HETATM   15  O1  UNL     1      28.693  -3.203  53.288  1.00  0.00    -0.361 OA
HETATM   16  H10 UNL     1      29.502  -3.484  52.738  1.00  0.00     0.217 HD
ENDBRANCH  12  15
ENDBRANCH   8   9
ENDBRANCH   7   8
ENDBRANCH   3   6
BRANCH   4  17
HETATM   17  C12 UNL     1      22.226   1.765  52.726  1.00  0.00     0.015 A 
HETATM   18  C13 UNL     1      20.974   1.474  52.520  1.00  0.00     0.148 A 
HETATM   19  O2  UNL     1      20.288   0.320  52.858  1.00  0.00    -0.358 OA
HETATM   20  C14 UNL     1      20.967  -0.722  53.514  1.00  0.00     0.202 A 
HETATM   21  C15 UNL     1      22.379  -0.322  53.714  1.00  0.00     0.000 A 
HETATM   22  C16 UNL     1      23.046   0.774  53.398  1.00  0.00     0.013 A 
ENDBRANCH   4  17
BRANCH   1  23
HETATM   23  N1  UNL     1      22.635   6.478  51.426  1.00  0.00    -0.227 N 
HETATM   24  C1  UNL     1      21.416   6.693  50.675  1.00  0.00     0.165 C 
HETATM   25  H4  UNL     1      23.168   7.323  51.729  1.00  0.00     0.177 HD
ENDBRANCH   1  23
TORSDOF 6
ENDMDL
MODEL 4
REMARK VINA RESULT:      -7.3      2.678      4.823
REMARK  6 active torsions:
REMARK  status: ('A' for Active; 'I' for Inactive)
REMARK    1  A    between atoms: N1_2  and  C2_3 
REMARK    2  A    between atoms: C3_5  and  N3_6 
REMARK    3  A    between atoms: N4_7  and  C4_8 
REMARK    4  A    between atoms: C4_8  and  C5_9 
REMARK    5  A    between atoms: C8_12  and  O1_13 
REMARK    6  A    between atoms: C11_16  and  C12_17 
ROOT
HETATM    1  C2  UNL     1      27.396  -0.666  53.381  1.00  0.00     0.720 A 
HETATM    2  N2  UNL     1      27.155   0.387  52.681  1.00  0.00    -0.069 NA
HETATM    3  C3  UNL     1      25.734   0.628  52.676  1.00  0.00     0.324 A 
HETATM    4  C11 UNL     1      25.186  -0.457  53.489  1.00  0.00     0.114 A 
HETATM    5  N5  UNL     1      26.163  -1.203  53.894  1.00  0.00    -0.063 NA
ENDROOT
BRANCH   3   6
HETATM    6  N3  UNL     1      25.525   1.921  53.235  1.00  0.00    -0.163 NA
HETATM    7  N4  UNL     1      24.990   2.789  52.529  1.00  0.00    -0.191 NA
BRANCH   7   8
HETATM    8  C4  UNL     1      24.611   2.457  51.204  1.00  0.00     0.211 C 
BRANCH   8   9
HETATM    9  C5  UNL     1      23.110   2.490  51.092  1.00  0.00    -0.037 A 
HETATM   10  C6  UNL     1      22.384   3.169  52.077  1.00  0.00     0.012 A 
HETATM   11  C7  UNL     1      21.007   3.227  52.019  1.00  0.00     0.037 A 
HETATM   12  C8  UNL     1      20.379   2.598  50.965  1.00  0.00     0.065 A 
HETATM   13  C9  UNL     1      21.058   1.908  49.958  1.00  0.00     0.037 A 
HETATM   14  C10 UNL     1      22.452   1.862  50.038  1.00  0.00     0.012 A 
BRANCH  12  15
HETATM   15  O1  UNL     1      18.984   2.643  50.884  1.00  0.00    -0.361 OA
HETATM   16  H10 UNL     1      18.535   3.349  50.304  1.00  0.00     0.217 HD
ENDBRANCH  12  15
ENDBRANCH   8   9
ENDBRANCH   7   8
ENDBRANCH   3   6
BRANCH   4  17
HETATM   17  C12 UNL     1      23.793  -0.701  53.817  1.00  0.00     0.015 A 
HETATM   18  C13 UNL     1      23.408  -1.157  54.975  1.00  0.00     0.148 A 
HETATM   19  O2  UNL     1      22.123  -1.431  55.412  1.00  0.00    -0.358 OA
HETATM   20  C14 UNL     1      21.036  -1.212  54.547  1.00  0.00     0.202 A 
HETATM   21  C15 UNL     1      21.547  -0.696  53.257  1.00  0.00     0.000 A 
HETATM   22  C16 UNL     1      22.768  -0.430  52.825  1.00  0.00     0.013 A 
ENDBRANCH   4  17
BRANCH   1  23
HETATM   23  N1  UNL     1      28.664  -1.250  53.640  1.00  0.00    -0.227 N 
HETATM   24  C1  UNL     1      29.853  -0.424  53.615  1.00  0.00     0.165 C 
HETATM   25  H4  UNL     1      28.788  -2.265  53.854  1.00  0.00     0.177 HD
ENDBRANCH   1  23
TORSDOF 6
ENDMDL
MODEL 5
REMARK VINA RESULT:      -7.1      3.781      7.300
REMARK  6 active torsions:
REMARK  status: ('A' for Active; 'I' for Inactive)
REMARK    1  A    between atoms: N1_2  and  C2_3 
REMARK    2  A    between atoms: C3_5  and  N3_6 
REMARK    3  A    between atoms: N4_7  and  C4_8 
REMARK    4  A    between atoms: C4_8  and  C5_9 
REMARK    5  A    between atoms: C8_12  and  O1_13 
REMARK    6  A    between atoms: C11_16  and  C12_17 
ROOT
HETATM    1  C2  UNL     1      18.730  -1.326  53.485  1.00  0.00     0.720 A 
HETATM    2  N2  UNL     1      19.864  -1.701  53.963  1.00  0.00    -0.069 NA
HETATM    3  C3  UNL     1      20.901  -0.863  53.415  1.00  0.00     0.324 A 
HETATM    4  C11 UNL     1      20.184   0.062  52.539  1.00  0.00     0.114 A 
HETATM    5  N5  UNL     1      18.921  -0.218  52.588  1.00  0.00    -0.063 NA
ENDROOT
BRANCH   3   6
HETATM    6  N3  UNL     1      21.549  -0.225  54.511  1.00  0.00    -0.163 NA
HETATM    7  N4  UNL     1      22.787  -0.144  54.498  1.00  0.00    -0.191 NA
BRANCH   7   8
HETATM    8  C4  UNL     1      23.498  -0.687  53.399  1.00  0.00     0.211 C 
BRANCH   8   9
HETATM    9  C5  UNL     1      24.504   0.320  52.910  1.00  0.00    -0.037 A 
HETATM   10  C6  UNL     1      25.780  -0.131  52.555  1.00  0.00     0.012 A 
HETATM   11  C7  UNL     1      26.737   0.753  52.102  1.00  0.00     0.037 A 
HETATM   12  C8  UNL     1      26.393   2.086  52.012  1.00  0.00     0.065 A 
HETATM   13  C9  UNL     1      25.134   2.586  52.355  1.00  0.00     0.037 A 
HETATM   14  C10 UNL     1      24.181   1.672  52.811  1.00  0.00     0.012 A 
BRANCH  12  15
HETATM   15  O1  UNL     1      27.345   3.002  51.556  1.00  0.00    -0.361 OA
HETATM   16  H10 UNL     1      28.323   2.723  51.492  1.00  0.00     0.217 HD
ENDBRANCH  12  15
ENDBRANCH   8   9
ENDBRANCH   7   8
ENDBRANCH   3   6
BRANCH   4  17
HETATM   17  C12 UNL     1      20.745   1.130  51.730  1.00  0.00     0.015 A 
HETATM   18  C13 UNL     1      20.662   2.386  52.061  1.00  0.00     0.148 A 
HETATM   19  O2  UNL     1      21.149   3.492  51.385  1.00  0.00    -0.358 OA
HETATM   20  C14 UNL     1      21.837   3.315  50.172  1.00  0.00     0.202 A 
HETATM   21  C15 UNL     1      21.893   1.868  49.861  1.00  0.00     0.000 A 
HETATM   22  C16 UNL     1      21.434   0.803  50.494  1.00  0.00     0.013 A 
ENDBRANCH   4  17
BRANCH   1  23
HETATM   23  N1  UNL     1      17.455  -1.886  53.766  1.00  0.00    -0.227 N 
HETATM   24  C1  UNL     1      17.249  -3.311  53.614  1.00  0.00     0.165 C 
HETATM   25  H4  UNL     1      16.641  -1.313  54.084  1.00  0.00     0.177 HD
ENDBRANCH   1  23
TORSDOF 6
ENDMDL
MODEL 6
REMARK VINA RESULT:      -7.0      2.073      2.697
REMARK  6 active torsions:
REMARK  status: ('A' for Active; 'I' for Inactive)
REMARK    1  A    between atoms: N1_2  and  C2_3 
REMARK    2  A    between atoms: C3_5  and  N3_6 
REMARK    3  A    between atoms: N4_7  and  C4_8 
REMARK    4  A    between atoms: C4_8  and  C5_9 
REMARK    5  A    between atoms: C8_12  and  O1_13 
REMARK    6  A    between atoms: C11_16  and  C12_17 
ROOT
HETATM    1  C2  UNL     1      26.079   2.865  51.114  1.00  0.00     0.720 A 
HETATM    2  N2  UNL     1      24.957   2.374  51.508  1.00  0.00    -0.069 NA
HETATM    3  C3  UNL     1      25.199   1.094  52.126  1.00  0.00     0.324 A 
HETATM    4  C11 UNL     1      26.648   0.920  52.027  1.00  0.00     0.114 A 
HETATM    5  N5  UNL     1      27.149   1.957  51.436  1.00  0.00    -0.063 NA
ENDROOT
BRANCH   3   6
HETATM    6  N3  UNL     1      24.723   1.177  53.465  1.00  0.00    -0.163 NA
HETATM    7  N4  UNL     1      23.816   0.409  53.818  1.00  0.00    -0.191 NA
BRANCH   7   8
HETATM    8  C4  UNL     1      23.295  -0.514  52.876  1.00  0.00     0.211 C 
BRANCH   8   9
HETATM    9  C5  UNL     1      21.807  -0.636  53.072  1.00  0.00    -0.037 A 
HETATM   10  C6  UNL     1      21.331  -1.593  53.973  1.00  0.00     0.012 A 
HETATM   11  C7  UNL     1      19.976  -1.745  54.187  1.00  0.00     0.037 A 
HETATM   12  C8  UNL     1      19.117  -0.924  53.485  1.00  0.00     0.065 A 
HETATM   13  C9  UNL     1      19.543   0.045  52.574  1.00  0.00     0.037 A 
HETATM   14  C10 UNL     1      20.919   0.180  52.374  1.00  0.00     0.012 A 
BRANCH  12  15
HETATM   15  O1  UNL     1      17.740  -1.058  53.684  1.00  0.00    -0.361 OA
HETATM   16  H10 UNL     1      17.103  -0.941  52.899  1.00  0.00     0.217 HD
ENDBRANCH  12  15
ENDBRANCH   8   9
ENDBRANCH   7   8
ENDBRANCH   3   6
BRANCH   4  17
HETATM   17  C12 UNL     1      27.438  -0.204  52.496  1.00  0.00     0.015 A 
HETATM   18  C13 UNL     1      27.016  -1.435  52.446  1.00  0.00     0.148 A 
HETATM   19  O2  UNL     1      27.663  -2.588  52.856  1.00  0.00    -0.358 OA
HETATM   20  C14 UNL     1      28.952  -2.498  53.411  1.00  0.00     0.202 A 
HETATM   21  C15 UNL     1      29.365  -1.077  53.435  1.00  0.00     0.000 A 
HETATM   22  C16 UNL     1      28.759   0.033  53.049  1.00  0.00     0.013 A 
ENDBRANCH   4  17
BRANCH   1  23
HETATM   23  N1  UNL     1      26.287   4.107  50.457  1.00  0.00    -0.227 N 
HETATM   24  C1  UNL     1      25.153   4.844  49.942  1.00  0.00     0.165 C 
HETATM   25  H4  UNL     1      27.234   4.526  50.322  1.00  0.00     0.177 HD
ENDBRANCH   1  23
TORSDOF 6
ENDMDL
MODEL 7
REMARK VINA RESULT:      -7.0      2.978      6.186
REMARK  6 active torsions:
REMARK  status: ('A' for Active; 'I' for Inactive)
REMARK    1  A    between atoms: N1_2  and  C2_3 
REMARK    2  A    between atoms: C3_5  and  N3_6 
REMARK    3  A    between atoms: N4_7  and  C4_8 
REMARK    4  A    between atoms: C4_8  and  C5_9 
REMARK    5  A    between atoms: C8_12  and  O1_13 
REMARK    6  A    between atoms: C11_16  and  C12_17 
ROOT
HETATM    1  C2  UNL     1      21.912   1.009  52.844  1.00  0.00     0.720 A 
HETATM    2  N2  UNL     1      23.133   0.660  53.056  1.00  0.00    -0.069 NA
HETATM    3  C3  UNL     1      24.008   1.622  52.434  1.00  0.00     0.324 A 
HETATM    4  C11 UNL     1      23.096   2.589  51.824  1.00  0.00     0.114 A 
HETATM    5  N5  UNL     1      21.880   2.222  52.070  1.00  0.00    -0.063 NA
ENDROOT
BRANCH   3   6
HETATM    6  N3  UNL     1      24.823   2.175  53.462  1.00  0.00    -0.163 NA
HETATM    7  N4  UNL     1      26.055   2.137  53.323  1.00  0.00    -0.191 NA
BRANCH   7   8
HETATM    8  C4  UNL     1      26.594   1.546  52.153  1.00  0.00     0.211 C 
BRANCH   8   9
HETATM    9  C5  UNL     1      27.170   0.198  52.496  1.00  0.00    -0.037 A 
HETATM   10  C6  UNL     1      28.391   0.149  53.177  1.00  0.00     0.012 A 
HETATM   11  C7  UNL     1      28.960  -1.061  53.513  1.00  0.00     0.037 A 
HETATM   12  C8  UNL     1      28.287  -2.212  53.157  1.00  0.00     0.065 A 
HETATM   13  C9  UNL     1      27.067  -2.216  52.477  1.00  0.00     0.037 A 
HETATM   14  C10 UNL     1      26.510  -0.978  52.146  1.00  0.00     0.012 A 
BRANCH  12  15
HETATM   15  O1  UNL     1      28.843  -3.451  53.487  1.00  0.00    -0.361 OA
HETATM   16  H10 UNL     1      29.186  -4.062  52.749  1.00  0.00     0.217 HD
ENDBRANCH  12  15
ENDBRANCH   8   9
ENDBRANCH   7   8
ENDBRANCH   3   6
BRANCH   4  17
HETATM   17  C12 UNL     1      23.445   3.776  51.064  1.00  0.00     0.015 A 
HETATM   18  C13 UNL     1      23.619   4.944  51.615  1.00  0.00     0.148 A 
HETATM   19  O2  UNL     1      23.950   6.144  51.009  1.00  0.00    -0.358 OA
HETATM   20  C14 UNL     1      24.141   6.188  49.617  1.00  0.00     0.202 A 
HETATM   21  C15 UNL     1      23.928   4.832  49.062  1.00  0.00     0.000 A 
HETATM   22  C16 UNL     1      23.611   3.679  49.625  1.00  0.00     0.013 A 
ENDBRANCH   4  17
BRANCH   1  23
HETATM   23  N1  UNL     1      20.741   0.337  53.283  1.00  0.00    -0.227 N 
HETATM   24  C1  UNL     1      20.855  -0.946  53.944  1.00  0.00     0.165 C 
HETATM   25  H4  UNL     1      19.780   0.727  53.153  1.00  0.00     0.177 HD
ENDBRANCH   1  23
TORSDOF 6
ENDMDL
MODEL 8
REMARK VINA RESULT:      -6.9      2.608      6.368
REMARK  6 active torsions:
REMARK  status: ('A' for Active; 'I' for Inactive)
REMARK    1  A    between atoms: N1_2  and  C2_3 
REMARK    2  A    between atoms: C3_5  and  N3_6 
REMARK    3  A    between atoms: N4_7  and  C4_8 
REMARK    4  A    between atoms: C4_8  and  C5_9 
REMARK    5  A    between atoms: C8_12  and  O1_13 
REMARK    6  A    between atoms: C11_16  and  C12_17 
ROOT
HETATM    1  C2  UNL     1      21.380   0.167  53.716  1.00  0.00     0.720 A 
HETATM    2  N2  UNL     1      21.398   1.132  52.864  1.00  0.00    -0.069 NA
HETATM    3  C3  UNL     1      22.767   1.423  52.517  1.00  0.00     0.324 A 
HETATM    4  C11 UNL     1      23.544   0.469  53.308  1.00  0.00     0.114 A 
HETATM    5  N5  UNL     1      22.726  -0.256  54.001  1.00  0.00    -0.063 NA
ENDROOT
BRANCH   3   6
HETATM    6  N3  UNL     1      22.893   1.236  51.111  1.00  0.00    -0.163 NA
HETATM    7  N4  UNL     1      23.341   2.171  50.431  1.00  0.00    -0.191 NA
BRANCH   7   8
HETATM    8  C4  UNL     1      23.706   3.378  51.078  1.00  0.00     0.211 C 
BRANCH   8   9
HETATM    9  C5  UNL     1      24.816   4.040  50.308  1.00  0.00    -0.037 A 
HETATM   10  C6  UNL     1      25.945   3.282  49.981  1.00  0.00     0.012 A 
HETATM   11  C7  UNL     1      26.989   3.843  49.277  1.00  0.00     0.037 A 
HETATM   12  C8  UNL     1      26.880   5.168  48.909  1.00  0.00     0.065 A 
HETATM   13  C9  UNL     1      25.776   5.967  49.211  1.00  0.00     0.037 A 
HETATM   14  C10 UNL     1      24.730   5.377  49.925  1.00  0.00     0.012 A 
BRANCH  12  15
HETATM   15  O1  UNL     1      27.926   5.760  48.194  1.00  0.00    -0.361 OA
HETATM   16  H10 UNL     1      28.764   6.065  48.685  1.00  0.00     0.217 HD
ENDBRANCH  12  15
ENDBRANCH   8   9
ENDBRANCH   7   8
ENDBRANCH   3   6
BRANCH   4  17
HETATM   17  C12 UNL     1      24.988   0.319  53.344  1.00  0.00     0.015 A 
HETATM   18  C13 UNL     1      25.578  -0.841  53.393  1.00  0.00     0.148 A 
HETATM   19  O2  UNL     1      26.933  -1.121  53.432  1.00  0.00    -0.358 OA
HETATM   20  C14 UNL     1      27.859  -0.062  53.419  1.00  0.00     0.202 A 
HETATM   21  C15 UNL     1      27.120   1.219  53.362  1.00  0.00     0.000 A 
HETATM   22  C16 UNL     1      25.829   1.502  53.326  1.00  0.00     0.013 A 
ENDBRANCH   4  17
BRANCH   1  23
HETATM   23  N1  UNL     1      20.237  -0.426  54.315  1.00  0.00    -0.227 N 
HETATM   24  C1  UNL     1      19.144  -0.879  53.480  1.00  0.00     0.165 C 
HETATM   25  H4  UNL     1      20.141  -0.556  55.347  1.00  0.00     0.177 HD
ENDBRANCH   1  23
TORSDOF 6
ENDMDL
MODEL 9
REMARK VINA RESULT:      -6.7      3.278      5.897
REMARK  6 active torsions:
REMARK  status: ('A' for Active; 'I' for Inactive)
REMARK    1  A    between atoms: N1_2  and  C2_3 
REMARK    2  A    between atoms: C3_5  and  N3_6 
REMARK    3  A    between atoms: N4_7  and  C4_8 
REMARK    4  A    between atoms: C4_8  and  C5_9 
REMARK    5  A    between atoms: C8_12  and  O1_13 
REMARK    6  A    between atoms: C11_16  and  C12_17 
ROOT
HETATM    1  C2  UNL     1      21.377   3.026  50.600  1.00  0.00     0.720 A 
HETATM    2  N2  UNL     1      21.978   2.337  51.507  1.00  0.00    -0.069 NA
HETATM    3  C3  UNL     1      23.397   2.569  51.406  1.00  0.00     0.324 A 
HETATM    4  C11 UNL     1      23.525   3.507  50.290  1.00  0.00     0.114 A 
HETATM    5  N5  UNL     1      22.343   3.765  49.830  1.00  0.00    -0.063 NA
ENDROOT
BRANCH   3   6
HETATM    6  N3  UNL     1      23.825   3.104  52.654  1.00  0.00    -0.163 NA
HETATM    7  N4  UNL     1      24.537   2.399  53.384  1.00  0.00    -0.191 NA
BRANCH   7   8
HETATM    8  C4  UNL     1      24.891   1.098  52.947  1.00  0.00     0.211 C 
BRANCH   8   9
HETATM    9  C5  UNL     1      26.375   0.905  53.107  1.00  0.00    -0.037 A 
HETATM   10  C6  UNL     1      27.179   2.038  53.272  1.00  0.00     0.012 A 
HETATM   11  C7  UNL     1      28.545   1.915  53.422  1.00  0.00     0.037 A 
HETATM   12  C8  UNL     1      29.084   0.645  53.403  1.00  0.00     0.065 A 
HETATM   13  C9  UNL     1      28.324  -0.516  53.240  1.00  0.00     0.037 A 
HETATM   14  C10 UNL     1      26.944  -0.366  53.090  1.00  0.00     0.012 A 
BRANCH  12  15
HETATM   15  O1  UNL     1      30.465   0.494  53.553  1.00  0.00    -0.361 OA
HETATM   16  H10 UNL     1      30.997  -0.011  52.846  1.00  0.00     0.217 HD
ENDBRANCH  12  15
ENDBRANCH   8   9
ENDBRANCH   7   8
ENDBRANCH   3   6
BRANCH   4  17
HETATM   17  C12 UNL     1      24.746   4.080  49.753  1.00  0.00     0.015 A 
HETATM   18  C13 UNL     1      24.789   5.257  49.196  1.00  0.00     0.148 A 
HETATM   19  O2  UNL     1      25.877   5.915  48.648  1.00  0.00    -0.358 OA
HETATM   20  C14 UNL     1      27.138   5.293  48.657  1.00  0.00     0.202 A 
HETATM   21  C15 UNL     1      27.013   3.966  49.302  1.00  0.00     0.000 A 
HETATM   22  C16 UNL     1      25.983   3.326  49.828  1.00  0.00     0.013 A 
ENDBRANCH   4  17
BRANCH   1  23
HETATM   23  N1  UNL     1      19.980   3.084  50.353  1.00  0.00    -0.227 N 
HETATM   24  C1  UNL     1      19.152   3.983  51.130  1.00  0.00     0.165 C 
HETATM   25  H4  UNL     1      19.508   2.502  49.626  1.00  0.00     0.177 HD
ENDBRANCH   1  23
TORSDOF 6
ENDMDL
