MODEL 1
REMARK VINA RESULT:      -8.0      0.000      0.000
REMARK  1 active torsions:
REMARK  status: ('A' for Active; 'I' for Inactive)
REMARK    1  A    between atoms: C3_4  and  C4_5 
ROOT
HETATM    1  C4  UNL     1      32.140   6.713  47.677  1.00  0.00     0.124 C 
HETATM    2  C5  UNL     1      32.636   5.463  48.267  1.00  0.00     0.087 C 
HETATM    3  C6  UNL     1      33.996   5.010  47.969  1.00  0.00     0.043 C 
HETATM    4  N1  UNL     1      34.407   4.187  47.028  1.00  0.00    -0.136 NA
HETATM    5  O1  UNL     1      33.932   4.040  45.719  1.00  0.00    -0.203 OA
HETATM    6  C7  UNL     1      33.365   5.063  44.794  1.00  0.00     0.173 A 
HETATM    7  S1  UNL     1      33.425   4.814  43.199  1.00  0.00    -0.148 SA
HETATM    8  C8  UNL     1      32.546   6.482  42.742  1.00  0.00     0.218 A 
HETATM    9  N2  UNL     1      32.362   6.948  44.041  1.00  0.00    -0.260 NA
HETATM   10  C9  UNL     1      32.721   6.334  45.055  1.00  0.00     0.165 A 
HETATM   11  N3  UNL     1      32.420   7.011  46.309  1.00  0.00    -0.349 N 
HETATM   12  C10 UNL     1      32.415   8.445  45.950  1.00  0.00     0.176 C 
HETATM   13  C11 UNL     1      33.541   9.101  46.622  1.00  0.00     0.029 C 
HETATM   14 CL2  UNL     1      33.303  10.773  46.018  1.00  0.00    -0.087 Cl
HETATM   15  C12 UNL     1      34.609   9.283  47.371  1.00  0.00     0.017 C 
HETATM   16  C13 UNL     1      35.272   8.201  48.143  1.00  0.00    -0.020 C 
HETATM   17  C14 UNL     1      35.349   6.925  48.524  1.00  0.00     0.021 C 
HETATM   18  C15 UNL     1      35.195   5.472  48.775  1.00  0.00     0.066 C 
HETATM   19  H5  UNL     1      33.964   3.843  42.528  1.00  0.00     0.100 HD
ENDROOT
BRANCH   1  20
HETATM   20  C3  UNL     1      30.617   6.651  47.770  1.00  0.00    -0.037 A 
HETATM   21  C2  UNL     1      29.969   5.468  48.278  1.00  0.00     0.028 A 
HETATM   22  C1  UNL     1      28.663   5.608  48.279  1.00  0.00     0.015 A 
HETATM   23 CL1  UNL     1      27.324   4.594  48.748  1.00  0.00    -0.089 Cl
HETATM   24  C17 UNL     1      28.361   6.951  47.747  1.00  0.00     0.079 A 
HETATM   25  C16 UNL     1      29.676   7.538  47.452  1.00  0.00    -0.012 A 
ENDBRANCH   1  20
TORSDOF 1
ENDMDL
MODEL 2
REMARK VINA RESULT:      -7.4      7.514     10.829
REMARK  1 active torsions:
REMARK  status: ('A' for Active; 'I' for Inactive)
REMARK    1  A    between atoms: C3_4  and  C4_5 
ROOT
HETATM    1  C4  UNL     1      24.447   4.381  49.366  1.00  0.00     0.124 C 
HETATM    2  C5  UNL     1      24.629   4.101  50.797  1.00  0.00     0.087 C 
HETATM    3  C6  UNL     1      23.479   3.710  51.613  1.00  0.00     0.043 C 
HETATM    4  N1  UNL     1      22.682   4.466  52.336  1.00  0.00    -0.136 NA
HETATM    5  O1  UNL     1      22.219   5.761  52.074  1.00  0.00    -0.203 OA
HETATM    6  C7  UNL     1      21.906   6.410  50.768  1.00  0.00     0.173 A 
HETATM    7  S1  UNL     1      20.871   7.650  50.724  1.00  0.00    -0.148 SA
HETATM    8  C8  UNL     1      21.002   7.901  48.805  1.00  0.00     0.218 A 
HETATM    9  N2  UNL     1      21.909   6.876  48.553  1.00  0.00    -0.260 NA
HETATM   10  C9  UNL     1      22.378   6.134  49.427  1.00  0.00     0.165 A 
HETATM   11  N3  UNL     1      23.314   5.134  48.932  1.00  0.00    -0.349 N 
HETATM   12  C10 UNL     1      22.883   4.899  47.537  1.00  0.00     0.176 C 
HETATM   13  C11 UNL     1      22.374   3.528  47.429  1.00  0.00     0.029 C 
HETATM   14 CL2  UNL     1      21.927   3.523  45.692  1.00  0.00    -0.087 Cl
HETATM   15  C12 UNL     1      22.026   2.300  47.754  1.00  0.00     0.017 C 
HETATM   16  C13 UNL     1      22.176   1.730  49.117  1.00  0.00    -0.020 C 
HETATM   17  C14 UNL     1      22.545   1.853  50.394  1.00  0.00     0.021 C 
HETATM   18  C15 UNL     1      23.029   2.266  51.732  1.00  0.00     0.066 C 
HETATM   19  H5  UNL     1      20.172   8.185  51.677  1.00  0.00     0.100 HD
ENDROOT
BRANCH   1  20
HETATM   20  C3  UNL     1      25.661   5.199  48.935  1.00  0.00    -0.037 A 
HETATM   21  C2  UNL     1      26.967   4.592  48.891  1.00  0.00     0.028 A 
HETATM   22  C1  UNL     1      27.877   5.453  48.498  1.00  0.00     0.015 A 
HETATM   23 CL1  UNL     1      29.599   5.380  48.235  1.00  0.00    -0.089 Cl
HETATM   24  C17 UNL     1      27.193   6.737  48.249  1.00  0.00     0.079 A 
HETATM   25  C16 UNL     1      25.780   6.471  48.557  1.00  0.00    -0.012 A 
ENDBRANCH   1  20
TORSDOF 1
ENDMDL
MODEL 3
REMARK VINA RESULT:      -7.0      2.204      3.108
REMARK  1 active torsions:
REMARK  status: ('A' for Active; 'I' for Inactive)
REMARK    1  A    between atoms: C3_4  and  C4_5 
ROOT
HETATM    1  C4  UNL     1      31.974   7.538  46.764  1.00  0.00     0.124 C 
HETATM    2  C5  UNL     1      32.548   8.145  47.972  1.00  0.00     0.087 C 
HETATM    3  C6  UNL     1      34.000   8.179  48.147  1.00  0.00     0.043 C 
HETATM    4  N1  UNL     1      34.779   7.321  48.770  1.00  0.00    -0.136 NA
HETATM    5  O1  UNL     1      34.673   5.927  48.840  1.00  0.00    -0.203 OA
HETATM    6  C7  UNL     1      34.157   4.962  47.827  1.00  0.00     0.173 A 
HETATM    7  S1  UNL     1      34.649   3.423  47.872  1.00  0.00    -0.148 SA
HETATM    8  C8  UNL     1      33.598   2.874  46.337  1.00  0.00     0.218 A 
HETATM    9  N2  UNL     1      33.018   4.110  46.066  1.00  0.00    -0.260 NA
HETATM   10  C9  UNL     1      33.234   5.137  46.725  1.00  0.00     0.165 A 
HETATM   11  N3  UNL     1      32.513   6.314  46.262  1.00  0.00    -0.349 N 
HETATM   12  C10 UNL     1      32.314   6.069  44.818  1.00  0.00     0.176 C 
HETATM   13  C11 UNL     1      33.094   7.055  44.064  1.00  0.00     0.029 C 
HETATM   14 CL2  UNL     1      32.687   6.531  42.397  1.00  0.00    -0.087 Cl
HETATM   15  C12 UNL     1      33.892   8.067  43.792  1.00  0.00     0.017 C 
HETATM   16  C13 UNL     1      34.548   8.906  44.828  1.00  0.00    -0.020 C 
HETATM   17  C14 UNL     1      34.778   9.202  46.109  1.00  0.00     0.021 C 
HETATM   18  C15 UNL     1      34.854   9.300  47.585  1.00  0.00     0.066 C 
HETATM   19  H5  UNL     1      35.513   2.848  48.650  1.00  0.00     0.100 HD
ENDROOT
BRANCH   1  20
HETATM   20  C3  UNL     1      30.516   7.228  47.096  1.00  0.00    -0.037 A 
HETATM   21  C2  UNL     1      30.175   6.021  47.806  1.00  0.00     0.028 A 
HETATM   22  C1  UNL     1      28.879   5.934  47.996  1.00  0.00     0.015 A 
HETATM   23 CL1  UNL     1      27.829   4.769  48.759  1.00  0.00    -0.089 Cl
HETATM   24  C17 UNL     1      28.262   7.132  47.394  1.00  0.00     0.079 A 
HETATM   25  C16 UNL     1      29.392   7.896  46.846  1.00  0.00    -0.012 A 
ENDBRANCH   1  20
TORSDOF 1
ENDMDL
MODEL 4
REMARK VINA RESULT:      -6.9      1.777      2.298
REMARK  1 active torsions:
REMARK  status: ('A' for Active; 'I' for Inactive)
REMARK    1  A    between atoms: C3_4  and  C4_5 
ROOT
HETATM    1  C4  UNL     1      32.217   6.255  47.806  1.00  0.00     0.124 C 
HETATM    2  C5  UNL     1      31.779   4.879  47.536  1.00  0.00     0.087 C 
HETATM    3  C6  UNL     1      32.695   3.939  46.891  1.00  0.00     0.043 C 
HETATM    4  N1  UNL     1      32.825   3.654  45.613  1.00  0.00    -0.136 NA
HETATM    5  O1  UNL     1      32.714   4.504  44.506  1.00  0.00    -0.203 OA
HETATM    6  C7  UNL     1      33.061   5.949  44.381  1.00  0.00     0.173 A 
HETATM    7  S1  UNL     1      33.396   6.563  42.924  1.00  0.00    -0.148 SA
HETATM    8  C8  UNL     1      33.721   8.360  43.577  1.00  0.00     0.218 A 
HETATM    9  N2  UNL     1      33.484   8.105  44.925  1.00  0.00    -0.260 NA
HETATM   10  C9  UNL     1      33.168   6.996  45.376  1.00  0.00     0.165 A 
HETATM   11  N3  UNL     1      32.964   6.966  46.818  1.00  0.00    -0.349 N 
HETATM   12  C10 UNL     1      33.833   8.048  47.326  1.00  0.00     0.176 C 
HETATM   13  C11 UNL     1      34.909   7.451  48.123  1.00  0.00     0.029 C 
HETATM   14 CL2  UNL     1      35.787   8.945  48.589  1.00  0.00    -0.087 Cl
HETATM   15  C12 UNL     1      35.661   6.553  48.725  1.00  0.00     0.017 C 
HETATM   16  C13 UNL     1      35.399   5.091  48.682  1.00  0.00    -0.020 C 
HETATM   17  C14 UNL     1      34.666   4.053  48.273  1.00  0.00     0.021 C 
HETATM   18  C15 UNL     1      33.688   3.109  47.683  1.00  0.00     0.066 C 
HETATM   19  H5  UNL     1      33.477   5.973  41.771  1.00  0.00     0.100 HD
ENDROOT
BRANCH   1  20
HETATM   20  C3  UNL     1      30.945   7.074  48.012  1.00  0.00    -0.037 A 
HETATM   21  C2  UNL     1      29.867   6.991  47.059  1.00  0.00     0.028 A 
HETATM   22  C1  UNL     1      28.866   7.765  47.409  1.00  0.00     0.015 A 
HETATM   23 CL1  UNL     1      27.302   8.128  46.728  1.00  0.00    -0.089 Cl
HETATM   24  C17 UNL     1      29.243   8.434  48.670  1.00  0.00     0.079 A 
HETATM   25  C16 UNL     1      30.589   7.926  48.972  1.00  0.00    -0.012 A 
ENDBRANCH   1  20
TORSDOF 1
ENDMDL
MODEL 5
REMARK VINA RESULT:      -6.8      3.535      5.439
REMARK  1 active torsions:
REMARK  status: ('A' for Active; 'I' for Inactive)
REMARK    1  A    between atoms: C3_4  and  C4_5 
ROOT
HETATM    1  C4  UNL     1      28.214   8.453  47.808  1.00  0.00     0.124 C 
HETATM    2  C5  UNL     1      28.710   9.085  49.039  1.00  0.00     0.087 C 
HETATM    3  C6  UNL     1      29.495  10.317  48.956  1.00  0.00     0.043 C 
HETATM    4  N1  UNL     1      30.802  10.464  48.905  1.00  0.00    -0.136 NA
HETATM    5  O1  UNL     1      31.754   9.661  48.265  1.00  0.00    -0.203 OA
HETATM    6  C7  UNL     1      31.637   8.873  47.005  1.00  0.00     0.173 A 
HETATM    7  S1  UNL     1      32.970   8.510  46.167  1.00  0.00    -0.148 SA
HETATM    8  C8  UNL     1      32.027   7.546  44.773  1.00  0.00     0.218 A 
HETATM    9  N2  UNL     1      30.741   7.711  45.281  1.00  0.00    -0.260 NA
HETATM   10  C9  UNL     1      30.482   8.323  46.326  1.00  0.00     0.165 A 
HETATM   11  N3  UNL     1      29.066   8.364  46.666  1.00  0.00    -0.349 N 
HETATM   12  C10 UNL     1      28.380   8.268  45.360  1.00  0.00     0.176 C 
HETATM   13  C11 UNL     1      27.686   9.532  45.100  1.00  0.00     0.029 C 
HETATM   14 CL2  UNL     1      26.974   9.148  43.500  1.00  0.00    -0.087 Cl
HETATM   15  C12 UNL     1      27.235  10.760  45.257  1.00  0.00     0.017 C 
HETATM   16  C13 UNL     1      27.520  11.602  46.447  1.00  0.00    -0.020 C 
HETATM   17  C14 UNL     1      28.101  11.773  47.637  1.00  0.00     0.021 C 
HETATM   18  C15 UNL     1      28.845  11.687  48.915  1.00  0.00     0.066 C 
HETATM   19  H5  UNL     1      34.204   8.852  46.378  1.00  0.00     0.100 HD
ENDROOT
BRANCH   1  20
HETATM   20  C3  UNL     1      27.884   7.009  48.176  1.00  0.00    -0.037 A 
HETATM   21  C2  UNL     1      26.546   6.648  48.570  1.00  0.00     0.028 A 
HETATM   22  C1  UNL     1      26.464   5.367  48.846  1.00  0.00     0.015 A 
HETATM   23 CL1  UNL     1      25.181   4.307  49.367  1.00  0.00    -0.089 Cl
HETATM   24  C17 UNL     1      27.803   4.782  48.640  1.00  0.00     0.079 A 
HETATM   25  C16 UNL     1      28.640   5.912  48.213  1.00  0.00    -0.012 A 
ENDBRANCH   1  20
TORSDOF 1
ENDMDL
MODEL 6
REMARK VINA RESULT:      -6.7     11.252     13.536
REMARK  1 active torsions:
REMARK  status: ('A' for Active; 'I' for Inactive)
REMARK    1  A    between atoms: C3_4  and  C4_5 
ROOT
HETATM    1  C4  UNL     1      21.749   1.513  51.141  1.00  0.00     0.124 C 
HETATM    2  C5  UNL     1      21.645   0.755  49.887  1.00  0.00     0.087 C 
HETATM    3  C6  UNL     1      21.432   1.464  48.625  1.00  0.00     0.043 C 
HETATM    4  N1  UNL     1      20.301   1.740  48.012  1.00  0.00    -0.136 NA
HETATM    5  O1  UNL     1      19.061   2.083  48.563  1.00  0.00    -0.203 OA
HETATM    6  C7  UNL     1      18.754   2.848  49.806  1.00  0.00     0.173 A 
HETATM    7  S1  UNL     1      17.334   3.606  49.942  1.00  0.00    -0.148 SA
HETATM    8  C8  UNL     1      17.696   4.309  51.713  1.00  0.00     0.218 A 
HETATM    9  N2  UNL     1      18.969   3.765  51.864  1.00  0.00    -0.260 NA
HETATM   10  C9  UNL     1      19.530   3.067  51.009  1.00  0.00     0.165 A 
HETATM   11  N3  UNL     1      20.858   2.602  51.386  1.00  0.00    -0.349 N 
HETATM   12  C10 UNL     1      21.349   3.636  52.320  1.00  0.00     0.176 C 
HETATM   13  C11 UNL     1      22.482   4.329  51.699  1.00  0.00     0.029 C 
HETATM   14 CL2  UNL     1      22.857   5.498  53.007  1.00  0.00    -0.087 Cl
HETATM   15  C12 UNL     1      23.407   4.667  50.824  1.00  0.00     0.017 C 
HETATM   16  C13 UNL     1      23.577   4.008  49.504  1.00  0.00    -0.020 C 
HETATM   17  C14 UNL     1      23.205   3.096  48.603  1.00  0.00     0.021 C 
HETATM   18  C15 UNL     1      22.583   2.014  47.804  1.00  0.00     0.066 C 
HETATM   19  H5  UNL     1      16.368   3.725  49.084  1.00  0.00     0.100 HD
ENDROOT
BRANCH   1  20
HETATM   20  C3  UNL     1      21.481   0.515  52.264  1.00  0.00    -0.037 A 
HETATM   21  C2  UNL     1      22.531   0.160  53.185  1.00  0.00     0.028 A 
HETATM   22  C1  UNL     1      22.107  -0.708  54.075  1.00  0.00     0.015 A 
HETATM   23 CL1  UNL     1      22.837  -1.529  55.429  1.00  0.00    -0.089 Cl
HETATM   24  C17 UNL     1      20.688  -0.988  53.779  1.00  0.00     0.079 A 
HETATM   25  C16 UNL     1      20.383  -0.158  52.605  1.00  0.00    -0.012 A 
ENDBRANCH   1  20
TORSDOF 1
ENDMDL
MODEL 7
REMARK VINA RESULT:      -6.6      7.134     10.430
REMARK  1 active torsions:
REMARK  status: ('A' for Active; 'I' for Inactive)
REMARK    1  A    between atoms: C3_4  and  C4_5 
ROOT
HETATM    1  C4  UNL     1      24.317   6.431  48.796  1.00  0.00     0.124 C 
HETATM    2  C5  UNL     1      24.505   7.510  47.817  1.00  0.00     0.087 C 
HETATM    3  C6  UNL     1      23.338   8.171  47.233  1.00  0.00     0.043 C 
HETATM    4  N1  UNL     1      22.705   7.895  46.113  1.00  0.00    -0.136 NA
HETATM    5  O1  UNL     1      22.451   6.648  45.530  1.00  0.00    -0.203 OA
HETATM    6  C7  UNL     1      22.200   5.330  46.180  1.00  0.00     0.173 A 
HETATM    7  S1  UNL     1      21.383   4.190  45.378  1.00  0.00    -0.148 SA
HETATM    8  C8  UNL     1      21.480   2.885  46.809  1.00  0.00     0.218 A 
HETATM    9  N2  UNL     1      22.195   3.665  47.713  1.00  0.00    -0.260 NA
HETATM   10  C9  UNL     1      22.569   4.823  47.486  1.00  0.00     0.165 A 
HETATM   11  N3  UNL     1      23.308   5.445  48.577  1.00  0.00    -0.349 N 
HETATM   12  C10 UNL     1      22.791   4.774  49.788  1.00  0.00     0.176 C 
HETATM   13  C11 UNL     1      22.060   5.757  50.593  1.00  0.00     0.029 C 
HETATM   14 CL2  UNL     1      21.552   4.699  51.950  1.00  0.00    -0.087 Cl
HETATM   15  C12 UNL     1      21.527   6.896  50.985  1.00  0.00     0.017 C 
HETATM   16  C13 UNL     1      21.633   8.166  50.222  1.00  0.00    -0.020 C 
HETATM   17  C14 UNL     1      22.065   8.852  49.162  1.00  0.00     0.021 C 
HETATM   18  C15 UNL     1      22.662   9.353  47.901  1.00  0.00     0.066 C 
HETATM   19  H5  UNL     1      20.818   4.237  44.211  1.00  0.00     0.100 HD
ENDROOT
BRANCH   1  20
HETATM   20  C3  UNL     1      25.632   5.657  48.834  1.00  0.00    -0.037 A 
HETATM   21  C2  UNL     1      26.844   6.261  48.340  1.00  0.00     0.028 A 
HETATM   22  C1  UNL     1      27.863   5.441  48.457  1.00  0.00     0.015 A 
HETATM   23 CL1  UNL     1      29.560   5.534  48.066  1.00  0.00    -0.089 Cl
HETATM   24  C17 UNL     1      27.360   4.192  49.062  1.00  0.00     0.079 A 
HETATM   25  C16 UNL     1      25.923   4.431  49.265  1.00  0.00    -0.012 A 
ENDBRANCH   1  20
TORSDOF 1
ENDMDL
MODEL 8
REMARK VINA RESULT:      -6.5      7.469     10.921
REMARK  1 active torsions:
REMARK  status: ('A' for Active; 'I' for Inactive)
REMARK    1  A    between atoms: C3_4  and  C4_5 
ROOT
HETATM    1  C4  UNL     1      24.269   4.589  49.989  1.00  0.00     0.124 C 
HETATM    2  C5  UNL     1      24.161   5.529  51.113  1.00  0.00     0.087 C 
HETATM    3  C6  UNL     1      22.842   5.877  51.643  1.00  0.00     0.043 C 
HETATM    4  N1  UNL     1      22.064   6.889  51.326  1.00  0.00    -0.136 NA
HETATM    5  O1  UNL     1      21.861   7.486  50.076  1.00  0.00    -0.203 OA
HETATM    6  C7  UNL     1      21.880   6.872  48.717  1.00  0.00     0.173 A 
HETATM    7  S1  UNL     1      21.076   7.585  47.511  1.00  0.00    -0.148 SA
HETATM    8  C8  UNL     1      21.566   6.259  46.183  1.00  0.00     0.218 A 
HETATM    9  N2  UNL     1      22.330   5.447  47.017  1.00  0.00    -0.260 NA
HETATM   10  C9  UNL     1      22.522   5.673  48.220  1.00  0.00     0.165 A 
HETATM   11  N3  UNL     1      23.359   4.689  48.893  1.00  0.00    -0.349 N 
HETATM   12  C10 UNL     1      23.138   3.445  48.126  1.00  0.00     0.176 C 
HETATM   13  C11 UNL     1      22.445   2.481  48.986  1.00  0.00     0.029 C 
HETATM   14 CL2  UNL     1      22.303   1.115  47.832  1.00  0.00    -0.087 Cl
HETATM   15  C12 UNL     1      21.858   1.947  50.038  1.00  0.00     0.017 C 
HETATM   16  C13 UNL     1      21.684   2.651  51.334  1.00  0.00    -0.020 C 
HETATM   17  C14 UNL     1      21.847   3.731  52.101  1.00  0.00     0.021 C 
HETATM   18  C15 UNL     1      22.157   5.046  52.711  1.00  0.00     0.066 C 
HETATM   19  H5  UNL     1      20.318   8.639  47.524  1.00  0.00     0.100 HD
ENDROOT
BRANCH   1  20
HETATM   20  C3  UNL     1      25.652   4.810  49.382  1.00  0.00    -0.037 A 
HETATM   21  C2  UNL     1      26.000   6.088  48.815  1.00  0.00     0.028 A 
HETATM   22  C1  UNL     1      27.226   6.080  48.345  1.00  0.00     0.015 A 
HETATM   23 CL1  UNL     1      28.243   7.255  47.555  1.00  0.00    -0.089 Cl
HETATM   24  C17 UNL     1      27.784   4.734  48.587  1.00  0.00     0.079 A 
HETATM   25  C16 UNL     1      26.701   3.998  49.254  1.00  0.00    -0.012 A 
ENDBRANCH   1  20
TORSDOF 1
ENDMDL
MODEL 9
REMARK VINA RESULT:      -6.4     11.271     12.516
REMARK  1 active torsions:
REMARK  status: ('A' for Active; 'I' for Inactive)
REMARK    1  A    between atoms: C3_4  and  C4_5 
ROOT
HETATM    1  C4  UNL     1      22.723   3.586  50.054  1.00  0.00     0.124 C 
HETATM    2  C5  UNL     1      22.869   2.539  49.035  1.00  0.00     0.087 C 
HETATM    3  C6  UNL     1      21.988   2.535  47.866  1.00  0.00     0.043 C 
HETATM    4  N1  UNL     1      20.849   1.900  47.690  1.00  0.00    -0.136 NA
HETATM    5  O1  UNL     1      19.833   1.642  48.617  1.00  0.00    -0.203 OA
HETATM    6  C7  UNL     1      19.378   2.459  49.779  1.00  0.00     0.173 A 
HETATM    7  S1  UNL     1      17.874   2.275  50.340  1.00  0.00    -0.148 SA
HETATM    8  C8  UNL     1      18.063   3.598  51.745  1.00  0.00     0.218 A 
HETATM    9  N2  UNL     1      19.381   3.956  51.476  1.00  0.00    -0.260 NA
HETATM   10  C9  UNL     1      20.062   3.462  50.568  1.00  0.00     0.165 A 
HETATM   11  N3  UNL     1      21.418   3.986  50.476  1.00  0.00    -0.349 N 
HETATM   12  C10 UNL     1      21.311   5.355  51.023  1.00  0.00     0.176 C 
HETATM   13  C11 UNL     1      21.568   6.312  49.942  1.00  0.00     0.029 C 
HETATM   14 CL2  UNL     1      21.369   7.842  50.858  1.00  0.00    -0.087 Cl
HETATM   15  C12 UNL     1      21.846   6.800  48.751  1.00  0.00     0.017 C 
HETATM   16  C13 UNL     1      22.116   5.960  47.555  1.00  0.00    -0.020 C 
HETATM   17  C14 UNL     1      22.238   4.762  46.980  1.00  0.00     0.021 C 
HETATM   18  C15 UNL     1      22.308   3.328  46.613  1.00  0.00     0.066 C 
HETATM   19  H5  UNL     1      16.905   1.533  49.897  1.00  0.00     0.100 HD
ENDROOT
BRANCH   1  20
HETATM   20  C3  UNL     1      23.405   3.054  51.311  1.00  0.00    -0.037 A 
HETATM   21  C2  UNL     1      23.340   1.651  51.634  1.00  0.00     0.028 A 
HETATM   22  C1  UNL     1      23.984   1.391  52.748  1.00  0.00     0.015 A 
HETATM   23 CL1  UNL     1      24.288  -0.052  53.678  1.00  0.00    -0.089 Cl
HETATM   24  C17 UNL     1      24.538   2.665  53.247  1.00  0.00     0.079 A 
HETATM   25  C16 UNL     1      24.113   3.667  52.259  1.00  0.00    -0.012 A 
ENDBRANCH   1  20
TORSDOF 1
ENDMDL
