MODEL 1
REMARK VINA RESULT:      -8.8      0.000      0.000
REMARK  4 active torsions:
REMARK  status: ('A' for Active; 'I' for Inactive)
REMARK    1  A    between atoms: O2_18  and  C13_19 
REMARK    2  A    between atoms: C13_19  and  C14_20 
REMARK    3  A    between atoms: C14_20  and  C15_21 
REMARK    4  A    between atoms: C15_21  and  N3_22 
ROOT
HETATM    1  F1  UNL     1      21.005   3.709  51.875  1.00  0.00    -0.341 F 
HETATM    2  C1  UNL     1      22.081   4.341  52.055  1.00  0.00     0.073 A 
HETATM    3  C2  UNL     1      20.766   3.867  51.910  1.00  0.00     0.068 A 
HETATM    4  C3  UNL     1      20.091   2.641  51.573  1.00  0.00     0.197 A 
HETATM    5 CL1  UNL     1      18.330   2.863  51.622  1.00  0.00    -0.078 Cl
HETATM    6  C4  UNL     1      20.155   1.341  51.215  1.00  0.00     0.213 C 
HETATM    7  O1  UNL     1      21.212   0.326  50.932  1.00  0.00    -0.362 OA
HETATM    8  C5  UNL     1      22.442   0.819  51.431  1.00  0.00     0.115 A 
HETATM    9  C6  UNL     1      22.380   1.749  50.329  1.00  0.00     0.085 A 
HETATM   10  C7  UNL     1      22.976   2.842  49.626  1.00  0.00     0.125 A 
HETATM   11  N1  UNL     1      22.537   3.574  48.660  1.00  0.00    -0.266 NA
HETATM   12  C8  UNL     1      23.014   4.771  48.301  1.00  0.00     0.225 A 
HETATM   13  N2  UNL     1      24.018   4.922  49.248  1.00  0.00    -0.247 NA
HETATM   14  C9  UNL     1      24.060   3.821  50.052  1.00  0.00     0.166 A 
HETATM   15  C10 UNL     1      23.772   2.602  50.585  1.00  0.00     0.062 A 
HETATM   16  C11 UNL     1      24.541   2.228  51.668  1.00  0.00    -0.021 A 
HETATM   17  C12 UNL     1      23.534   1.471  51.645  1.00  0.00     0.037 A 
HETATM   18  O2  UNL     1      23.327   0.500  52.532  1.00  0.00     0.000 OA
HETATM   19  N4  UNL     1      24.471   4.432  51.337  1.00  0.00    -0.386 N 
HETATM   20  C20 UNL     1      23.341   5.021  52.119  1.00  0.00     0.183 C 
HETATM   21  H20 UNL     1      25.441   4.487  51.710  1.00  0.00     0.156 HD
ENDROOT
BRANCH  18  22
HETATM   22  C13 UNL     1      23.930  -0.007  53.589  1.00  0.00     0.002 C 
BRANCH  22  23
HETATM   23  C14 UNL     1      25.215  -0.704  53.655  1.00  0.00     0.030 C 
BRANCH  23  24
HETATM   24  C15 UNL     1      26.280  -0.162  54.509  1.00  0.00     0.272 C 
BRANCH  24  25
HETATM   25  N3  UNL     1      27.579  -0.042  53.876  1.00  0.00     0.092 N 
HETATM   26  C16 UNL     1      28.634   0.143  54.838  1.00  0.00     0.298 C 
HETATM   27  C17 UNL     1      29.439   1.366  54.557  1.00  0.00     0.198 C 
HETATM   28  O3  UNL     1      28.720   2.500  54.284  1.00  0.00    -0.388 OA
HETATM   29  C18 UNL     1      27.665   2.291  53.421  1.00  0.00     0.198 C 
HETATM   30  C19 UNL     1      27.694   0.889  52.825  1.00  0.00     0.298 C 
ENDBRANCH  24  25
ENDBRANCH  23  24
ENDBRANCH  22  23
ENDBRANCH  18  22
TORSDOF 4
ENDMDL
MODEL 2
REMARK VINA RESULT:      -8.7      2.239      3.453
REMARK  4 active torsions:
REMARK  status: ('A' for Active; 'I' for Inactive)
REMARK    1  A    between atoms: O2_18  and  C13_19 
REMARK    2  A    between atoms: C13_19  and  C14_20 
REMARK    3  A    between atoms: C14_20  and  C15_21 
REMARK    4  A    between atoms: C15_21  and  N3_22 
ROOT
HETATM    1  F1  UNL     1      23.231   2.674  49.583  1.00  0.00    -0.341 F 
HETATM    2  C1  UNL     1      22.276   1.866  49.432  1.00  0.00     0.073 A 
HETATM    3  C2  UNL     1      23.325   2.795  49.338  1.00  0.00     0.068 A 
HETATM    4  C3  UNL     1      24.246   3.475  50.212  1.00  0.00     0.197 A 
HETATM    5 CL1  UNL     1      25.327   4.531  49.281  1.00  0.00    -0.078 Cl
HETATM    6  C4  UNL     1      24.702   3.713  51.460  1.00  0.00     0.213 C 
HETATM    7  O1  UNL     1      24.386   3.275  52.851  1.00  0.00    -0.362 OA
HETATM    8  C5  UNL     1      23.568   2.121  52.776  1.00  0.00     0.115 A 
HETATM    9  C6  UNL     1      22.538   3.025  52.325  1.00  0.00     0.085 A 
HETATM   10  C7  UNL     1      21.193   3.208  51.875  1.00  0.00     0.125 A 
HETATM   11  N1  UNL     1      20.590   4.241  51.392  1.00  0.00    -0.266 NA
HETATM   12  C8  UNL     1      19.451   4.228  50.691  1.00  0.00     0.225 A 
HETATM   13  N2  UNL     1      19.201   2.864  50.665  1.00  0.00    -0.247 NA
HETATM   14  C9  UNL     1      20.178   2.205  51.352  1.00  0.00     0.166 A 
HETATM   15  C10 UNL     1      21.295   1.962  52.091  1.00  0.00     0.062 A 
HETATM   16  C11 UNL     1      21.551   0.635  52.369  1.00  0.00    -0.021 A 
HETATM   17  C12 UNL     1      22.609   1.276  52.603  1.00  0.00     0.037 A 
HETATM   18  O2  UNL     1      23.727   0.707  53.049  1.00  0.00     0.000 OA
HETATM   19  N4  UNL     1      20.257   0.944  50.578  1.00  0.00    -0.386 N 
HETATM   20  C20 UNL     1      21.111   1.034  49.353  1.00  0.00     0.183 C 
HETATM   21  H20 UNL     1      19.779   0.049  50.809  1.00  0.00     0.156 HD
ENDROOT
BRANCH  18  22
HETATM   22  C13 UNL     1      24.150  -0.496  53.379  1.00  0.00     0.002 C 
BRANCH  22  23
HETATM   23  C14 UNL     1      25.154  -0.865  54.378  1.00  0.00     0.030 C 
BRANCH  23  24
HETATM   24  C15 UNL     1      26.159   0.127  54.785  1.00  0.00     0.272 C 
BRANCH  24  25
HETATM   25  N3  UNL     1      27.405   0.082  54.046  1.00  0.00     0.092 N 
HETATM   26  C16 UNL     1      28.549   0.247  54.904  1.00  0.00     0.298 C 
HETATM   27  C17 UNL     1      29.424   1.370  54.460  1.00  0.00     0.198 C 
HETATM   28  O3  UNL     1      28.781   2.538  54.150  1.00  0.00    -0.388 OA
HETATM   29  C18 UNL     1      27.643   2.357  53.390  1.00  0.00     0.198 C 
HETATM   30  C19 UNL     1      27.507   0.916  52.914  1.00  0.00     0.298 C 
ENDBRANCH  24  25
ENDBRANCH  23  24
ENDBRANCH  22  23
ENDBRANCH  18  22
TORSDOF 4
ENDMDL
MODEL 3
REMARK VINA RESULT:      -8.1      2.492      3.659
REMARK  4 active torsions:
REMARK  status: ('A' for Active; 'I' for Inactive)
REMARK    1  A    between atoms: O2_18  and  C13_19 
REMARK    2  A    between atoms: C13_19  and  C14_20 
REMARK    3  A    between atoms: C14_20  and  C15_21 
REMARK    4  A    between atoms: C15_21  and  N3_22 
ROOT
HETATM    1  F1  UNL     1      23.519   3.279  49.364  1.00  0.00    -0.341 F 
HETATM    2  C1  UNL     1      22.302   3.066  49.115  1.00  0.00     0.073 A 
HETATM    3  C2  UNL     1      23.682   3.331  49.131  1.00  0.00     0.068 A 
HETATM    4  C3  UNL     1      24.744   3.465  50.093  1.00  0.00     0.197 A 
HETATM    5 CL1  UNL     1      26.285   3.806  49.280  1.00  0.00    -0.078 Cl
HETATM    6  C4  UNL     1      25.153   3.461  51.380  1.00  0.00     0.213 C 
HETATM    7  O1  UNL     1      24.544   3.270  52.729  1.00  0.00    -0.362 OA
HETATM    8  C5  UNL     1      23.263   2.692  52.558  1.00  0.00     0.115 A 
HETATM    9  C6  UNL     1      22.877   3.985  52.049  1.00  0.00     0.085 A 
HETATM   10  C7  UNL     1      21.854   4.819  51.497  1.00  0.00     0.125 A 
HETATM   11  N1  UNL     1      21.902   6.005  50.994  1.00  0.00    -0.266 NA
HETATM   12  C8  UNL     1      20.977   6.561  50.204  1.00  0.00     0.225 A 
HETATM   13  N2  UNL     1      20.071   5.512  50.122  1.00  0.00    -0.247 NA
HETATM   14  C9  UNL     1      20.517   4.461  50.867  1.00  0.00     0.166 A 
HETATM   15  C10 UNL     1      21.291   3.698  51.688  1.00  0.00     0.062 A 
HETATM   16  C11 UNL     1      20.812   2.430  51.950  1.00  0.00    -0.021 A 
HETATM   17  C12 UNL     1      22.025   2.449  52.286  1.00  0.00     0.037 A 
HETATM   18  O2  UNL     1      22.658   1.399  52.806  1.00  0.00     0.000 OA
HETATM   19  N4  UNL     1      20.008   3.321  50.070  1.00  0.00    -0.386 N 
HETATM   20  C20 UNL     1      20.888   2.942  48.921  1.00  0.00     0.183 C 
HETATM   21  H20 UNL     1      19.124   2.798  50.238  1.00  0.00     0.156 HD
ENDROOT
BRANCH  18  22
HETATM   22  C13 UNL     1      22.382   0.154  53.138  1.00  0.00     0.002 C 
BRANCH  22  23
HETATM   23  C14 UNL     1      23.310  -0.919  53.498  1.00  0.00     0.030 C 
BRANCH  23  24
HETATM   24  C15 UNL     1      24.570  -0.580  54.174  1.00  0.00     0.272 C 
BRANCH  24  25
HETATM   25  N3  UNL     1      25.638  -0.133  53.301  1.00  0.00     0.092 N 
HETATM   26  C16 UNL     1      26.391  -1.235  52.762  1.00  0.00     0.298 C 
HETATM   27  C17 UNL     1      27.850  -1.107  53.045  1.00  0.00     0.198 C 
HETATM   28  O3  UNL     1      28.178  -0.778  54.332  1.00  0.00    -0.388 OA
HETATM   29  C18 UNL     1      27.397   0.228  54.863  1.00  0.00     0.198 C 
HETATM   30  C19 UNL     1      26.501   0.861  53.806  1.00  0.00     0.298 C 
ENDBRANCH  24  25
ENDBRANCH  23  24
ENDBRANCH  22  23
ENDBRANCH  18  22
TORSDOF 4
ENDMDL
MODEL 4
REMARK VINA RESULT:      -8.0      1.758      2.261
REMARK  4 active torsions:
REMARK  status: ('A' for Active; 'I' for Inactive)
REMARK    1  A    between atoms: O2_18  and  C13_19 
REMARK    2  A    between atoms: C13_19  and  C14_20 
REMARK    3  A    between atoms: C14_20  and  C15_21 
REMARK    4  A    between atoms: C15_21  and  N3_22 
ROOT
HETATM    1  F1  UNL     1      21.722   5.569  50.796  1.00  0.00    -0.341 F 
HETATM    2  C1  UNL     1      22.824   6.068  51.148  1.00  0.00     0.073 A 
HETATM    3  C2  UNL     1      21.491   5.731  50.859  1.00  0.00     0.068 A 
HETATM    4  C3  UNL     1      20.760   4.661  50.231  1.00  0.00     0.197 A 
HETATM    5 CL1  UNL     1      19.015   4.986  50.275  1.00  0.00    -0.078 Cl
HETATM    6  C4  UNL     1      20.762   3.473  49.589  1.00  0.00     0.213 C 
HETATM    7  O1  UNL     1      21.768   2.478  49.117  1.00  0.00    -0.362 OA
HETATM    8  C5  UNL     1      23.002   2.761  49.752  1.00  0.00     0.115 A 
HETATM    9  C6  UNL     1      23.046   3.916  48.889  1.00  0.00     0.085 A 
HETATM   10  C7  UNL     1      23.739   5.095  48.471  1.00  0.00     0.125 A 
HETATM   11  N1  UNL     1      23.389   6.054  47.683  1.00  0.00    -0.266 NA
HETATM   12  C8  UNL     1      23.953   7.265  47.620  1.00  0.00     0.225 A 
HETATM   13  N2  UNL     1      24.919   7.130  48.607  1.00  0.00    -0.247 NA
HETATM   14  C9  UNL     1      24.858   5.876  49.141  1.00  0.00     0.166 A 
HETATM   15  C10 UNL     1      24.473   4.591  49.375  1.00  0.00     0.062 A 
HETATM   16  C11 UNL     1      25.168   3.932  50.368  1.00  0.00    -0.021 A 
HETATM   17  C12 UNL     1      24.120   3.271  50.143  1.00  0.00     0.037 A 
HETATM   18  O2  UNL     1      23.815   2.142  50.779  1.00  0.00     0.000 OA
HETATM   19  N4  UNL     1      25.246   6.154  50.543  1.00  0.00    -0.386 N 
HETATM   20  C20 UNL     1      24.118   6.629  51.404  1.00  0.00     0.183 C 
HETATM   21  H20 UNL     1      26.199   6.057  50.949  1.00  0.00     0.156 HD
ENDROOT
BRANCH  18  22
HETATM   22  C13 UNL     1      24.337   1.371  51.711  1.00  0.00     0.002 C 
BRANCH  22  23
HETATM   23  C14 UNL     1      24.423   1.616  53.152  1.00  0.00     0.030 C 
BRANCH  23  24
HETATM   24  C15 UNL     1      25.724   1.956  53.744  1.00  0.00     0.272 C 
BRANCH  24  25
HETATM   25  N3  UNL     1      26.798   1.028  53.449  1.00  0.00     0.092 N 
HETATM   26  C16 UNL     1      27.197   0.276  54.610  1.00  0.00     0.298 C 
HETATM   27  C17 UNL     1      28.657   0.404  54.885  1.00  0.00     0.198 C 
HETATM   28  O3  UNL     1      29.161   1.676  54.838  1.00  0.00    -0.388 OA
HETATM   29  C18 UNL     1      28.710   2.410  53.760  1.00  0.00     0.198 C 
HETATM   30  C19 UNL     1      27.925   1.547  52.780  1.00  0.00     0.298 C 
ENDBRANCH  24  25
ENDBRANCH  23  24
ENDBRANCH  22  23
ENDBRANCH  18  22
TORSDOF 4
ENDMDL
MODEL 5
REMARK VINA RESULT:      -7.9      2.524      3.865
REMARK  4 active torsions:
REMARK  status: ('A' for Active; 'I' for Inactive)
REMARK    1  A    between atoms: O2_18  and  C13_19 
REMARK    2  A    between atoms: C13_19  and  C14_20 
REMARK    3  A    between atoms: C14_20  and  C15_21 
REMARK    4  A    between atoms: C15_21  and  N3_22 
ROOT
HETATM    1  F1  UNL     1      21.901   4.453  49.543  1.00  0.00    -0.341 F 
HETATM    2  C1  UNL     1      21.687   3.253  49.222  1.00  0.00     0.073 A 
HETATM    3  C2  UNL     1      21.785   4.647  49.364  1.00  0.00     0.068 A 
HETATM    4  C3  UNL     1      22.364   5.602  50.273  1.00  0.00     0.197 A 
HETATM    5 CL1  UNL     1      22.046   7.260  49.725  1.00  0.00    -0.078 Cl
HETATM    6  C4  UNL     1      23.064   5.856  51.399  1.00  0.00     0.213 C 
HETATM    7  O1  UNL     1      23.718   5.076  52.490  1.00  0.00    -0.362 OA
HETATM    8  C5  UNL     1      23.839   3.732  52.061  1.00  0.00     0.115 A 
HETATM    9  C6  UNL     1      22.408   3.672  52.237  1.00  0.00     0.085 A 
HETATM   10  C7  UNL     1      21.204   2.905  52.153  1.00  0.00     0.125 A 
HETATM   11  N1  UNL     1      19.967   3.245  52.282  1.00  0.00    -0.266 NA
HETATM   12  C8  UNL     1      18.911   2.543  51.856  1.00  0.00     0.225 A 
HETATM   13  N2  UNL     1      19.559   1.461  51.280  1.00  0.00    -0.247 NA
HETATM   14  C9  UNL     1      20.908   1.601  51.428  1.00  0.00     0.166 A 
HETATM   15  C10 UNL     1      22.121   2.110  51.781  1.00  0.00     0.062 A 
HETATM   16  C11 UNL     1      23.216   1.361  51.401  1.00  0.00    -0.021 A 
HETATM   17  C12 UNL     1      23.635   2.509  51.705  1.00  0.00     0.037 A 
HETATM   18  O2  UNL     1      24.920   2.856  51.656  1.00  0.00     0.000 OA
HETATM   19  N4  UNL     1      21.392   0.965  50.180  1.00  0.00    -0.386 N 
HETATM   20  C20 UNL     1      21.378   1.873  48.991  1.00  0.00     0.183 C 
HETATM   21  H20 UNL     1      21.714  -0.019  50.075  1.00  0.00     0.156 HD
ENDROOT
BRANCH  18  22
HETATM   22  C13 UNL     1      26.074   2.301  51.348  1.00  0.00     0.002 C 
BRANCH  22  23
HETATM   23  C14 UNL     1      27.283   2.202  52.166  1.00  0.00     0.030 C 
BRANCH  23  24
HETATM   24  C15 UNL     1      27.153   2.066  53.624  1.00  0.00     0.272 C 
BRANCH  24  25
HETATM   25  N3  UNL     1      27.437   0.745  54.149  1.00  0.00     0.092 N 
HETATM   26  C16 UNL     1      27.987  -0.128  53.145  1.00  0.00     0.298 C 
HETATM   27  C17 UNL     1      27.201  -1.388  53.009  1.00  0.00     0.198 C 
HETATM   28  O3  UNL     1      25.842  -1.236  52.939  1.00  0.00    -0.388 OA
HETATM   29  C18 UNL     1      25.339  -0.337  53.857  1.00  0.00     0.198 C 
HETATM   30  C19 UNL     1      26.401   0.102  54.856  1.00  0.00     0.298 C 
ENDBRANCH  24  25
ENDBRANCH  23  24
ENDBRANCH  22  23
ENDBRANCH  18  22
TORSDOF 4
ENDMDL
MODEL 6
REMARK VINA RESULT:      -7.8      2.591      3.867
REMARK  4 active torsions:
REMARK  status: ('A' for Active; 'I' for Inactive)
REMARK    1  A    between atoms: O2_18  and  C13_19 
REMARK    2  A    between atoms: C13_19  and  C14_20 
REMARK    3  A    between atoms: C14_20  and  C15_21 
REMARK    4  A    between atoms: C15_21  and  N3_22 
ROOT
HETATM    1  F1  UNL     1      22.061   2.615  48.742  1.00  0.00    -0.341 F 
HETATM    2  C1  UNL     1      21.800   1.617  49.466  1.00  0.00     0.073 A 
HETATM    3  C2  UNL     1      21.924   2.617  48.487  1.00  0.00     0.068 A 
HETATM    4  C3  UNL     1      22.621   3.863  48.298  1.00  0.00     0.197 A 
HETATM    5 CL1  UNL     1      22.245   4.555  46.707  1.00  0.00    -0.078 Cl
HETATM    6  C4  UNL     1      23.460   4.808  48.774  1.00  0.00     0.213 C 
HETATM    7  O1  UNL     1      24.243   5.060  50.018  1.00  0.00    -0.362 OA
HETATM    8  C5  UNL     1      24.299   3.854  50.758  1.00  0.00     0.115 A 
HETATM    9  C6  UNL     1      22.902   4.093  51.028  1.00  0.00     0.085 A 
HETATM   10  C7  UNL     1      21.693   3.655  51.653  1.00  0.00     0.125 A 
HETATM   11  N1  UNL     1      20.484   4.098  51.572  1.00  0.00    -0.266 NA
HETATM   12  C8  UNL     1      19.378   3.429  51.916  1.00  0.00     0.225 A 
HETATM   13  N2  UNL     1      19.941   2.227  52.320  1.00  0.00    -0.247 NA
HETATM   14  C9  UNL     1      21.299   2.294  52.203  1.00  0.00     0.166 A 
HETATM   15  C10 UNL     1      22.549   2.767  51.948  1.00  0.00     0.062 A 
HETATM   16  C11 UNL     1      23.582   1.884  52.190  1.00  0.00    -0.021 A 
HETATM   17  C12 UNL     1      24.044   2.814  51.478  1.00  0.00     0.037 A 
HETATM   18  O2  UNL     1      25.314   2.873  51.081  1.00  0.00     0.000 OA
HETATM   19  N4  UNL     1      21.615   0.891  51.849  1.00  0.00    -0.386 N 
HETATM   20  C20 UNL     1      21.456   0.580  50.394  1.00  0.00     0.183 C 
HETATM   21  H20 UNL     1      21.915   0.142  52.507  1.00  0.00     0.156 HD
ENDROOT
BRANCH  18  22
HETATM   22  C13 UNL     1      26.416   2.163  51.217  1.00  0.00     0.002 C 
BRANCH  22  23
HETATM   23  C14 UNL     1      27.416   2.232  52.284  1.00  0.00     0.030 C 
BRANCH  23  24
HETATM   24  C15 UNL     1      26.986   2.078  53.680  1.00  0.00     0.272 C 
BRANCH  24  25
HETATM   25  N3  UNL     1      27.527   0.923  54.370  1.00  0.00     0.092 N 
HETATM   26  C16 UNL     1      28.508   0.231  53.576  1.00  0.00     0.298 C 
HETATM   27  C17 UNL     1      28.174  -1.212  53.406  1.00  0.00     0.198 C 
HETATM   28  O3  UNL     1      26.877  -1.485  53.061  1.00  0.00    -0.388 OA
HETATM   29  C18 UNL     1      25.949  -0.757  53.778  1.00  0.00     0.198 C 
HETATM   30  C19 UNL     1      26.600   0.015  54.919  1.00  0.00     0.298 C 
ENDBRANCH  24  25
ENDBRANCH  23  24
ENDBRANCH  22  23
ENDBRANCH  18  22
TORSDOF 4
ENDMDL
MODEL 7
REMARK VINA RESULT:      -7.5      2.728      3.998
REMARK  4 active torsions:
REMARK  status: ('A' for Active; 'I' for Inactive)
REMARK    1  A    between atoms: O2_18  and  C13_19 
REMARK    2  A    between atoms: C13_19  and  C14_20 
REMARK    3  A    between atoms: C14_20  and  C15_21 
REMARK    4  A    between atoms: C15_21  and  N3_22 
ROOT
HETATM    1  F1  UNL     1      21.557   2.394  48.606  1.00  0.00    -0.341 F 
HETATM    2  C1  UNL     1      21.516   1.677  49.641  1.00  0.00     0.073 A 
HETATM    3  C2  UNL     1      21.424   2.280  48.376  1.00  0.00     0.068 A 
HETATM    4  C3  UNL     1      21.835   3.499  47.729  1.00  0.00     0.197 A 
HETATM    5 CL1  UNL     1      21.324   3.508  46.028  1.00  0.00    -0.078 Cl
HETATM    6  C4  UNL     1      22.449   4.700  47.796  1.00  0.00     0.213 C 
HETATM    7  O1  UNL     1      23.155   5.521  48.823  1.00  0.00    -0.362 OA
HETATM    8  C5  UNL     1      23.468   4.682  49.920  1.00  0.00     0.115 A 
HETATM    9  C6  UNL     1      22.051   4.709  50.193  1.00  0.00     0.085 A 
HETATM   10  C7  UNL     1      20.963   4.276  51.014  1.00  0.00     0.125 A 
HETATM   11  N1  UNL     1      19.688   4.408  50.875  1.00  0.00    -0.266 NA
HETATM   12  C8  UNL     1      18.751   3.688  51.502  1.00  0.00     0.225 A 
HETATM   13  N2  UNL     1      19.559   2.841  52.247  1.00  0.00    -0.247 NA
HETATM   14  C9  UNL     1      20.871   3.138  52.018  1.00  0.00     0.166 A 
HETATM   15  C10 UNL     1      21.990   3.739  51.529  1.00  0.00     0.062 A 
HETATM   16  C11 UNL     1      23.189   3.224  51.980  1.00  0.00    -0.021 A 
HETATM   17  C12 UNL     1      23.441   3.925  50.965  1.00  0.00     0.037 A 
HETATM   18  O2  UNL     1      24.670   4.101  50.482  1.00  0.00     0.000 OA
HETATM   19  N4  UNL     1      21.484   1.795  52.136  1.00  0.00    -0.386 N 
HETATM   20  C20 UNL     1      21.400   0.977  50.886  1.00  0.00     0.183 C 
HETATM   21  H20 UNL     1      21.936   1.397  52.984  1.00  0.00     0.156 HD
ENDROOT
BRANCH  18  22
HETATM   22  C13 UNL     1      25.899   3.722  50.770  1.00  0.00     0.002 C 
BRANCH  22  23
HETATM   23  C14 UNL     1      26.472   2.377  50.715  1.00  0.00     0.030 C 
BRANCH  23  24
HETATM   24  C15 UNL     1      27.086   1.810  51.924  1.00  0.00     0.272 C 
BRANCH  24  25
HETATM   25  N3  UNL     1      26.327   0.753  52.564  1.00  0.00     0.092 N 
HETATM   26  C16 UNL     1      25.935   1.104  53.904  1.00  0.00     0.298 C 
HETATM   27  C17 UNL     1      26.384   0.090  54.902  1.00  0.00     0.198 C 
HETATM   28  O3  UNL     1      27.685  -0.322  54.785  1.00  0.00    -0.388 OA
HETATM   29  C18 UNL     1      28.068  -0.582  53.485  1.00  0.00     0.198 C 
HETATM   30  C19 UNL     1      26.882  -0.542  52.530  1.00  0.00     0.298 C 
ENDBRANCH  24  25
ENDBRANCH  23  24
ENDBRANCH  22  23
ENDBRANCH  18  22
TORSDOF 4
ENDMDL
MODEL 8
REMARK VINA RESULT:      -7.4      3.393      5.351
REMARK  4 active torsions:
REMARK  status: ('A' for Active; 'I' for Inactive)
REMARK    1  A    between atoms: O2_18  and  C13_19 
REMARK    2  A    between atoms: C13_19  and  C14_20 
REMARK    3  A    between atoms: C14_20  and  C15_21 
REMARK    4  A    between atoms: C15_21  and  N3_22 
ROOT
HETATM    1  F1  UNL     1      24.403   3.997  49.511  1.00  0.00    -0.341 F 
HETATM    2  C1  UNL     1      23.617   4.696  48.817  1.00  0.00     0.073 A 
HETATM    3  C2  UNL     1      24.619   3.875  49.362  1.00  0.00     0.068 A 
HETATM    4  C3  UNL     1      25.005   3.351  50.646  1.00  0.00     0.197 A 
HETATM    5 CL1  UNL     1      26.450   2.331  50.497  1.00  0.00    -0.078 Cl
HETATM    6  C4  UNL     1      24.789   3.260  51.976  1.00  0.00     0.213 C 
HETATM    7  O1  UNL     1      23.815   3.793  52.973  1.00  0.00    -0.362 OA
HETATM    8  C5  UNL     1      22.699   4.306  52.270  1.00  0.00     0.115 A 
HETATM    9  C6  UNL     1      23.588   5.370  51.872  1.00  0.00     0.085 A 
HETATM   10  C7  UNL     1      23.783   6.580  51.135  1.00  0.00     0.125 A 
HETATM   11  N1  UNL     1      24.849   7.258  50.877  1.00  0.00    -0.266 NA
HETATM   12  C8  UNL     1      24.985   8.173  49.911  1.00  0.00     0.225 A 
HETATM   13  N2  UNL     1      23.718   8.114  49.348  1.00  0.00    -0.247 NA
HETATM   14  C9  UNL     1      22.956   7.207  50.024  1.00  0.00     0.166 A 
HETATM   15  C10 UNL     1      22.570   6.269  50.932  1.00  0.00     0.062 A 
HETATM   16  C11 UNL     1      21.275   5.810  50.802  1.00  0.00    -0.021 A 
HETATM   17  C12 UNL     1      21.887   4.997  51.543  1.00  0.00     0.037 A 
HETATM   18  O2  UNL     1      21.316   3.919  52.078  1.00  0.00     0.000 OA
HETATM   19  N4  UNL     1      22.109   6.684  48.927  1.00  0.00    -0.386 N 
HETATM   20  C20 UNL     1      22.759   5.607  48.118  1.00  0.00     0.183 C 
HETATM   21  H20 UNL     1      21.148   7.002  48.685  1.00  0.00     0.156 HD
ENDROOT
BRANCH  18  22
HETATM   22  C13 UNL     1      20.132   3.340  52.087  1.00  0.00     0.002 C 
BRANCH  22  23
HETATM   23  C14 UNL     1      19.738   2.068  51.480  1.00  0.00     0.030 C 
BRANCH  23  24
HETATM   24  C15 UNL     1      19.992   0.817  52.208  1.00  0.00     0.272 C 
BRANCH  24  25
HETATM   25  N3  UNL     1      21.098   0.862  53.145  1.00  0.00     0.092 N 
HETATM   26  C16 UNL     1      22.329   0.412  52.550  1.00  0.00     0.298 C 
HETATM   27  C17 UNL     1      22.954  -0.697  53.327  1.00  0.00     0.198 C 
HETATM   28  O3  UNL     1      22.109  -1.707  53.704  1.00  0.00    -0.388 OA
HETATM   29  C18 UNL     1      20.902  -1.261  54.202  1.00  0.00     0.198 C 
HETATM   30  C19 UNL     1      20.897   0.249  54.399  1.00  0.00     0.298 C 
ENDBRANCH  24  25
ENDBRANCH  23  24
ENDBRANCH  22  23
ENDBRANCH  18  22
TORSDOF 4
ENDMDL
MODEL 9
REMARK VINA RESULT:      -7.3      4.397      5.982
REMARK  4 active torsions:
REMARK  status: ('A' for Active; 'I' for Inactive)
REMARK    1  A    between atoms: O2_18  and  C13_19 
REMARK    2  A    between atoms: C13_19  and  C14_20 
REMARK    3  A    between atoms: C14_20  and  C15_21 
REMARK    4  A    between atoms: C15_21  and  N3_22 
ROOT
HETATM    1  F1  UNL     1      24.059   3.588  52.399  1.00  0.00    -0.341 F 
HETATM    2  C1  UNL     1      23.117   4.354  52.060  1.00  0.00     0.073 A 
HETATM    3  C2  UNL     1      24.042   3.490  52.670  1.00  0.00     0.068 A 
HETATM    4  C3  UNL     1      25.258   2.798  52.334  1.00  0.00     0.197 A 
HETATM    5 CL1  UNL     1      25.855   1.869  53.724  1.00  0.00    -0.078 Cl
HETATM    6  C4  UNL     1      26.210   2.497  51.424  1.00  0.00     0.213 C 
HETATM    7  O1  UNL     1      26.512   2.818  49.999  1.00  0.00    -0.362 OA
HETATM    8  C5  UNL     1      25.722   3.930  49.619  1.00  0.00     0.115 A 
HETATM    9  C6  UNL     1      24.613   3.007  49.665  1.00  0.00     0.085 A 
HETATM   10  C7  UNL     1      23.209   2.786  49.514  1.00  0.00     0.125 A 
HETATM   11  N1  UNL     1      22.474   1.761  49.782  1.00  0.00    -0.266 NA
HETATM   12  C8  UNL     1      21.144   1.763  49.927  1.00  0.00     0.225 A 
HETATM   13  N2  UNL     1      20.884   3.111  49.726  1.00  0.00    -0.247 NA
HETATM   14  C9  UNL     1      22.051   3.770  49.467  1.00  0.00     0.166 A 
HETATM   15  C10 UNL     1      23.372   4.018  49.255  1.00  0.00     0.062 A 
HETATM   16  C11 UNL     1      23.699   5.334  48.999  1.00  0.00    -0.021 A 
HETATM   17  C12 UNL     1      24.767   4.734  49.293  1.00  0.00     0.037 A 
HETATM   18  O2  UNL     1      25.959   5.327  49.318  1.00  0.00     0.000 OA
HETATM   19  N4  UNL     1      21.769   5.085  50.088  1.00  0.00    -0.386 N 
HETATM   20  C20 UNL     1      22.017   5.127  51.563  1.00  0.00     0.183 C 
HETATM   21  H20 UNL     1      21.420   5.936  49.599  1.00  0.00     0.156 HD
ENDROOT
BRANCH  18  22
HETATM   22  C13 UNL     1      26.461   6.524  49.096  1.00  0.00     0.002 C 
BRANCH  22  23
HETATM   23  C14 UNL     1      27.403   6.937  48.055  1.00  0.00     0.030 C 
BRANCH  23  24
HETATM   24  C15 UNL     1      28.601   7.700  48.432  1.00  0.00     0.272 C 
BRANCH  24  25
HETATM   25  N3  UNL     1      29.848   7.204  47.883  1.00  0.00     0.092 N 
HETATM   26  C16 UNL     1      30.187   5.904  48.401  1.00  0.00     0.298 C 
HETATM   27  C17 UNL     1      31.547   5.884  49.014  1.00  0.00     0.198 C 
HETATM   28  O3  UNL     1      31.831   6.920  49.863  1.00  0.00    -0.388 OA
HETATM   29  C18 UNL     1      31.430   8.151  49.387  1.00  0.00     0.198 C 
HETATM   30  C19 UNL     1      30.959   8.069  47.940  1.00  0.00     0.298 C 
ENDBRANCH  24  25
ENDBRANCH  23  24
ENDBRANCH  22  23
ENDBRANCH  18  22
TORSDOF 4
ENDMDL
