MODEL 1
REMARK VINA RESULT:      -8.2      0.000      0.000
REMARK  9 active torsions:
REMARK  status: ('A' for Active; 'I' for Inactive)
REMARK    1  A    between atoms: C1_2  and  O2_3 
REMARK    2  A    between atoms: O2_3  and  C2_4 
REMARK    3  A    between atoms: C2_4  and  O3_5 
REMARK    4  A    between atoms: C2_4  and  C3_6 
REMARK    5  A    between atoms: C3_6  and  O4_7 
REMARK    6  A    between atoms: O4_7  and  C4_8 
REMARK    7  A    between atoms: C10_15  and  C11_16 
REMARK    8  A    between atoms: C11_16  and  C12_17 
REMARK    9  A    between atoms: C16_21  and  S1_22 
ROOT
HETATM    1  C4  UNL     1      26.080   0.131  54.377  1.00  0.00     0.071 A 
HETATM    2  C5  UNL     1      24.886  -0.538  54.302  1.00  0.00     0.038 A 
HETATM    3  C6  UNL     1      23.837  -0.283  53.451  1.00  0.00     0.021 A 
HETATM    4  C7  UNL     1      24.030   0.767  52.583  1.00  0.00     0.048 A 
HETATM    5  C8  UNL     1      22.959   1.013  51.729  1.00  0.00     0.187 A 
HETATM    6  O5  UNL     1      21.916   0.334  51.753  1.00  0.00    -0.287 OA
HETATM    7  C9  UNL     1      23.065   2.047  50.827  1.00  0.00     0.088 A 
HETATM    8  C10 UNL     1      24.247   2.758  50.855  1.00  0.00     0.059 A 
HETATM    9  O6  UNL     1      25.218   2.480  51.681  1.00  0.00    -0.314 OA
HETATM   10  C17 UNL     1      25.184   1.519  52.557  1.00  0.00     0.092 A 
HETATM   11  C18 UNL     1      26.200   1.192  53.458  1.00  0.00     0.075 A 
ENDROOT
BRANCH   1  12
HETATM   12  O4  UNL     1      27.205   0.082  55.085  1.00  0.00    -0.346 OA
BRANCH  12  13
HETATM   13  C3  UNL     1      28.542  -0.022  54.921  1.00  0.00     0.236 C 
BRANCH  13  14
HETATM   14  C2  UNL     1      29.114   0.116  53.531  1.00  0.00     0.289 C 
BRANCH  14  15
HETATM   15  O2  UNL     1      29.936  -1.037  53.343  1.00  0.00    -0.295 OA
BRANCH  15  16
HETATM   16  C1  UNL     1      29.379  -2.286  53.381  1.00  0.00     0.400 C 
HETATM   17  O1  UNL     1      28.386  -2.985  52.998  1.00  0.00    -0.276 OA
ENDBRANCH  15  16
ENDBRANCH  14  15
BRANCH  14  18
HETATM   18  O3  UNL     1      29.820   1.277  53.412  1.00  0.00    -0.369 OA
HETATM   19  H3  UNL     1      29.341   2.022  52.974  1.00  0.00     0.212 HD
ENDBRANCH  14  18
ENDBRANCH  13  14
ENDBRANCH  12  13
ENDBRANCH   1  12
BRANCH   8  20
HETATM   20  C11 UNL     1      24.395   3.896  49.878  1.00  0.00     0.087 C 
BRANCH  20  21
HETATM   21  C12 UNL     1      25.772   3.918  49.457  1.00  0.00     0.032 A 
HETATM   22  C13 UNL     1      26.105   5.413  49.073  1.00  0.00     0.071 A 
HETATM   23  C14 UNL     1      27.427   6.336  48.497  1.00  0.00     0.076 A 
HETATM   24  S1  UNL     1      26.976   4.614  48.960  1.00  0.00    -0.203 SA
HETATM   25  C15 UNL     1      28.920   5.826  48.140  1.00  0.00     0.048 A 
HETATM   26  C16 UNL     1      28.004   5.241  48.530  1.00  0.00    -0.040 A 
ENDBRANCH  20  21
ENDBRANCH   8  20
TORSDOF 9
ENDMDL
MODEL 2
REMARK VINA RESULT:      -8.1      0.953      1.822
REMARK  9 active torsions:
REMARK  status: ('A' for Active; 'I' for Inactive)
REMARK    1  A    between atoms: C1_2  and  O2_3 
REMARK    2  A    between atoms: O2_3  and  C2_4 
REMARK    3  A    between atoms: C2_4  and  O3_5 
REMARK    4  A    between atoms: C2_4  and  C3_6 
REMARK    5  A    between atoms: C3_6  and  O4_7 
REMARK    6  A    between atoms: O4_7  and  C4_8 
REMARK    7  A    between atoms: C10_15  and  C11_16 
REMARK    8  A    between atoms: C11_16  and  C12_17 
REMARK    9  A    between atoms: C16_21  and  S1_22 
ROOT
HETATM    1  C4  UNL     1      25.057  -0.138  53.820  1.00  0.00     0.071 A 
HETATM    2  C5  UNL     1      23.756  -0.543  53.663  1.00  0.00     0.038 A 
HETATM    3  C6  UNL     1      22.807  -0.003  52.830  1.00  0.00     0.021 A 
HETATM    4  C7  UNL     1      23.233   1.065  52.074  1.00  0.00     0.048 A 
HETATM    5  C8  UNL     1      22.260   1.602  51.235  1.00  0.00     0.187 A 
HETATM    6  O5  UNL     1      21.103   1.147  51.178  1.00  0.00    -0.287 OA
HETATM    7  C9  UNL     1      22.599   2.675  50.442  1.00  0.00     0.088 A 
HETATM    8  C10 UNL     1      23.898   3.127  50.556  1.00  0.00     0.059 A 
HETATM    9  O6  UNL     1      24.766   2.582  51.361  1.00  0.00    -0.314 OA
HETATM   10  C17 UNL     1      24.514   1.569  52.137  1.00  0.00     0.092 A 
HETATM   11  C18 UNL     1      25.415   0.959  53.013  1.00  0.00     0.075 A 
ENDROOT
BRANCH   1  12
HETATM   12  O4  UNL     1      26.126  -0.481  54.533  1.00  0.00    -0.346 OA
BRANCH  12  13
HETATM   13  C3  UNL     1      27.331   0.000  54.910  1.00  0.00     0.236 C 
BRANCH  13  14
HETATM   14  C2  UNL     1      28.563  -0.479  54.183  1.00  0.00     0.289 C 
BRANCH  14  15
HETATM   15  O2  UNL     1      29.004   0.636  53.408  1.00  0.00    -0.295 OA
BRANCH  15  16
HETATM   16  C1  UNL     1      29.183   1.855  54.005  1.00  0.00     0.400 C 
HETATM   17  O1  UNL     1      29.655   2.440  55.033  1.00  0.00    -0.276 OA
ENDBRANCH  15  16
ENDBRANCH  14  15
BRANCH  14  18
HETATM   18  O3  UNL     1      28.275  -1.564  53.407  1.00  0.00    -0.369 OA
HETATM   19  H3  UNL     1      27.779  -1.371  52.575  1.00  0.00     0.212 HD
ENDBRANCH  14  18
ENDBRANCH  13  14
ENDBRANCH  12  13
ENDBRANCH   1  12
BRANCH   8  20
HETATM   20  C11 UNL     1      24.300   4.301  49.699  1.00  0.00     0.087 C 
BRANCH  20  21
HETATM   21  C12 UNL     1      25.702   4.150  49.404  1.00  0.00     0.032 A 
HETATM   22  C13 UNL     1      26.211   5.554  48.894  1.00  0.00     0.071 A 
HETATM   23  C14 UNL     1      27.660   6.282  48.344  1.00  0.00     0.076 A 
HETATM   24  S1  UNL     1      27.005   4.672  48.947  1.00  0.00    -0.203 SA
HETATM   25  C15 UNL     1      29.120   5.602  48.181  1.00  0.00     0.048 A 
HETATM   26  C16 UNL     1      28.121   5.150  48.546  1.00  0.00    -0.040 A 
ENDBRANCH  20  21
ENDBRANCH   8  20
TORSDOF 9
ENDMDL
MODEL 3
REMARK VINA RESULT:      -8.0      3.513      6.401
REMARK  9 active torsions:
REMARK  status: ('A' for Active; 'I' for Inactive)
REMARK    1  A    between atoms: C1_2  and  O2_3 
REMARK    2  A    between atoms: O2_3  and  C2_4 
REMARK    3  A    between atoms: C2_4  and  O3_5 
REMARK    4  A    between atoms: C2_4  and  C3_6 
REMARK    5  A    between atoms: C3_6  and  O4_7 
REMARK    6  A    between atoms: O4_7  and  C4_8 
REMARK    7  A    between atoms: C10_15  and  C11_16 
REMARK    8  A    between atoms: C11_16  and  C12_17 
REMARK    9  A    between atoms: C16_21  and  S1_22 
ROOT
HETATM    1  C4  UNL     1      26.873   2.173  51.968  1.00  0.00     0.071 A 
HETATM    2  C5  UNL     1      26.257   2.723  50.874  1.00  0.00     0.038 A 
HETATM    3  C6  UNL     1      24.929   2.635  50.529  1.00  0.00     0.021 A 
HETATM    4  C7  UNL     1      24.148   1.908  51.398  1.00  0.00     0.048 A 
HETATM    5  C8  UNL     1      22.806   1.827  51.035  1.00  0.00     0.187 A 
HETATM    6  O5  UNL     1      22.357   2.371  50.009  1.00  0.00    -0.287 OA
HETATM    7  C9  UNL     1      21.950   1.117  51.847  1.00  0.00     0.088 A 
HETATM    8  C10 UNL     1      22.514   0.541  52.966  1.00  0.00     0.059 A 
HETATM    9  O6  UNL     1      23.781   0.651  53.254  1.00  0.00    -0.314 OA
HETATM   10  C17 UNL     1      24.644   1.305  52.533  1.00  0.00     0.092 A 
HETATM   11  C18 UNL     1      26.006   1.445  52.806  1.00  0.00     0.075 A 
ENDROOT
BRANCH   1  12
HETATM   12  O4  UNL     1      28.091   2.115  52.499  1.00  0.00    -0.346 OA
BRANCH  12  13
HETATM   13  C3  UNL     1      28.745   2.380  53.651  1.00  0.00     0.236 C 
BRANCH  13  14
HETATM   14  C2  UNL     1      29.300   1.227  54.451  1.00  0.00     0.289 C 
BRANCH  14  15
HETATM   15  O2  UNL     1      29.797   0.299  53.485  1.00  0.00    -0.295 OA
BRANCH  15  16
HETATM   16  C1  UNL     1      29.298  -0.974  53.443  1.00  0.00     0.400 C 
HETATM   17  O1  UNL     1      28.236  -1.670  53.545  1.00  0.00    -0.276 OA
ENDBRANCH  15  16
ENDBRANCH  14  15
BRANCH  14  18
HETATM   18  O3  UNL     1      28.334   0.679  55.243  1.00  0.00    -0.369 OA
HETATM   19  H3  UNL     1      28.412  -0.295  55.396  1.00  0.00     0.212 HD
ENDBRANCH  14  18
ENDBRANCH  13  14
ENDBRANCH  12  13
ENDBRANCH   1  12
BRANCH   8  20
HETATM   20  C11 UNL     1      21.602  -0.243  53.876  1.00  0.00     0.087 C 
BRANCH  20  21
HETATM   21  C12 UNL     1      20.272  -0.141  53.333  1.00  0.00     0.032 A 
HETATM   22  C13 UNL     1      19.521  -1.475  53.718  1.00  0.00     0.071 A 
HETATM   23  C14 UNL     1      17.984  -2.200  53.509  1.00  0.00     0.076 A 
HETATM   24  S1  UNL     1      18.914  -0.668  53.093  1.00  0.00    -0.203 SA
HETATM   25  C15 UNL     1      16.695  -1.602  52.735  1.00  0.00     0.048 A 
HETATM   26  C16 UNL     1      17.745  -1.149  52.899  1.00  0.00    -0.040 A 
ENDBRANCH  20  21
ENDBRANCH   8  20
TORSDOF 9
ENDMDL
MODEL 4
REMARK VINA RESULT:      -7.9      4.427      7.201
REMARK  9 active torsions:
REMARK  status: ('A' for Active; 'I' for Inactive)
REMARK    1  A    between atoms: C1_2  and  O2_3 
REMARK    2  A    between atoms: O2_3  and  C2_4 
REMARK    3  A    between atoms: C2_4  and  O3_5 
REMARK    4  A    between atoms: C2_4  and  C3_6 
REMARK    5  A    between atoms: C3_6  and  O4_7 
REMARK    6  A    between atoms: O4_7  and  C4_8 
REMARK    7  A    between atoms: C10_15  and  C11_16 
REMARK    8  A    between atoms: C11_16  and  C12_17 
REMARK    9  A    between atoms: C16_21  and  S1_22 
ROOT
HETATM    1  C4  UNL     1      25.287   0.587  52.596  1.00  0.00     0.071 A 
HETATM    2  C5  UNL     1      25.267  -0.255  53.678  1.00  0.00     0.038 A 
HETATM    3  C6  UNL     1      24.166  -0.810  54.284  1.00  0.00     0.021 A 
HETATM    4  C7  UNL     1      22.956  -0.469  53.724  1.00  0.00     0.048 A 
HETATM    5  C8  UNL     1      21.850  -1.039  54.350  1.00  0.00     0.187 A 
HETATM    6  O5  UNL     1      21.955  -1.794  55.333  1.00  0.00    -0.287 OA
HETATM    7  C9  UNL     1      20.598  -0.750  53.856  1.00  0.00     0.088 A 
HETATM    8  C10 UNL     1      20.556   0.094  52.765  1.00  0.00     0.059 A 
HETATM    9  O6  UNL     1      21.628   0.598  52.221  1.00  0.00    -0.314 OA
HETATM   10  C17 UNL     1      22.839   0.368  52.636  1.00  0.00     0.092 A 
HETATM   11  C18 UNL     1      24.011   0.889  52.082  1.00  0.00     0.075 A 
ENDROOT
BRANCH   1  12
HETATM   12  O4  UNL     1      26.184   1.234  51.856  1.00  0.00    -0.346 OA
BRANCH  12  13
HETATM   13  C3  UNL     1      27.042   2.276  51.924  1.00  0.00     0.236 C 
BRANCH  13  14
HETATM   14  C2  UNL     1      28.062   2.303  53.035  1.00  0.00     0.289 C 
BRANCH  14  15
HETATM   15  O2  UNL     1      28.677   1.014  53.018  1.00  0.00    -0.295 OA
BRANCH  15  16
HETATM   16  C1  UNL     1      28.891   0.344  54.192  1.00  0.00     0.400 C 
HETATM   17  O1  UNL     1      28.327  -0.100  55.244  1.00  0.00    -0.276 OA
ENDBRANCH  15  16
ENDBRANCH  14  15
BRANCH  14  18
HETATM   18  O3  UNL     1      27.466   2.574  54.232  1.00  0.00    -0.369 OA
HETATM   19  H3  UNL     1      28.082   2.686  54.997  1.00  0.00     0.212 HD
ENDBRANCH  14  18
ENDBRANCH  13  14
ENDBRANCH  12  13
ENDBRANCH   1  12
BRANCH   8  20
HETATM   20  C11 UNL     1      19.199   0.428  52.200  1.00  0.00     0.087 C 
BRANCH  20  21
HETATM   21  C12 UNL     1      18.288  -0.594  52.650  1.00  0.00     0.032 A 
HETATM   22  C13 UNL     1      17.055  -0.569  51.665  1.00  0.00     0.071 A 
HETATM   23  C14 UNL     1      15.567  -1.384  51.436  1.00  0.00     0.076 A 
HETATM   24  S1  UNL     1      17.033  -1.364  52.548  1.00  0.00    -0.203 SA
HETATM   25  C15 UNL     1      14.943  -2.590  52.317  1.00  0.00     0.048 A 
HETATM   26  C16 UNL     1      15.938  -2.015  52.436  1.00  0.00    -0.040 A 
ENDBRANCH  20  21
ENDBRANCH   8  20
TORSDOF 9
ENDMDL
MODEL 5
REMARK VINA RESULT:      -7.9      2.533      3.336
REMARK  9 active torsions:
REMARK  status: ('A' for Active; 'I' for Inactive)
REMARK    1  A    between atoms: C1_2  and  O2_3 
REMARK    2  A    between atoms: O2_3  and  C2_4 
REMARK    3  A    between atoms: C2_4  and  O3_5 
REMARK    4  A    between atoms: C2_4  and  C3_6 
REMARK    5  A    between atoms: C3_6  and  O4_7 
REMARK    6  A    between atoms: O4_7  and  C4_8 
REMARK    7  A    between atoms: C10_15  and  C11_16 
REMARK    8  A    between atoms: C11_16  and  C12_17 
REMARK    9  A    between atoms: C16_21  and  S1_22 
ROOT
HETATM    1  C4  UNL     1      26.076  -0.028  54.952  1.00  0.00     0.071 A 
HETATM    2  C5  UNL     1      25.310  -0.841  55.746  1.00  0.00     0.038 A 
HETATM    3  C6  UNL     1      24.008  -1.229  55.535  1.00  0.00     0.021 A 
HETATM    4  C7  UNL     1      23.430  -0.736  54.388  1.00  0.00     0.048 A 
HETATM    5  C8  UNL     1      22.112  -1.138  54.188  1.00  0.00     0.187 A 
HETATM    6  O5  UNL     1      21.513  -1.884  54.986  1.00  0.00    -0.287 OA
HETATM    7  C9  UNL     1      21.453  -0.690  53.066  1.00  0.00     0.088 A 
HETATM    8  C10 UNL     1      22.177   0.133  52.227  1.00  0.00     0.059 A 
HETATM    9  O6  UNL     1      23.411   0.476  52.467  1.00  0.00    -0.314 OA
HETATM   10  C17 UNL     1      24.092   0.090  53.506  1.00  0.00     0.092 A 
HETATM   11  C18 UNL     1      25.413   0.437  53.799  1.00  0.00     0.075 A 
ENDROOT
BRANCH   1  12
HETATM   12  O4  UNL     1      27.307   0.478  54.940  1.00  0.00    -0.346 OA
BRANCH  12  13
HETATM   13  C3  UNL     1      28.600   0.086  54.913  1.00  0.00     0.236 C 
BRANCH  13  14
HETATM   14  C2  UNL     1      29.258  -0.150  53.576  1.00  0.00     0.289 C 
BRANCH  14  15
HETATM   15  O2  UNL     1      29.616  -1.532  53.568  1.00  0.00    -0.295 OA
BRANCH  15  16
HETATM   16  C1  UNL     1      28.716  -2.469  53.136  1.00  0.00     0.400 C 
HETATM   17  O1  UNL     1      27.485  -2.677  52.884  1.00  0.00    -0.276 OA
ENDBRANCH  15  16
ENDBRANCH  14  15
BRANCH  14  18
HETATM   18  O3  UNL     1      30.341   0.665  53.420  1.00  0.00    -0.369 OA
HETATM   19  H3  UNL     1      31.218   0.240  53.581  1.00  0.00     0.212 HD
ENDBRANCH  14  18
ENDBRANCH  13  14
ENDBRANCH  12  13
ENDBRANCH   1  12
BRANCH   8  20
HETATM   20  C11 UNL     1      21.483   0.640  50.988  1.00  0.00     0.087 C 
BRANCH  20  21
HETATM   21  C12 UNL     1      22.051   1.929  50.681  1.00  0.00     0.032 A 
HETATM   22  C13 UNL     1      21.928   2.118  49.119  1.00  0.00     0.071 A 
HETATM   23  C14 UNL     1      22.315   3.281  47.923  1.00  0.00     0.076 A 
HETATM   24  S1  UNL     1      22.428   2.999  49.738  1.00  0.00    -0.203 SA
HETATM   25  C15 UNL     1      23.024   4.721  48.125  1.00  0.00     0.048 A 
HETATM   26  C16 UNL     1      22.746   3.911  48.899  1.00  0.00    -0.040 A 
ENDBRANCH  20  21
ENDBRANCH   8  20
TORSDOF 9
ENDMDL
MODEL 6
REMARK VINA RESULT:      -7.8      2.221      3.293
REMARK  9 active torsions:
REMARK  status: ('A' for Active; 'I' for Inactive)
REMARK    1  A    between atoms: C1_2  and  O2_3 
REMARK    2  A    between atoms: O2_3  and  C2_4 
REMARK    3  A    between atoms: C2_4  and  O3_5 
REMARK    4  A    between atoms: C2_4  and  C3_6 
REMARK    5  A    between atoms: C3_6  and  O4_7 
REMARK    6  A    between atoms: O4_7  and  C4_8 
REMARK    7  A    between atoms: C10_15  and  C11_16 
REMARK    8  A    between atoms: C11_16  and  C12_17 
REMARK    9  A    between atoms: C16_21  and  S1_22 
ROOT
HETATM    1  C4  UNL     1      24.648  -0.710  54.605  1.00  0.00     0.071 A 
HETATM    2  C5  UNL     1      23.515  -1.219  55.183  1.00  0.00     0.038 A 
HETATM    3  C6  UNL     1      22.226  -1.136  54.712  1.00  0.00     0.021 A 
HETATM    4  C7  UNL     1      22.082  -0.462  53.521  1.00  0.00     0.048 A 
HETATM    5  C8  UNL     1      20.772  -0.387  53.057  1.00  0.00     0.187 A 
HETATM    6  O5  UNL     1      19.815  -0.890  53.673  1.00  0.00    -0.287 OA
HETATM    7  C9  UNL     1      20.534   0.272  51.871  1.00  0.00     0.088 A 
HETATM    8  C10 UNL     1      21.640   0.805  51.242  1.00  0.00     0.059 A 
HETATM    9  O6  UNL     1      22.846   0.702  51.726  1.00  0.00    -0.314 OA
HETATM   10  C17 UNL     1      23.141   0.096  52.838  1.00  0.00     0.092 A 
HETATM   11  C18 UNL     1      24.418  -0.035  53.390  1.00  0.00     0.075 A 
ENDROOT
BRANCH   1  12
HETATM   12  O4  UNL     1      25.954  -0.657  54.854  1.00  0.00    -0.346 OA
BRANCH  12  13
HETATM   13  C3  UNL     1      26.926   0.229  55.163  1.00  0.00     0.236 C 
BRANCH  13  14
HETATM   14  C2  UNL     1      28.298   0.038  54.566  1.00  0.00     0.289 C 
BRANCH  14  15
HETATM   15  O2  UNL     1      28.933   1.314  54.655  1.00  0.00    -0.295 OA
BRANCH  15  16
HETATM   16  C1  UNL     1      28.677   2.271  53.711  1.00  0.00     0.400 C 
HETATM   17  O1  UNL     1      28.184   2.473  52.555  1.00  0.00    -0.276 OA
ENDBRANCH  15  16
ENDBRANCH  14  15
BRANCH  14  18
HETATM   18  O3  UNL     1      28.208  -0.404  53.278  1.00  0.00    -0.369 OA
HETATM   19  H3  UNL     1      27.611   0.120  52.691  1.00  0.00     0.212 HD
ENDBRANCH  14  18
ENDBRANCH  13  14
ENDBRANCH  12  13
ENDBRANCH   1  12
BRANCH   8  20
HETATM   20  C11 UNL     1      21.413   1.531  49.940  1.00  0.00     0.087 C 
BRANCH  20  21
HETATM   21  C12 UNL     1      22.595   2.313  49.678  1.00  0.00     0.032 A 
HETATM   22  C13 UNL     1      22.103   3.755  49.265  1.00  0.00     0.071 A 
HETATM   23  C14 UNL     1      22.767   5.263  48.801  1.00  0.00     0.076 A 
HETATM   24  S1  UNL     1      23.275   3.564  49.290  1.00  0.00    -0.203 SA
HETATM   25  C15 UNL     1      24.327   5.660  48.641  1.00  0.00     0.048 A 
HETATM   26  C16 UNL     1      23.838   4.660  48.951  1.00  0.00    -0.040 A 
ENDBRANCH  20  21
ENDBRANCH   8  20
TORSDOF 9
ENDMDL
MODEL 7
REMARK VINA RESULT:      -7.8      4.301      7.772
REMARK  9 active torsions:
REMARK  status: ('A' for Active; 'I' for Inactive)
REMARK    1  A    between atoms: C1_2  and  O2_3 
REMARK    2  A    between atoms: O2_3  and  C2_4 
REMARK    3  A    between atoms: C2_4  and  O3_5 
REMARK    4  A    between atoms: C2_4  and  C3_6 
REMARK    5  A    between atoms: C3_6  and  O4_7 
REMARK    6  A    between atoms: O4_7  and  C4_8 
REMARK    7  A    between atoms: C10_15  and  C11_16 
REMARK    8  A    between atoms: C11_16  and  C12_17 
REMARK    9  A    between atoms: C16_21  and  S1_22 
ROOT
HETATM    1  C4  UNL     1      19.445  -0.170  52.296  1.00  0.00     0.071 A 
HETATM    2  C5  UNL     1      19.500  -0.912  53.448  1.00  0.00     0.038 A 
HETATM    3  C6  UNL     1      20.611  -1.202  54.203  1.00  0.00     0.021 A 
HETATM    4  C7  UNL     1      21.792  -0.678  53.730  1.00  0.00     0.048 A 
HETATM    5  C8  UNL     1      22.908  -0.981  54.505  1.00  0.00     0.187 A 
HETATM    6  O5  UNL     1      22.836  -1.670  55.539  1.00  0.00    -0.287 OA
HETATM    7  C9  UNL     1      24.134  -0.498  54.105  1.00  0.00     0.088 A 
HETATM    8  C10 UNL     1      24.140   0.257  52.950  1.00  0.00     0.059 A 
HETATM    9  O6  UNL     1      23.060   0.508  52.265  1.00  0.00    -0.314 OA
HETATM   10  C17 UNL     1      21.873   0.084  52.585  1.00  0.00     0.092 A 
HETATM   11  C18 UNL     1      20.693   0.330  51.878  1.00  0.00     0.075 A 
ENDROOT
BRANCH   1  12
HETATM   12  O4  UNL     1      18.532   0.234  51.417  1.00  0.00    -0.346 OA
BRANCH  12  13
HETATM   13  C3  UNL     1      18.435   0.839  50.212  1.00  0.00     0.236 C 
BRANCH  13  14
HETATM   14  C2  UNL     1      17.742   2.177  50.127  1.00  0.00     0.289 C 
BRANCH  14  15
HETATM   15  O2  UNL     1      18.787   3.136  49.968  1.00  0.00    -0.295 OA
BRANCH  15  16
HETATM   16  C1  UNL     1      19.422   3.643  51.070  1.00  0.00     0.400 C 
HETATM   17  O1  UNL     1      19.464   3.610  52.342  1.00  0.00    -0.276 OA
ENDBRANCH  15  16
ENDBRANCH  14  15
BRANCH  14  18
HETATM   18  O3  UNL     1      16.996   2.407  51.246  1.00  0.00    -0.369 OA
HETATM   19  H3  UNL     1      16.336   1.707  51.468  1.00  0.00     0.212 HD
ENDBRANCH  14  18
ENDBRANCH  13  14
ENDBRANCH  12  13
ENDBRANCH   1  12
BRANCH   8  20
HETATM   20  C11 UNL     1      25.467   0.801  52.487  1.00  0.00     0.087 C 
BRANCH  20  21
HETATM   21  C12 UNL     1      26.457  -0.212  52.750  1.00  0.00     0.032 A 
HETATM   22  C13 UNL     1      27.784   0.543  53.150  1.00  0.00     0.071 A 
HETATM   23  C14 UNL     1      29.393   0.176  53.605  1.00  0.00     0.076 A 
HETATM   24  S1  UNL     1      27.816  -0.644  53.132  1.00  0.00    -0.203 SA
HETATM   25  C15 UNL     1      30.077  -1.282  53.769  1.00  0.00     0.048 A 
HETATM   26  C16 UNL     1      29.001  -0.990  53.466  1.00  0.00    -0.040 A 
ENDBRANCH  20  21
ENDBRANCH   8  20
TORSDOF 9
ENDMDL
MODEL 8
REMARK VINA RESULT:      -7.7      3.185      6.602
REMARK  9 active torsions:
REMARK  status: ('A' for Active; 'I' for Inactive)
REMARK    1  A    between atoms: C1_2  and  O2_3 
REMARK    2  A    between atoms: O2_3  and  C2_4 
REMARK    3  A    between atoms: C2_4  and  O3_5 
REMARK    4  A    between atoms: C2_4  and  C3_6 
REMARK    5  A    between atoms: C3_6  and  O4_7 
REMARK    6  A    between atoms: O4_7  and  C4_8 
REMARK    7  A    between atoms: C10_15  and  C11_16 
REMARK    8  A    between atoms: C11_16  and  C12_17 
REMARK    9  A    between atoms: C16_21  and  S1_22 
ROOT
HETATM    1  C4  UNL     1      26.847   4.638  49.021  1.00  0.00     0.071 A 
HETATM    2  C5  UNL     1      25.592   5.187  48.969  1.00  0.00     0.038 A 
HETATM    3  C6  UNL     1      24.464   4.760  49.628  1.00  0.00     0.021 A 
HETATM    4  C7  UNL     1      24.639   3.653  50.427  1.00  0.00     0.048 A 
HETATM    5  C8  UNL     1      23.488   3.232  51.088  1.00  0.00     0.187 A 
HETATM    6  O5  UNL     1      22.395   3.815  50.962  1.00  0.00    -0.287 OA
HETATM    7  C9  UNL     1      23.570   2.130  51.909  1.00  0.00     0.088 A 
HETATM    8  C10 UNL     1      24.811   1.535  52.002  1.00  0.00     0.059 A 
HETATM    9  O6  UNL     1      25.855   1.975  51.357  1.00  0.00    -0.314 OA
HETATM   10  C17 UNL     1      25.848   3.008  50.567  1.00  0.00     0.092 A 
HETATM   11  C18 UNL     1      26.943   3.509  49.859  1.00  0.00     0.075 A 
ENDROOT
BRANCH   1  12
HETATM   12  O4  UNL     1      28.050   4.855  48.497  1.00  0.00    -0.346 OA
BRANCH  12  13
HETATM   13  C3  UNL     1      28.873   5.868  48.149  1.00  0.00     0.236 C 
BRANCH  13  14
HETATM   14  C2  UNL     1      30.354   5.719  48.400  1.00  0.00     0.289 C 
BRANCH  14  15
HETATM   15  O2  UNL     1      30.741   4.538  47.697  1.00  0.00    -0.295 OA
BRANCH  15  16
HETATM   16  C1  UNL     1      31.928   4.507  47.016  1.00  0.00     0.400 C 
HETATM   17  O1  UNL     1      32.646   3.813  46.226  1.00  0.00    -0.276 OA
ENDBRANCH  15  16
ENDBRANCH  14  15
BRANCH  14  18
HETATM   18  O3  UNL     1      30.610   5.631  49.737  1.00  0.00    -0.369 OA
HETATM   19  H3  UNL     1      31.565   5.549  49.982  1.00  0.00     0.212 HD
ENDBRANCH  14  18
ENDBRANCH  13  14
ENDBRANCH  12  13
ENDBRANCH   1  12
BRANCH   8  20
HETATM   20  C11 UNL     1      24.933   0.326  52.894  1.00  0.00     0.087 C 
BRANCH  20  21
HETATM   21  C12 UNL     1      26.229  -0.255  52.647  1.00  0.00     0.032 A 
HETATM   22  C13 UNL     1      27.111   0.047  53.920  1.00  0.00     0.071 A 
HETATM   23  C14 UNL     1      28.700  -0.242  54.490  1.00  0.00     0.076 A 
HETATM   24  S1  UNL     1      27.619  -0.561  53.036  1.00  0.00    -0.203 SA
HETATM   25  C15 UNL     1      29.901  -1.029  53.743  1.00  0.00     0.048 A 
HETATM   26  C16 UNL     1      28.820  -0.813  53.397  1.00  0.00    -0.040 A 
ENDBRANCH  20  21
ENDBRANCH   8  20
TORSDOF 9
ENDMDL
MODEL 9
REMARK VINA RESULT:      -7.7      3.467      7.046
REMARK  9 active torsions:
REMARK  status: ('A' for Active; 'I' for Inactive)
REMARK    1  A    between atoms: C1_2  and  O2_3 
REMARK    2  A    between atoms: O2_3  and  C2_4 
REMARK    3  A    between atoms: C2_4  and  O3_5 
REMARK    4  A    between atoms: C2_4  and  C3_6 
REMARK    5  A    between atoms: C3_6  and  O4_7 
REMARK    6  A    between atoms: O4_7  and  C4_8 
REMARK    7  A    between atoms: C10_15  and  C11_16 
REMARK    8  A    between atoms: C11_16  and  C12_17 
REMARK    9  A    between atoms: C16_21  and  S1_22 
ROOT
HETATM    1  C4  UNL     1      26.554   2.284  51.292  1.00  0.00     0.071 A 
HETATM    2  C5  UNL     1      27.317   1.452  52.070  1.00  0.00     0.038 A 
HETATM    3  C6  UNL     1      26.876   0.524  52.983  1.00  0.00     0.021 A 
HETATM    4  C7  UNL     1      25.509   0.437  53.114  1.00  0.00     0.048 A 
HETATM    5  C8  UNL     1      25.078  -0.506  54.042  1.00  0.00     0.187 A 
HETATM    6  O5  UNL     1      25.870  -1.210  54.696  1.00  0.00    -0.287 OA
HETATM    7  C9  UNL     1      23.724  -0.661  54.239  1.00  0.00     0.088 A 
HETATM    8  C10 UNL     1      22.905   0.152  53.482  1.00  0.00     0.059 A 
HETATM    9  O6  UNL     1      23.368   1.019  52.626  1.00  0.00    -0.314 OA
HETATM   10  C17 UNL     1      24.632   1.216  52.391  1.00  0.00     0.092 A 
HETATM   11  C18 UNL     1      25.167   2.135  51.485  1.00  0.00     0.075 A 
ENDROOT
BRANCH   1  12
HETATM   12  O4  UNL     1      26.735   3.231  50.374  1.00  0.00    -0.346 OA
BRANCH  12  13
HETATM   13  C3  UNL     1      26.040   4.146  49.664  1.00  0.00     0.236 C 
BRANCH  13  14
HETATM   14  C2  UNL     1      26.802   5.209  48.911  1.00  0.00     0.289 C 
BRANCH  14  15
HETATM   15  O2  UNL     1      28.094   4.651  48.668  1.00  0.00    -0.295 OA
BRANCH  15  16
HETATM   16  C1  UNL     1      29.122   5.459  48.265  1.00  0.00     0.400 C 
HETATM   17  O1  UNL     1      29.637   6.616  48.396  1.00  0.00    -0.276 OA
ENDBRANCH  15  16
ENDBRANCH  14  15
BRANCH  14  18
HETATM   18  O3  UNL     1      26.868   6.363  49.637  1.00  0.00    -0.369 OA
HETATM   19  H3  UNL     1      26.080   6.955  49.566  1.00  0.00     0.212 HD
ENDBRANCH  14  18
ENDBRANCH  13  14
ENDBRANCH  12  13
ENDBRANCH   1  12
BRANCH   8  20
HETATM   20  C11 UNL     1      21.417   0.006  53.674  1.00  0.00     0.087 C 
BRANCH  20  21
HETATM   21  C12 UNL     1      20.791   0.366  52.427  1.00  0.00     0.032 A 
HETATM   22  C13 UNL     1      19.300  -0.147  52.504  1.00  0.00     0.071 A 
HETATM   23  C14 UNL     1      17.888  -0.165  51.536  1.00  0.00     0.076 A 
HETATM   24  S1  UNL     1      19.636   0.408  51.509  1.00  0.00    -0.203 SA
HETATM   25  C15 UNL     1      17.690   0.440  50.048  1.00  0.00     0.048 A 
HETATM   26  C16 UNL     1      18.620   0.431  50.733  1.00  0.00    -0.040 A 
ENDBRANCH  20  21
ENDBRANCH   8  20
TORSDOF 9
ENDMDL
