MODEL 1
REMARK VINA RESULT:      -8.7      0.000      0.000
REMARK  8 active torsions:
REMARK  status: ('A' for Active; 'I' for Inactive)
REMARK    1  A    between atoms: C2_2  and  C3_3 
REMARK    2  A    between atoms: C2_2  and  C13_15 
REMARK    3  A    between atoms: C4_4  and  C5_5 
REMARK    4  A    between atoms: C6_6  and  C8_8 
REMARK    5  A    between atoms: C8_8  and  C9_9 
REMARK    6  A    between atoms: C9_9  and  N1_10 
REMARK    7  A    between atoms: N1_10  and  C10_11 
REMARK    8  A    between atoms: C20_22  and  N2_23 
ROOT
HETATM    1  C13 UNL     1      25.047   0.745  53.088  1.00  0.00     0.014 C 
HETATM    2  C14 UNL     1      25.327   1.827  54.080  1.00  0.00     0.026 C 
HETATM    3  C15 UNL     1      23.782   1.130  52.367  1.00  0.00     0.002 C 
HETATM    4  C16 UNL     1      22.534   0.697  52.486  1.00  0.00    -0.012 A 
HETATM    5  C17 UNL     1      21.552   1.311  51.600  1.00  0.00     0.013 A 
HETATM    6  C18 UNL     1      20.268   0.992  51.591  1.00  0.00     0.003 A 
HETATM    7  C19 UNL     1      19.506   0.033  52.373  1.00  0.00     0.029 A 
HETATM    8  C20 UNL     1      19.915  -0.789  53.327  1.00  0.00     0.027 A 
HETATM    9  C21 UNL     1      21.238  -0.988  53.887  1.00  0.00     0.059 A 
HETATM   10  C22 UNL     1      22.343  -0.342  53.511  1.00  0.00     0.042 A 
HETATM   11  N3  UNL     1      23.499  -0.734  54.222  1.00  0.00    -0.383 N 
HETATM   12  C23 UNL     1      23.326  -1.277  55.566  1.00  0.00     0.150 C 
HETATM   13  C24 UNL     1      24.849  -0.616  53.658  1.00  0.00     0.140 C 
ENDROOT
BRANCH   1  14
HETATM   14  C2  UNL     1      26.173   0.685  52.110  1.00  0.00    -0.066 C 
HETATM   15  C1  UNL     1      26.771  -0.468  51.890  1.00  0.00     0.039 C 
BRANCH  14  16
HETATM   16  C3  UNL     1      26.743   1.751  51.342  1.00  0.00     0.004 C 
HETATM   17  C4  UNL     1      26.222   2.596  50.501  1.00  0.00     0.001 C 
BRANCH  17  18
HETATM   18  C5  UNL     1      26.745   3.683  49.699  1.00  0.00     0.002 C 
HETATM   19  C6  UNL     1      26.024   4.744  49.407  1.00  0.00    -0.082 C 
HETATM   20  C7  UNL     1      24.634   4.807  49.929  1.00  0.00     0.043 C 
BRANCH  19  21
HETATM   21  C8  UNL     1      26.640   5.820  48.563  1.00  0.00     0.063 C 
BRANCH  21  22
HETATM   22  C9  UNL     1      28.095   5.501  48.491  1.00  0.00     0.274 C 
BRANCH  22  23
HETATM   23  N1  UNL     1      29.002   6.513  48.891  1.00  0.00     0.092 N 
HETATM   24  H13 UNL     1      28.578   7.438  48.659  1.00  0.00     0.316 HD
BRANCH  23  25
HETATM   25  C10 UNL     1      30.320   6.468  48.365  1.00  0.00     0.267 C 
HETATM   26  C11 UNL     1      31.420   5.896  49.191  1.00  0.00     0.205 C 
HETATM   27  O1  UNL     1      32.246   6.921  48.660  1.00  0.00    -0.387 OA
HETATM   28  C12 UNL     1      31.093   7.740  48.709  1.00  0.00     0.205 C 
ENDBRANCH  23  25
ENDBRANCH  22  23
ENDBRANCH  21  22
ENDBRANCH  19  21
ENDBRANCH  17  18
ENDBRANCH  14  16
ENDBRANCH   1  14
BRANCH   8  29
HETATM   29  N2  UNL     1      18.968  -1.652  53.961  1.00  0.00    -0.399 N 
HETATM   30  H26 UNL     1      17.981  -1.877  53.715  1.00  0.00     0.156 HD
HETATM   31  H27 UNL     1      18.960  -2.268  54.784  1.00  0.00     0.156 HD
ENDBRANCH   8  29
TORSDOF 8
ENDMDL
MODEL 2
REMARK VINA RESULT:      -8.7      1.855      2.098
REMARK  8 active torsions:
REMARK  status: ('A' for Active; 'I' for Inactive)
REMARK    1  A    between atoms: C2_2  and  C3_3 
REMARK    2  A    between atoms: C2_2  and  C13_15 
REMARK    3  A    between atoms: C4_4  and  C5_5 
REMARK    4  A    between atoms: C6_6  and  C8_8 
REMARK    5  A    between atoms: C8_8  and  C9_9 
REMARK    6  A    between atoms: C9_9  and  N1_10 
REMARK    7  A    between atoms: N1_10  and  C10_11 
REMARK    8  A    between atoms: C20_22  and  N2_23 
ROOT
HETATM    1  C13 UNL     1      25.035   0.766  53.101  1.00  0.00     0.014 C 
HETATM    2  C14 UNL     1      25.299   1.856  54.088  1.00  0.00     0.026 C 
HETATM    3  C15 UNL     1      23.763   1.128  52.380  1.00  0.00     0.002 C 
HETATM    4  C16 UNL     1      22.522   0.676  52.502  1.00  0.00    -0.012 A 
HETATM    5  C17 UNL     1      21.529   1.272  51.615  1.00  0.00     0.013 A 
HETATM    6  C18 UNL     1      20.251   0.932  51.609  1.00  0.00     0.003 A 
HETATM    7  C19 UNL     1      19.505  -0.036  52.396  1.00  0.00     0.029 A 
HETATM    8  C20 UNL     1      19.928  -0.848  53.352  1.00  0.00     0.027 A 
HETATM    9  C21 UNL     1      21.255  -1.024  53.911  1.00  0.00     0.059 A 
HETATM   10  C22 UNL     1      22.349  -0.362  53.531  1.00  0.00     0.042 A 
HETATM   11  N3  UNL     1      23.512  -0.733  54.242  1.00  0.00    -0.383 N 
HETATM   12  C23 UNL     1      23.349  -1.274  55.588  1.00  0.00     0.150 C 
HETATM   13  C24 UNL     1      24.859  -0.596  53.675  1.00  0.00     0.140 C 
ENDROOT
BRANCH   1  14
HETATM   14  C2  UNL     1      26.160   0.721  52.121  1.00  0.00    -0.066 C 
HETATM   15  C1  UNL     1      26.779  -0.422  51.908  1.00  0.00     0.039 C 
BRANCH  14  16
HETATM   16  C3  UNL     1      26.708   1.792  51.344  1.00  0.00     0.004 C 
HETATM   17  C4  UNL     1      26.206   2.527  50.395  1.00  0.00     0.001 C 
BRANCH  17  18
HETATM   18  C5  UNL     1      26.710   3.612  49.578  1.00  0.00     0.002 C 
HETATM   19  C6  UNL     1      26.092   4.771  49.499  1.00  0.00    -0.082 C 
HETATM   20  C7  UNL     1      24.842   4.948  50.282  1.00  0.00     0.043 C 
BRANCH  19  21
HETATM   21  C8  UNL     1      26.677   5.838  48.622  1.00  0.00     0.063 C 
BRANCH  21  22
HETATM   22  C9  UNL     1      26.488   7.122  49.357  1.00  0.00     0.274 C 
BRANCH  22  23
HETATM   23  N1  UNL     1      27.635   7.925  49.568  1.00  0.00     0.092 N 
HETATM   24  H13 UNL     1      28.205   7.483  50.323  1.00  0.00     0.316 HD
BRANCH  23  25
HETATM   25  C10 UNL     1      27.438   9.294  49.884  1.00  0.00     0.267 C 
HETATM   26  C11 UNL     1      26.638  10.151  48.965  1.00  0.00     0.205 C 
HETATM   27  O1  UNL     1      27.569  11.185  49.245  1.00  0.00    -0.387 OA
HETATM   28  C12 UNL     1      28.545  10.161  49.288  1.00  0.00     0.205 C 
ENDBRANCH  23  25
ENDBRANCH  22  23
ENDBRANCH  21  22
ENDBRANCH  19  21
ENDBRANCH  17  18
ENDBRANCH  14  16
ENDBRANCH   1  14
BRANCH   8  29
HETATM   29  N2  UNL     1      18.995  -1.724  53.991  1.00  0.00    -0.399 N 
HETATM   30  H26 UNL     1      18.786  -2.731  53.827  1.00  0.00     0.156 HD
HETATM   31  H27 UNL     1      18.300  -1.645  54.743  1.00  0.00     0.156 HD
ENDBRANCH   8  29
TORSDOF 8
ENDMDL
MODEL 3
REMARK VINA RESULT:      -8.4      1.506      3.791
REMARK  8 active torsions:
REMARK  status: ('A' for Active; 'I' for Inactive)
REMARK    1  A    between atoms: C2_2  and  C3_3 
REMARK    2  A    between atoms: C2_2  and  C13_15 
REMARK    3  A    between atoms: C4_4  and  C5_5 
REMARK    4  A    between atoms: C6_6  and  C8_8 
REMARK    5  A    between atoms: C8_8  and  C9_9 
REMARK    6  A    between atoms: C9_9  and  N1_10 
REMARK    7  A    between atoms: N1_10  and  C10_11 
REMARK    8  A    between atoms: C20_22  and  N2_23 
ROOT
HETATM    1  C13 UNL     1      22.503   2.242  50.935  1.00  0.00     0.014 C 
HETATM    2  C14 UNL     1      21.941   1.383  49.849  1.00  0.00     0.026 C 
HETATM    3  C15 UNL     1      23.934   1.814  51.134  1.00  0.00     0.002 C 
HETATM    4  C16 UNL     1      24.508   1.069  52.069  1.00  0.00    -0.012 A 
HETATM    5  C17 UNL     1      25.947   0.864  51.936  1.00  0.00     0.013 A 
HETATM    6  C18 UNL     1      26.669   0.150  52.783  1.00  0.00     0.003 A 
HETATM    7  C19 UNL     1      26.305  -0.580  53.985  1.00  0.00     0.029 A 
HETATM    8  C20 UNL     1      25.120  -0.724  54.556  1.00  0.00     0.027 A 
HETATM    9  C21 UNL     1      23.823  -0.205  54.164  1.00  0.00     0.059 A 
HETATM   10  C22 UNL     1      23.586   0.560  53.097  1.00  0.00     0.042 A 
HETATM   11  N3  UNL     1      22.230   0.927  52.953  1.00  0.00    -0.383 N 
HETATM   12  C23 UNL     1      21.217   0.049  53.530  1.00  0.00     0.150 C 
HETATM   13  C24 UNL     1      21.815   2.149  52.253  1.00  0.00     0.140 C 
ENDROOT
BRANCH   1  14
HETATM   14  C2  UNL     1      22.473   3.665  50.490  1.00  0.00    -0.066 C 
HETATM   15  C1  UNL     1      21.440   4.417  50.812  1.00  0.00     0.039 C 
BRANCH  14  16
HETATM   16  C3  UNL     1      23.442   4.376  49.710  1.00  0.00     0.004 C 
HETATM   17  C4  UNL     1      24.426   5.159  50.044  1.00  0.00     0.001 C 
BRANCH  17  18
HETATM   18  C5  UNL     1      25.427   5.901  49.306  1.00  0.00     0.002 C 
HETATM   19  C6  UNL     1      26.575   5.363  48.954  1.00  0.00    -0.082 C 
HETATM   20  C7  UNL     1      26.828   3.950  49.336  1.00  0.00     0.043 C 
BRANCH  19  21
HETATM   21  C8  UNL     1      27.561   6.205  48.198  1.00  0.00     0.063 C 
BRANCH  21  22
HETATM   22  C9  UNL     1      28.871   5.502  48.311  1.00  0.00     0.274 C 
BRANCH  22  23
HETATM   23  N1  UNL     1      29.869   6.112  49.109  1.00  0.00     0.092 N 
HETATM   24  H13 UNL     1      29.498   7.027  49.449  1.00  0.00     0.316 HD
BRANCH  23  25
HETATM   25  C10 UNL     1      31.146   6.324  48.527  1.00  0.00     0.267 C 
HETATM   26  C11 UNL     1      32.372   5.978  49.299  1.00  0.00     0.205 C 
HETATM   27  O1  UNL     1      32.958   7.144  48.742  1.00  0.00    -0.387 OA
HETATM   28  C12 UNL     1      31.671   7.723  48.847  1.00  0.00     0.205 C 
ENDBRANCH  23  25
ENDBRANCH  22  23
ENDBRANCH  21  22
ENDBRANCH  19  21
ENDBRANCH  17  18
ENDBRANCH  14  16
ENDBRANCH   1  14
BRANCH   8  29
HETATM   29  N2  UNL     1      25.008  -1.500  55.752  1.00  0.00    -0.399 N 
HETATM   30  H26 UNL     1      25.061  -2.529  55.903  1.00  0.00     0.156 HD
HETATM   31  H27 UNL     1      24.853  -1.306  56.750  1.00  0.00     0.156 HD
ENDBRANCH   8  29
TORSDOF 8
ENDMDL
MODEL 4
REMARK VINA RESULT:      -8.3      3.229      9.042
REMARK  8 active torsions:
REMARK  status: ('A' for Active; 'I' for Inactive)
REMARK    1  A    between atoms: C2_2  and  C3_3 
REMARK    2  A    between atoms: C2_2  and  C13_15 
REMARK    3  A    between atoms: C4_4  and  C5_5 
REMARK    4  A    between atoms: C6_6  and  C8_8 
REMARK    5  A    between atoms: C8_8  and  C9_9 
REMARK    6  A    between atoms: C9_9  and  N1_10 
REMARK    7  A    between atoms: N1_10  and  C10_11 
REMARK    8  A    between atoms: C20_22  and  N2_23 
ROOT
HETATM    1  C13 UNL     1      24.642   5.374  49.435  1.00  0.00     0.014 C 
HETATM    2  C14 UNL     1      24.497   5.880  50.833  1.00  0.00     0.026 C 
HETATM    3  C15 UNL     1      26.112   5.147  49.202  1.00  0.00     0.002 C 
HETATM    4  C16 UNL     1      27.019   5.853  48.541  1.00  0.00    -0.012 A 
HETATM    5  C17 UNL     1      28.374   5.312  48.527  1.00  0.00     0.013 A 
HETATM    6  C18 UNL     1      29.391   5.893  47.913  1.00  0.00     0.003 A 
HETATM    7  C19 UNL     1      29.479   7.119  47.138  1.00  0.00     0.029 A 
HETATM    8  C20 UNL     1      28.534   7.998  46.844  1.00  0.00     0.027 A 
HETATM    9  C21 UNL     1      27.128   8.015  47.200  1.00  0.00     0.059 A 
HETATM   10  C22 UNL     1      26.502   7.087  47.926  1.00  0.00     0.042 A 
HETATM   11  N3  UNL     1      25.128   7.350  48.120  1.00  0.00    -0.383 N 
HETATM   12  C23 UNL     1      24.682   8.739  48.069  1.00  0.00     0.150 C 
HETATM   13  C24 UNL     1      24.148   6.284  48.365  1.00  0.00     0.140 C 
ENDROOT
BRANCH   1  14
HETATM   14  C2  UNL     1      23.918   4.074  49.315  1.00  0.00    -0.066 C 
HETATM   15  C1  UNL     1      22.921   3.971  48.460  1.00  0.00     0.039 C 
BRANCH  14  16
HETATM   16  C3  UNL     1      24.145   2.858  50.037  1.00  0.00     0.004 C 
HETATM   17  C4  UNL     1      23.641   2.393  51.144  1.00  0.00     0.001 C 
BRANCH  17  18
HETATM   18  C5  UNL     1      23.834   1.184  51.916  1.00  0.00     0.002 C 
HETATM   19  C6  UNL     1      24.591   1.157  52.993  1.00  0.00    -0.082 C 
HETATM   20  C7  UNL     1      25.255   2.419  53.409  1.00  0.00     0.043 C 
BRANCH  19  21
HETATM   21  C8  UNL     1      24.743  -0.141  53.730  1.00  0.00     0.063 C 
BRANCH  21  22
HETATM   22  C9  UNL     1      25.730  -0.941  52.949  1.00  0.00     0.274 C 
BRANCH  22  23
HETATM   23  N1  UNL     1      26.965  -1.239  53.575  1.00  0.00     0.092 N 
HETATM   24  H13 UNL     1      26.810  -1.252  54.607  1.00  0.00     0.316 HD
BRANCH  23  25
HETATM   25  C10 UNL     1      28.073  -0.401  53.288  1.00  0.00     0.267 C 
HETATM   26  C11 UNL     1      29.456  -0.920  53.483  1.00  0.00     0.205 C 
HETATM   27  O1  UNL     1      29.791   0.375  53.958  1.00  0.00    -0.387 OA
HETATM   28  C12 UNL     1      28.493   0.397  54.521  1.00  0.00     0.205 C 
ENDBRANCH  23  25
ENDBRANCH  22  23
ENDBRANCH  21  22
ENDBRANCH  19  21
ENDBRANCH  17  18
ENDBRANCH  14  16
ENDBRANCH   1  14
BRANCH   8  29
HETATM   29  N2  UNL     1      28.865   9.144  46.056  1.00  0.00    -0.399 N 
HETATM   30  H26 UNL     1      29.644   9.307  45.384  1.00  0.00     0.156 HD
HETATM   31  H27 UNL     1      28.475  10.085  45.915  1.00  0.00     0.156 HD
ENDBRANCH   8  29
TORSDOF 8
ENDMDL
MODEL 5
REMARK VINA RESULT:      -8.3      1.795      3.984
REMARK  8 active torsions:
REMARK  status: ('A' for Active; 'I' for Inactive)
REMARK    1  A    between atoms: C2_2  and  C3_3 
REMARK    2  A    between atoms: C2_2  and  C13_15 
REMARK    3  A    between atoms: C4_4  and  C5_5 
REMARK    4  A    between atoms: C6_6  and  C8_8 
REMARK    5  A    between atoms: C8_8  and  C9_9 
REMARK    6  A    between atoms: C9_9  and  N1_10 
REMARK    7  A    between atoms: N1_10  and  C10_11 
REMARK    8  A    between atoms: C20_22  and  N2_23 
ROOT
HETATM    1  C13 UNL     1      22.321   2.205  51.012  1.00  0.00     0.014 C 
HETATM    2  C14 UNL     1      21.817   1.356  49.891  1.00  0.00     0.026 C 
HETATM    3  C15 UNL     1      23.770   1.849  51.213  1.00  0.00     0.002 C 
HETATM    4  C16 UNL     1      24.376   1.105  52.129  1.00  0.00    -0.012 A 
HETATM    5  C17 UNL     1      25.824   0.983  52.006  1.00  0.00     0.013 A 
HETATM    6  C18 UNL     1      26.576   0.280  52.837  1.00  0.00     0.003 A 
HETATM    7  C19 UNL     1      26.240  -0.510  54.010  1.00  0.00     0.029 A 
HETATM    8  C20 UNL     1      25.059  -0.738  54.561  1.00  0.00     0.027 A 
HETATM    9  C21 UNL     1      23.740  -0.276  54.171  1.00  0.00     0.059 A 
HETATM   10  C22 UNL     1      23.472   0.511  53.128  1.00  0.00     0.042 A 
HETATM   11  N3  UNL     1      22.099   0.809  52.981  1.00  0.00    -0.383 N 
HETATM   12  C23 UNL     1      21.130  -0.142  53.515  1.00  0.00     0.150 C 
HETATM   13  C24 UNL     1      21.625   2.030  52.317  1.00  0.00     0.140 C 
ENDROOT
BRANCH   1  14
HETATM   14  C2  UNL     1      22.217   3.640  50.614  1.00  0.00    -0.066 C 
HETATM   15  C1  UNL     1      21.029   4.205  50.555  1.00  0.00     0.039 C 
BRANCH  14  16
HETATM   16  C3  UNL     1      23.269   4.542  50.253  1.00  0.00     0.004 C 
HETATM   17  C4  UNL     1      24.152   4.516  49.298  1.00  0.00     0.001 C 
BRANCH  17  18
HETATM   18  C5  UNL     1      25.232   5.390  48.890  1.00  0.00     0.002 C 
HETATM   19  C6  UNL     1      26.493   5.016  48.950  1.00  0.00    -0.082 C 
HETATM   20  C7  UNL     1      26.791   3.651  49.453  1.00  0.00     0.043 C 
BRANCH  19  21
HETATM   21  C8  UNL     1      27.550   5.987  48.516  1.00  0.00     0.063 C 
BRANCH  21  22
HETATM   22  C9  UNL     1      27.079   7.331  48.959  1.00  0.00     0.274 C 
BRANCH  22  23
HETATM   23  N1  UNL     1      28.031   8.186  49.566  1.00  0.00     0.092 N 
HETATM   24  H13 UNL     1      27.516   8.966  50.031  1.00  0.00     0.316 HD
BRANCH  23  25
HETATM   25  C10 UNL     1      29.050   8.734  48.744  1.00  0.00     0.267 C 
HETATM   26  C11 UNL     1      30.450   8.791  49.250  1.00  0.00     0.205 C 
HETATM   27  O1  UNL     1      30.548  10.053  48.606  1.00  0.00    -0.387 OA
HETATM   28  C12 UNL     1      29.194  10.237  48.976  1.00  0.00     0.205 C 
ENDBRANCH  23  25
ENDBRANCH  22  23
ENDBRANCH  21  22
ENDBRANCH  19  21
ENDBRANCH  17  18
ENDBRANCH  14  16
ENDBRANCH   1  14
BRANCH   8  29
HETATM   29  N2  UNL     1      24.977  -1.559  55.729  1.00  0.00    -0.399 N 
HETATM   30  H26 UNL     1      24.266  -1.592  56.489  1.00  0.00     0.156 HD
HETATM   31  H27 UNL     1      25.542  -2.307  56.150  1.00  0.00     0.156 HD
ENDBRANCH   8  29
TORSDOF 8
ENDMDL
MODEL 6
REMARK VINA RESULT:      -7.9      1.696      2.854
REMARK  8 active torsions:
REMARK  status: ('A' for Active; 'I' for Inactive)
REMARK    1  A    between atoms: C2_2  and  C3_3 
REMARK    2  A    between atoms: C2_2  and  C13_15 
REMARK    3  A    between atoms: C4_4  and  C5_5 
REMARK    4  A    between atoms: C6_6  and  C8_8 
REMARK    5  A    between atoms: C8_8  and  C9_9 
REMARK    6  A    between atoms: C9_9  and  N1_10 
REMARK    7  A    between atoms: N1_10  and  C10_11 
REMARK    8  A    between atoms: C20_22  and  N2_23 
ROOT
HETATM    1  C13 UNL     1      24.293   2.814  51.475  1.00  0.00     0.014 C 
HETATM    2  C14 UNL     1      24.164   4.130  52.172  1.00  0.00     0.026 C 
HETATM    3  C15 UNL     1      23.012   2.062  51.721  1.00  0.00     0.002 C 
HETATM    4  C16 UNL     1      22.720   1.065  52.545  1.00  0.00    -0.012 A 
HETATM    5  C17 UNL     1      21.345   0.579  52.507  1.00  0.00     0.013 A 
HETATM    6  C18 UNL     1      20.893  -0.408  53.262  1.00  0.00     0.003 A 
HETATM    7  C19 UNL     1      21.545  -1.235  54.263  1.00  0.00     0.029 A 
HETATM    8  C20 UNL     1      22.798  -1.208  54.690  1.00  0.00     0.027 A 
HETATM    9  C21 UNL     1      23.902  -0.352  54.298  1.00  0.00     0.059 A 
HETATM   10  C22 UNL     1      23.845   0.612  53.379  1.00  0.00     0.042 A 
HETATM   11  N3  UNL     1      25.070   1.291  53.192  1.00  0.00    -0.383 N 
HETATM   12  C23 UNL     1      26.012   1.323  54.306  1.00  0.00     0.150 C 
HETATM   13  C24 UNL     1      25.420   1.952  51.929  1.00  0.00     0.140 C 
ENDROOT
BRANCH   1  14
HETATM   14  C2  UNL     1      24.449   3.057  50.011  1.00  0.00    -0.066 C 
HETATM   15  C1  UNL     1      23.403   2.921  49.223  1.00  0.00     0.039 C 
BRANCH  14  16
HETATM   16  C3  UNL     1      25.632   3.423  49.290  1.00  0.00     0.004 C 
HETATM   17  C4  UNL     1      26.423   4.452  49.375  1.00  0.00     0.001 C 
BRANCH  17  18
HETATM   18  C5  UNL     1      27.619   4.873  48.677  1.00  0.00     0.002 C 
HETATM   19  C6  UNL     1      27.835   6.132  48.357  1.00  0.00    -0.082 C 
HETATM   20  C7  UNL     1      26.805   7.133  48.737  1.00  0.00     0.043 C 
BRANCH  19  21
HETATM   21  C8  UNL     1      29.097   6.480  47.626  1.00  0.00     0.063 C 
BRANCH  21  22
HETATM   22  C9  UNL     1      30.179   5.682  48.272  1.00  0.00     0.274 C 
BRANCH  22  23
HETATM   23  N1  UNL     1      31.259   5.270  47.454  1.00  0.00     0.092 N 
HETATM   24  H13 UNL     1      31.448   4.262  47.652  1.00  0.00     0.316 HD
BRANCH  23  25
HETATM   25  C10 UNL     1      32.476   5.992  47.549  1.00  0.00     0.267 C 
HETATM   26  C11 UNL     1      33.703   5.302  48.037  1.00  0.00     0.205 C 
HETATM   27  O1  UNL     1      34.018   6.510  48.713  1.00  0.00    -0.387 OA
HETATM   28  C12 UNL     1      32.625   6.641  48.924  1.00  0.00     0.205 C 
ENDBRANCH  23  25
ENDBRANCH  22  23
ENDBRANCH  21  22
ENDBRANCH  19  21
ENDBRANCH  17  18
ENDBRANCH  14  16
ENDBRANCH   1  14
BRANCH   8  29
HETATM   29  N2  UNL     1      23.215  -2.134  55.697  1.00  0.00    -0.399 N 
HETATM   30  H26 UNL     1      24.135  -2.257  56.169  1.00  0.00     0.156 HD
HETATM   31  H27 UNL     1      22.780  -2.900  56.226  1.00  0.00     0.156 HD
ENDBRANCH   8  29
TORSDOF 8
ENDMDL
MODEL 7
REMARK VINA RESULT:      -7.8      3.711     11.149
REMARK  8 active torsions:
REMARK  status: ('A' for Active; 'I' for Inactive)
REMARK    1  A    between atoms: C2_2  and  C3_3 
REMARK    2  A    between atoms: C2_2  and  C13_15 
REMARK    3  A    between atoms: C4_4  and  C5_5 
REMARK    4  A    between atoms: C6_6  and  C8_8 
REMARK    5  A    between atoms: C8_8  and  C9_9 
REMARK    6  A    between atoms: C9_9  and  N1_10 
REMARK    7  A    between atoms: N1_10  and  C10_11 
REMARK    8  A    between atoms: C20_22  and  N2_23 
ROOT
HETATM    1  C13 UNL     1      30.163   6.677  47.779  1.00  0.00     0.014 C 
HETATM    2  C14 UNL     1      30.603   7.507  48.941  1.00  0.00     0.026 C 
HETATM    3  C15 UNL     1      30.972   5.407  47.817  1.00  0.00     0.002 C 
HETATM    4  C16 UNL     1      32.017   5.007  47.105  1.00  0.00    -0.012 A 
HETATM    5  C17 UNL     1      32.548   3.687  47.426  1.00  0.00     0.013 A 
HETATM    6  C18 UNL     1      33.583   3.141  46.810  1.00  0.00     0.003 A 
HETATM    7  C19 UNL     1      34.432   3.625  45.735  1.00  0.00     0.029 A 
HETATM    8  C20 UNL     1      34.387   4.775  45.079  1.00  0.00     0.027 A 
HETATM    9  C21 UNL     1      33.485   5.902  45.227  1.00  0.00     0.059 A 
HETATM   10  C22 UNL     1      32.479   5.978  46.100  1.00  0.00     0.042 A 
HETATM   11  N3  UNL     1      31.757   7.190  46.028  1.00  0.00    -0.383 N 
HETATM   12  C23 UNL     1      32.450   8.371  45.522  1.00  0.00     0.150 C 
HETATM   13  C24 UNL     1      30.352   7.296  46.437  1.00  0.00     0.140 C 
ENDROOT
BRANCH   1  14
HETATM   14  C2  UNL     1      28.717   6.345  47.943  1.00  0.00    -0.066 C 
HETATM   15  C1  UNL     1      27.811   7.227  47.575  1.00  0.00     0.039 C 
BRANCH  14  16
HETATM   16  C3  UNL     1      28.133   5.154  48.482  1.00  0.00     0.004 C 
HETATM   17  C4  UNL     1      26.942   4.895  48.938  1.00  0.00     0.001 C 
BRANCH  17  18
HETATM   18  C5  UNL     1      26.301   3.721  49.493  1.00  0.00     0.002 C 
HETATM   19  C6  UNL     1      25.223   3.805  50.244  1.00  0.00    -0.082 C 
HETATM   20  C7  UNL     1      24.665   5.155  50.514  1.00  0.00     0.043 C 
BRANCH  19  21
HETATM   21  C8  UNL     1      24.627   2.539  50.787  1.00  0.00     0.063 C 
BRANCH  21  22
HETATM   22  C9  UNL     1      25.700   1.898  51.601  1.00  0.00     0.274 C 
BRANCH  22  23
HETATM   23  N1  UNL     1      25.411   0.638  52.180  1.00  0.00     0.092 N 
HETATM   24  H13 UNL     1      24.420   0.652  52.507  1.00  0.00     0.316 HD
BRANCH  23  25
HETATM   25  C10 UNL     1      26.238   0.191  53.242  1.00  0.00     0.267 C 
HETATM   26  C11 UNL     1      27.710   0.408  53.168  1.00  0.00     0.205 C 
HETATM   27  O1  UNL     1      27.850  -0.873  53.762  1.00  0.00    -0.387 OA
HETATM   28  C12 UNL     1      26.714  -1.241  53.004  1.00  0.00     0.205 C 
ENDBRANCH  23  25
ENDBRANCH  22  23
ENDBRANCH  21  22
ENDBRANCH  19  21
ENDBRANCH  17  18
ENDBRANCH  14  16
ENDBRANCH   1  14
BRANCH   8  29
HETATM   29  N2  UNL     1      35.342   5.030  44.046  1.00  0.00    -0.399 N 
HETATM   30  H26 UNL     1      36.326   4.710  43.935  1.00  0.00     0.156 HD
HETATM   31  H27 UNL     1      35.358   5.561  43.166  1.00  0.00     0.156 HD
ENDBRANCH   8  29
TORSDOF 8
ENDMDL
MODEL 8
REMARK VINA RESULT:      -7.7      2.078      3.971
REMARK  8 active torsions:
REMARK  status: ('A' for Active; 'I' for Inactive)
REMARK    1  A    between atoms: C2_2  and  C3_3 
REMARK    2  A    between atoms: C2_2  and  C13_15 
REMARK    3  A    between atoms: C4_4  and  C5_5 
REMARK    4  A    between atoms: C6_6  and  C8_8 
REMARK    5  A    between atoms: C8_8  and  C9_9 
REMARK    6  A    between atoms: C9_9  and  N1_10 
REMARK    7  A    between atoms: N1_10  and  C10_11 
REMARK    8  A    between atoms: C20_22  and  N2_23 
ROOT
HETATM    1  C13 UNL     1      23.435   3.273  50.086  1.00  0.00     0.014 C 
HETATM    2  C14 UNL     1      23.246   2.652  48.740  1.00  0.00     0.026 C 
HETATM    3  C15 UNL     1      23.991   2.202  50.988  1.00  0.00     0.002 C 
HETATM    4  C16 UNL     1      23.423   1.461  51.929  1.00  0.00    -0.012 A 
HETATM    5  C17 UNL     1      24.292   0.507  52.610  1.00  0.00     0.013 A 
HETATM    6  C18 UNL     1      23.882  -0.303  53.572  1.00  0.00     0.003 A 
HETATM    7  C19 UNL     1      22.581  -0.486  54.192  1.00  0.00     0.029 A 
HETATM    8  C20 UNL     1      21.436   0.129  53.942  1.00  0.00     0.027 A 
HETATM    9  C21 UNL     1      21.122   1.168  52.979  1.00  0.00     0.059 A 
HETATM   10  C22 UNL     1      21.988   1.722  52.129  1.00  0.00     0.042 A 
HETATM   11  N3  UNL     1      21.416   2.715  51.303  1.00  0.00    -0.383 N 
HETATM   12  C23 UNL     1      19.986   2.632  51.024  1.00  0.00     0.150 C 
HETATM   13  C24 UNL     1      22.203   3.811  50.727  1.00  0.00     0.140 C 
ENDROOT
BRANCH   1  14
HETATM   14  C2  UNL     1      24.426   4.383  49.970  1.00  0.00    -0.066 C 
HETATM   15  C1  UNL     1      24.064   5.604  50.303  1.00  0.00     0.039 C 
BRANCH  14  16
HETATM   16  C3  UNL     1      25.783   4.321  49.513  1.00  0.00     0.004 C 
HETATM   17  C4  UNL     1      26.584   5.228  49.033  1.00  0.00     0.001 C 
BRANCH  17  18
HETATM   18  C5  UNL     1      27.951   5.223  48.556  1.00  0.00     0.002 C 
HETATM   19  C6  UNL     1      28.524   6.304  48.070  1.00  0.00    -0.082 C 
HETATM   20  C7  UNL     1      27.724   7.555  48.022  1.00  0.00     0.043 C 
BRANCH  19  21
HETATM   21  C8  UNL     1      29.942   6.210  47.589  1.00  0.00     0.063 C 
BRANCH  21  22
HETATM   22  C9  UNL     1      30.724   7.160  48.431  1.00  0.00     0.274 C 
BRANCH  22  23
HETATM   23  N1  UNL     1      31.386   8.222  47.768  1.00  0.00     0.092 N 
HETATM   24  H13 UNL     1      32.354   8.291  48.154  1.00  0.00     0.316 HD
BRANCH  23  25
HETATM   25  C10 UNL     1      30.784   9.506  47.808  1.00  0.00     0.267 C 
HETATM   26  C11 UNL     1      31.646  10.720  47.861  1.00  0.00     0.205 C 
HETATM   27  O1  UNL     1      30.684  11.270  48.748  1.00  0.00    -0.387 OA
HETATM   28  C12 UNL     1      30.537   9.954  49.248  1.00  0.00     0.205 C 
ENDBRANCH  23  25
ENDBRANCH  22  23
ENDBRANCH  21  22
ENDBRANCH  19  21
ENDBRANCH  17  18
ENDBRANCH  14  16
ENDBRANCH   1  14
BRANCH   8  29
HETATM   29  N2  UNL     1      20.272  -0.225  54.693  1.00  0.00    -0.399 N 
HETATM   30  H26 UNL     1      19.576   0.368  55.190  1.00  0.00     0.156 HD
HETATM   31  H27 UNL     1      19.796  -1.098  54.956  1.00  0.00     0.156 HD
ENDBRANCH   8  29
TORSDOF 8
ENDMDL
MODEL 9
REMARK VINA RESULT:      -7.7      1.810      3.754
REMARK  8 active torsions:
REMARK  status: ('A' for Active; 'I' for Inactive)
REMARK    1  A    between atoms: C2_2  and  C3_3 
REMARK    2  A    between atoms: C2_2  and  C13_15 
REMARK    3  A    between atoms: C4_4  and  C5_5 
REMARK    4  A    between atoms: C6_6  and  C8_8 
REMARK    5  A    between atoms: C8_8  and  C9_9 
REMARK    6  A    between atoms: C9_9  and  N1_10 
REMARK    7  A    between atoms: N1_10  and  C10_11 
REMARK    8  A    between atoms: C20_22  and  N2_23 
ROOT
HETATM    1  C13 UNL     1      23.371   3.317  50.116  1.00  0.00     0.014 C 
HETATM    2  C14 UNL     1      23.152   2.720  48.764  1.00  0.00     0.026 C 
HETATM    3  C15 UNL     1      24.036   2.259  50.958  1.00  0.00     0.002 C 
HETATM    4  C16 UNL     1      23.561   1.461  51.904  1.00  0.00    -0.012 A 
HETATM    5  C17 UNL     1      24.519   0.545  52.515  1.00  0.00     0.013 A 
HETATM    6  C18 UNL     1      24.208  -0.314  53.472  1.00  0.00     0.003 A 
HETATM    7  C19 UNL     1      22.953  -0.592  54.149  1.00  0.00     0.029 A 
HETATM    8  C20 UNL     1      21.762  -0.042  53.973  1.00  0.00     0.027 A 
HETATM    9  C21 UNL     1      21.338   1.000  53.057  1.00  0.00     0.059 A 
HETATM   10  C22 UNL     1      22.125   1.628  52.182  1.00  0.00     0.042 A 
HETATM   11  N3  UNL     1      21.453   2.604  51.413  1.00  0.00    -0.383 N 
HETATM   12  C23 UNL     1      20.018   2.441  51.202  1.00  0.00     0.150 C 
HETATM   13  C24 UNL     1      22.143   3.761  50.831  1.00  0.00     0.140 C 
ENDROOT
BRANCH   1  14
HETATM   14  C2  UNL     1      24.287   4.488  49.983  1.00  0.00    -0.066 C 
HETATM   15  C1  UNL     1      23.848   5.685  50.311  1.00  0.00     0.039 C 
BRANCH  14  16
HETATM   16  C3  UNL     1      25.641   4.511  49.516  1.00  0.00     0.004 C 
HETATM   17  C4  UNL     1      26.377   5.464  49.022  1.00  0.00     0.001 C 
BRANCH  17  18
HETATM   18  C5  UNL     1      27.738   5.545  48.534  1.00  0.00     0.002 C 
HETATM   19  C6  UNL     1      28.175   6.586  47.857  1.00  0.00    -0.082 C 
HETATM   20  C7  UNL     1      27.225   7.700  47.601  1.00  0.00     0.043 C 
BRANCH  19  21
HETATM   21  C8  UNL     1      29.597   6.585  47.380  1.00  0.00     0.063 C 
BRANCH  21  22
HETATM   22  C9  UNL     1      30.222   5.360  47.956  1.00  0.00     0.274 C 
BRANCH  22  23
HETATM   23  N1  UNL     1      31.531   5.484  48.481  1.00  0.00     0.092 N 
HETATM   24  H13 UNL     1      31.474   5.392  49.520  1.00  0.00     0.316 HD
BRANCH  23  25
HETATM   25  C10 UNL     1      32.265   6.656  48.165  1.00  0.00     0.267 C 
HETATM   26  C11 UNL     1      33.743   6.669  48.349  1.00  0.00     0.205 C 
HETATM   27  O1  UNL     1      33.597   8.008  48.797  1.00  0.00    -0.387 OA
HETATM   28  C12 UNL     1      32.381   7.577  49.378  1.00  0.00     0.205 C 
ENDBRANCH  23  25
ENDBRANCH  22  23
ENDBRANCH  21  22
ENDBRANCH  19  21
ENDBRANCH  17  18
ENDBRANCH  14  16
ENDBRANCH   1  14
BRANCH   8  29
HETATM   29  N2  UNL     1      20.660  -0.487  54.769  1.00  0.00    -0.399 N 
HETATM   30  H26 UNL     1      20.046   0.032  55.431  1.00  0.00     0.156 HD
HETATM   31  H27 UNL     1      20.171  -1.377  54.927  1.00  0.00     0.156 HD
ENDBRANCH   8  29
TORSDOF 8
ENDMDL
