MODEL 1
REMARK VINA RESULT:      -8.8      0.000      0.000
REMARK  4 active torsions:
REMARK  status: ('A' for Active; 'I' for Inactive)
REMARK    1  A    between atoms: C2_2  and  O1_3 
REMARK    2  A    between atoms: O1_3  and  C3_4 
REMARK       I    between atoms: C3_4  and  N1_6 
REMARK    3  A    between atoms: N1_6  and  C4_7 
REMARK    4  A    between atoms: C11_16  and  C12_17 
ROOT
HETATM    1  C4  UNL     1      25.005   0.196  52.995  1.00  0.00     0.037 A 
HETATM    2  C5  UNL     1      24.032  -0.712  53.422  1.00  0.00     0.030 A 
HETATM    3  C6  UNL     1      22.663  -0.477  53.291  1.00  0.00     0.016 A 
HETATM    4  C7  UNL     1      22.234   0.703  52.713  1.00  0.00    -0.001 A 
HETATM    5  C8  UNL     1      20.889   0.971  52.554  1.00  0.00     0.073 A 
HETATM    6  C9  UNL     1      19.885   0.042  52.991  1.00  0.00     0.102 C 
HETATM    7  N2  UNL     1      19.083  -0.707  53.351  1.00  0.00    -0.191 NA
HETATM    8  C10 UNL     1      20.610   2.180  51.953  1.00  0.00     0.140 A 
HETATM    9  N3  UNL     1      21.572   3.042  51.549  1.00  0.00    -0.258 NA
HETATM   10  C11 UNL     1      22.891   2.782  51.705  1.00  0.00     0.078 A 
HETATM   11  C18 UNL     1      23.212   1.582  52.301  1.00  0.00     0.007 A 
HETATM   12  C19 UNL     1      24.569   1.369  52.421  1.00  0.00     0.044 A 
ENDROOT
BRANCH  10  13
HETATM   13  C12 UNL     1      23.732   3.848  51.197  1.00  0.00    -0.005 A 
HETATM   14  C13 UNL     1      23.361   5.143  51.583  1.00  0.00     0.014 A 
HETATM   15  C14 UNL     1      24.048   6.300  51.219  1.00  0.00     0.002 A 
HETATM   16  C15 UNL     1      25.166   6.152  50.423  1.00  0.00     0.019 A 
HETATM   17  C16 UNL     1      25.555   4.904  50.029  1.00  0.00     0.011 A 
HETATM   18 BR1  UNL     1      27.104   4.665  48.925  1.00  0.00    -0.051 Br
HETATM   19  C17 UNL     1      24.857   3.783  50.405  1.00  0.00     0.032 A 
ENDBRANCH  10  13
BRANCH   1  20
HETATM   20  N1  UNL     1      26.367  -0.165  53.188  1.00  0.00    -0.303 N 
HETATM   21  C3  UNL     1      26.844   0.116  54.499  1.00  0.00     0.365 C 
HETATM   22  O2  UNL     1      26.424   0.599  55.577  1.00  0.00    -0.238 OA
HETATM   23  H6  UNL     1      27.060  -0.590  52.549  1.00  0.00     0.171 HD
BRANCH  21  24
HETATM   24  O1  UNL     1      28.141  -0.140  54.950  1.00  0.00    -0.304 OA
BRANCH  24  25
HETATM   25  C2  UNL     1      29.263   0.184  54.115  1.00  0.00     0.176 C 
HETATM   26  C1  UNL     1      29.784  -1.089  53.526  1.00  0.00     0.034 C 
ENDBRANCH  24  25
ENDBRANCH  21  24
ENDBRANCH   1  20
TORSDOF 4
ENDMDL
MODEL 2
REMARK VINA RESULT:      -8.7      1.363      1.601
REMARK  4 active torsions:
REMARK  status: ('A' for Active; 'I' for Inactive)
REMARK    1  A    between atoms: C2_2  and  O1_3 
REMARK    2  A    between atoms: O1_3  and  C3_4 
REMARK       I    between atoms: C3_4  and  N1_6 
REMARK    3  A    between atoms: N1_6  and  C4_7 
REMARK    4  A    between atoms: C11_16  and  C12_17 
ROOT
HETATM    1  C4  UNL     1      23.917  -0.540  54.159  1.00  0.00     0.037 A 
HETATM    2  C5  UNL     1      22.900  -1.429  54.515  1.00  0.00     0.030 A 
HETATM    3  C6  UNL     1      21.575  -1.272  54.108  1.00  0.00     0.016 A 
HETATM    4  C7  UNL     1      21.237  -0.191  53.315  1.00  0.00    -0.001 A 
HETATM    5  C8  UNL     1      19.940  -0.002  52.882  1.00  0.00     0.073 A 
HETATM    6  C9  UNL     1      18.891  -0.913  53.244  1.00  0.00     0.102 C 
HETATM    7  N2  UNL     1      18.051  -1.645  53.545  1.00  0.00    -0.191 NA
HETATM    8  C10 UNL     1      19.754   1.111  52.090  1.00  0.00     0.140 A 
HETATM    9  N3  UNL     1      20.758   1.958  51.761  1.00  0.00    -0.258 NA
HETATM   10  C11 UNL     1      22.029   1.776  52.185  1.00  0.00     0.078 A 
HETATM   11  C18 UNL     1      22.258   0.672  52.978  1.00  0.00     0.007 A 
HETATM   12  C19 UNL     1      23.572   0.534  53.370  1.00  0.00     0.044 A 
ENDROOT
BRANCH  10  13
HETATM   13  C12 UNL     1      22.930   2.806  51.706  1.00  0.00    -0.005 A 
HETATM   14  C13 UNL     1      22.586   4.117  52.063  1.00  0.00     0.014 A 
HETATM   15  C14 UNL     1      23.329   5.246  51.720  1.00  0.00     0.002 A 
HETATM   16  C15 UNL     1      24.475   5.051  50.978  1.00  0.00     0.019 A 
HETATM   17  C16 UNL     1      24.839   3.787  50.613  1.00  0.00     0.011 A 
HETATM   18 BR1  UNL     1      26.426   3.482  49.583  1.00  0.00    -0.051 Br
HETATM   19  C17 UNL     1      24.086   2.695  50.967  1.00  0.00     0.032 A 
ENDBRANCH  10  13
BRANCH   1  20
HETATM   20  N1  UNL     1      25.226  -0.816  54.641  1.00  0.00    -0.303 N 
HETATM   21  C3  UNL     1      26.192  -0.949  53.606  1.00  0.00     0.365 C 
HETATM   22  O2  UNL     1      26.253  -0.898  52.354  1.00  0.00    -0.238 OA
HETATM   23  H6  UNL     1      25.591  -0.934  55.602  1.00  0.00     0.171 HD
BRANCH  21  24
HETATM   24  O1  UNL     1      27.548  -1.220  53.806  1.00  0.00    -0.304 OA
BRANCH  24  25
HETATM   25  C2  UNL     1      28.472  -0.136  53.990  1.00  0.00     0.176 C 
HETATM   26  C1  UNL     1      29.835  -0.623  53.611  1.00  0.00     0.034 C 
ENDBRANCH  24  25
ENDBRANCH  21  24
ENDBRANCH   1  20
TORSDOF 4
ENDMDL
MODEL 3
REMARK VINA RESULT:      -8.6      2.915      5.493
REMARK  4 active torsions:
REMARK  status: ('A' for Active; 'I' for Inactive)
REMARK    1  A    between atoms: C2_2  and  O1_3 
REMARK    2  A    between atoms: O1_3  and  C3_4 
REMARK       I    between atoms: C3_4  and  N1_6 
REMARK    3  A    between atoms: N1_6  and  C4_7 
REMARK    4  A    between atoms: C11_16  and  C12_17 
ROOT
HETATM    1  C4  UNL     1      24.111   3.429  51.541  1.00  0.00     0.037 A 
HETATM    2  C5  UNL     1      22.719   3.416  51.418  1.00  0.00     0.030 A 
HETATM    3  C6  UNL     1      21.930   2.338  51.819  1.00  0.00     0.016 A 
HETATM    4  C7  UNL     1      22.539   1.225  52.368  1.00  0.00    -0.001 A 
HETATM    5  C8  UNL     1      21.796   0.140  52.788  1.00  0.00     0.073 A 
HETATM    6  C9  UNL     1      20.366   0.121  52.664  1.00  0.00     0.102 C 
HETATM    7  N2  UNL     1      19.216   0.109  52.555  1.00  0.00    -0.191 NA
HETATM    8  C10 UNL     1      22.536  -0.893  53.324  1.00  0.00     0.140 A 
HETATM    9  N3  UNL     1      23.885  -0.854  53.431  1.00  0.00    -0.258 NA
HETATM   10  C11 UNL     1      24.616   0.207  53.019  1.00  0.00     0.078 A 
HETATM   11  C18 UNL     1      23.913   1.262  52.478  1.00  0.00     0.007 A 
HETATM   12  C19 UNL     1      24.710   2.316  52.088  1.00  0.00     0.044 A 
ENDROOT
BRANCH  10  13
HETATM   13  C12 UNL     1      26.037   0.022  53.235  1.00  0.00    -0.005 A 
HETATM   14  C13 UNL     1      26.555  -1.209  52.810  1.00  0.00     0.014 A 
HETATM   15  C14 UNL     1      27.896  -1.575  52.909  1.00  0.00     0.002 A 
HETATM   16  C15 UNL     1      28.765  -0.660  53.466  1.00  0.00     0.019 A 
HETATM   17  C16 UNL     1      28.294   0.549  53.890  1.00  0.00     0.011 A 
HETATM   18 BR1  UNL     1      29.476   1.843  54.667  1.00  0.00    -0.051 Br
HETATM   19  C17 UNL     1      26.966   0.880  53.778  1.00  0.00     0.032 A 
ENDBRANCH  10  13
BRANCH   1  20
HETATM   20  N1  UNL     1      24.797   4.591  51.092  1.00  0.00    -0.303 N 
HETATM   21  C3  UNL     1      25.703   4.334  50.026  1.00  0.00     0.365 C 
HETATM   22  O2  UNL     1      26.100   3.368  49.331  1.00  0.00    -0.238 OA
HETATM   23  H6  UNL     1      24.751   5.576  51.403  1.00  0.00     0.171 HD
BRANCH  21  24
HETATM   24  O1  UNL     1      26.500   5.298  49.402  1.00  0.00    -0.304 OA
BRANCH  24  25
HETATM   25  C2  UNL     1      27.626   4.889  48.611  1.00  0.00     0.176 C 
HETATM   26  C1  UNL     1      28.406   6.114  48.252  1.00  0.00     0.034 C 
ENDBRANCH  24  25
ENDBRANCH  21  24
ENDBRANCH   1  20
TORSDOF 4
ENDMDL
MODEL 4
REMARK VINA RESULT:      -8.3      3.233      7.081
REMARK  4 active torsions:
REMARK  status: ('A' for Active; 'I' for Inactive)
REMARK    1  A    between atoms: C2_2  and  O1_3 
REMARK    2  A    between atoms: O1_3  and  C3_4 
REMARK       I    between atoms: C3_4  and  N1_6 
REMARK    3  A    between atoms: N1_6  and  C4_7 
REMARK    4  A    between atoms: C11_16  and  C12_17 
ROOT
HETATM    1  C4  UNL     1      25.027   2.813  51.013  1.00  0.00     0.037 A 
HETATM    2  C5  UNL     1      26.421   2.858  51.095  1.00  0.00     0.030 A 
HETATM    3  C6  UNL     1      27.166   1.970  51.871  1.00  0.00     0.016 A 
HETATM    4  C7  UNL     1      26.510   0.994  52.597  1.00  0.00    -0.001 A 
HETATM    5  C8  UNL     1      27.208   0.089  53.370  1.00  0.00     0.073 A 
HETATM    6  C9  UNL     1      28.641   0.130  53.457  1.00  0.00     0.102 C 
HETATM    7  N2  UNL     1      29.793   0.173  53.528  1.00  0.00    -0.191 NA
HETATM    8  C10 UNL     1      26.423  -0.832  54.031  1.00  0.00     0.140 A 
HETATM    9  N3  UNL     1      25.073  -0.852  53.935  1.00  0.00    -0.258 NA
HETATM   10  C11 UNL     1      24.385   0.035  53.179  1.00  0.00     0.078 A 
HETATM   11  C18 UNL     1      25.135   0.972  52.501  1.00  0.00     0.007 A 
HETATM   12  C19 UNL     1      24.380   1.839  51.741  1.00  0.00     0.044 A 
ENDROOT
BRANCH  10  13
HETATM   13  C12 UNL     1      22.953  -0.182  53.230  1.00  0.00    -0.005 A 
HETATM   14  C13 UNL     1      22.494  -0.908  54.338  1.00  0.00     0.014 A 
HETATM   15  C14 UNL     1      21.155  -1.207  54.583  1.00  0.00     0.002 A 
HETATM   16  C15 UNL     1      20.225  -0.756  53.668  1.00  0.00     0.019 A 
HETATM   17  C16 UNL     1      20.638  -0.046  52.578  1.00  0.00     0.011 A 
HETATM   18 BR1  UNL     1      19.373   0.595  51.289  1.00  0.00    -0.051 Br
HETATM   19  C17 UNL     1      21.966   0.233  52.365  1.00  0.00     0.032 A 
ENDBRANCH  10  13
BRANCH   1  20
HETATM   20  N1  UNL     1      24.388   3.777  50.186  1.00  0.00    -0.303 N 
HETATM   21  C3  UNL     1      23.806   4.850  50.917  1.00  0.00     0.365 C 
HETATM   22  O2  UNL     1      23.677   5.227  52.106  1.00  0.00    -0.238 OA
HETATM   23  H6  UNL     1      24.275   3.831  49.160  1.00  0.00     0.171 HD
BRANCH  21  24
HETATM   24  O1  UNL     1      23.121   5.927  50.348  1.00  0.00    -0.304 OA
BRANCH  24  25
HETATM   25  C2  UNL     1      21.859   6.338  50.895  1.00  0.00     0.176 C 
HETATM   26  C1  UNL     1      21.578   7.727  50.416  1.00  0.00     0.034 C 
ENDBRANCH  24  25
ENDBRANCH  21  24
ENDBRANCH   1  20
TORSDOF 4
ENDMDL
MODEL 5
REMARK VINA RESULT:      -8.2      1.958      2.835
REMARK  4 active torsions:
REMARK  status: ('A' for Active; 'I' for Inactive)
REMARK    1  A    between atoms: C2_2  and  O1_3 
REMARK    2  A    between atoms: O1_3  and  C3_4 
REMARK       I    between atoms: C3_4  and  N1_6 
REMARK    3  A    between atoms: N1_6  and  C4_7 
REMARK    4  A    between atoms: C11_16  and  C12_17 
ROOT
HETATM    1  C4  UNL     1      25.823   2.025  51.744  1.00  0.00     0.037 A 
HETATM    2  C5  UNL     1      24.713   1.509  52.418  1.00  0.00     0.030 A 
HETATM    3  C6  UNL     1      23.443   2.082  52.343  1.00  0.00     0.016 A 
HETATM    4  C7  UNL     1      23.259   3.213  51.569  1.00  0.00    -0.001 A 
HETATM    5  C8  UNL     1      22.018   3.806  51.458  1.00  0.00     0.073 A 
HETATM    6  C9  UNL     1      20.873   3.280  52.147  1.00  0.00     0.102 C 
HETATM    7  N2  UNL     1      19.959   2.856  52.711  1.00  0.00    -0.191 NA
HETATM    8  C10 UNL     1      21.982   4.919  50.645  1.00  0.00     0.140 A 
HETATM    9  N3  UNL     1      23.074   5.400  50.005  1.00  0.00    -0.258 NA
HETATM   10  C11 UNL     1      24.292   4.820  50.112  1.00  0.00     0.078 A 
HETATM   11  C18 UNL     1      24.369   3.703  50.915  1.00  0.00     0.007 A 
HETATM   12  C19 UNL     1      25.631   3.151  50.977  1.00  0.00     0.044 A 
ENDROOT
BRANCH  10  13
HETATM   13  C12 UNL     1      25.306   5.507  49.338  1.00  0.00    -0.005 A 
HETATM   14  C13 UNL     1      24.874   6.662  48.671  1.00  0.00     0.014 A 
HETATM   15  C14 UNL     1      25.695   7.474  47.891  1.00  0.00     0.002 A 
HETATM   16  C15 UNL     1      27.021   7.109  47.771  1.00  0.00     0.019 A 
HETATM   17  C16 UNL     1      27.475   5.991  48.407  1.00  0.00     0.011 A 
HETATM   18 BR1  UNL     1      29.310   5.457  48.261  1.00  0.00    -0.051 Br
HETATM   19  C17 UNL     1      26.640   5.210  49.169  1.00  0.00     0.032 A 
ENDBRANCH  10  13
BRANCH   1  20
HETATM   20  N1  UNL     1      27.061   1.345  51.907  1.00  0.00    -0.303 N 
HETATM   21  C3  UNL     1      27.786   1.762  53.057  1.00  0.00     0.365 C 
HETATM   22  O2  UNL     1      27.671   2.569  54.009  1.00  0.00    -0.238 OA
HETATM   23  H6  UNL     1      27.519   0.611  51.340  1.00  0.00     0.171 HD
BRANCH  21  24
HETATM   24  O1  UNL     1      29.029   1.255  53.447  1.00  0.00    -0.304 OA
BRANCH  24  25
HETATM   25  C2  UNL     1      29.094   0.080  54.270  1.00  0.00     0.176 C 
HETATM   26  C1  UNL     1      29.794  -0.990  53.493  1.00  0.00     0.034 C 
ENDBRANCH  24  25
ENDBRANCH  21  24
ENDBRANCH   1  20
TORSDOF 4
ENDMDL
MODEL 6
REMARK VINA RESULT:      -7.7      3.130      5.928
REMARK  4 active torsions:
REMARK  status: ('A' for Active; 'I' for Inactive)
REMARK    1  A    between atoms: C2_2  and  O1_3 
REMARK    2  A    between atoms: O1_3  and  C3_4 
REMARK       I    between atoms: C3_4  and  N1_6 
REMARK    3  A    between atoms: N1_6  and  C4_7 
REMARK    4  A    between atoms: C11_16  and  C12_17 
ROOT
HETATM    1  C4  UNL     1      22.001   1.709  51.276  1.00  0.00     0.037 A 
HETATM    2  C5  UNL     1      21.963   0.672  52.213  1.00  0.00     0.030 A 
HETATM    3  C6  UNL     1      23.080   0.268  52.944  1.00  0.00     0.016 A 
HETATM    4  C7  UNL     1      24.286   0.913  52.745  1.00  0.00    -0.001 A 
HETATM    5  C8  UNL     1      25.414   0.552  53.455  1.00  0.00     0.073 A 
HETATM    6  C9  UNL     1      25.382  -0.512  54.418  1.00  0.00     0.102 C 
HETATM    7  N2  UNL     1      25.350  -1.374  55.187  1.00  0.00    -0.191 NA
HETATM    8  C10 UNL     1      26.541   1.289  53.160  1.00  0.00     0.140 A 
HETATM    9  N3  UNL     1      26.550   2.288  52.246  1.00  0.00    -0.258 NA
HETATM   10  C11 UNL     1      25.446   2.644  51.549  1.00  0.00     0.078 A 
HETATM   11  C18 UNL     1      24.297   1.931  51.816  1.00  0.00     0.007 A 
HETATM   12  C19 UNL     1      23.205   2.346  51.083  1.00  0.00     0.044 A 
ENDROOT
BRANCH  10  13
HETATM   13  C12 UNL     1      25.695   3.738  50.631  1.00  0.00    -0.005 A 
HETATM   14  C13 UNL     1      26.814   3.583  49.801  1.00  0.00     0.014 A 
HETATM   15  C14 UNL     1      27.214   4.510  48.839  1.00  0.00     0.002 A 
HETATM   16  C15 UNL     1      26.454   5.653  48.703  1.00  0.00     0.019 A 
HETATM   17  C16 UNL     1      25.358   5.835  49.495  1.00  0.00     0.011 A 
HETATM   18 BR1  UNL     1      24.280   7.412  49.330  1.00  0.00    -0.051 Br
HETATM   19  C17 UNL     1      24.989   4.903  50.434  1.00  0.00     0.032 A 
ENDBRANCH  10  13
BRANCH   1  20
HETATM   20  N1  UNL     1      20.791   2.021  50.597  1.00  0.00    -0.303 N 
HETATM   21  C3  UNL     1      19.899   2.815  51.371  1.00  0.00     0.365 C 
HETATM   22  O2  UNL     1      19.844   3.346  52.505  1.00  0.00    -0.238 OA
HETATM   23  H6  UNL     1      20.453   1.774  49.652  1.00  0.00     0.171 HD
BRANCH  21  24
HETATM   24  O1  UNL     1      18.646   3.260  50.941  1.00  0.00    -0.304 OA
BRANCH  24  25
HETATM   25  C2  UNL     1      17.456   2.636  51.446  1.00  0.00     0.176 C 
HETATM   26  C1  UNL     1      17.109   1.499  50.537  1.00  0.00     0.034 C 
ENDBRANCH  24  25
ENDBRANCH  21  24
ENDBRANCH   1  20
TORSDOF 4
ENDMDL
MODEL 7
REMARK VINA RESULT:      -7.7      3.063      4.532
REMARK  4 active torsions:
REMARK  status: ('A' for Active; 'I' for Inactive)
REMARK    1  A    between atoms: C2_2  and  O1_3 
REMARK    2  A    between atoms: O1_3  and  C3_4 
REMARK       I    between atoms: C3_4  and  N1_6 
REMARK    3  A    between atoms: N1_6  and  C4_7 
REMARK    4  A    between atoms: C11_16  and  C12_17 
ROOT
HETATM    1  C4  UNL     1      26.097   2.608  50.896  1.00  0.00     0.037 A 
HETATM    2  C5  UNL     1      24.743   2.271  50.956  1.00  0.00     0.030 A 
HETATM    3  C6  UNL     1      23.747   3.008  50.315  1.00  0.00     0.016 A 
HETATM    4  C7  UNL     1      24.100   4.126  49.583  1.00  0.00    -0.001 A 
HETATM    5  C8  UNL     1      23.149   4.878  48.925  1.00  0.00     0.073 A 
HETATM    6  C9  UNL     1      21.755   4.537  48.983  1.00  0.00     0.102 C 
HETATM    7  N2  UNL     1      20.635   4.260  49.040  1.00  0.00    -0.191 NA
HETATM    8  C10 UNL     1      23.648   5.957  48.227  1.00  0.00     0.140 A 
HETATM    9  N3  UNL     1      24.966   6.262  48.187  1.00  0.00    -0.258 NA
HETATM   10  C11 UNL     1      25.902   5.527  48.831  1.00  0.00     0.078 A 
HETATM   11  C18 UNL     1      25.443   4.438  49.540  1.00  0.00     0.007 A 
HETATM   12  C19 UNL     1      26.442   3.723  50.165  1.00  0.00     0.044 A 
ENDROOT
BRANCH  10  13
HETATM   13  C12 UNL     1      27.243   6.043  48.643  1.00  0.00    -0.005 A 
HETATM   14  C13 UNL     1      27.388   7.424  48.833  1.00  0.00     0.014 A 
HETATM   15  C14 UNL     1      28.595   8.111  48.719  1.00  0.00     0.002 A 
HETATM   16  C15 UNL     1      29.717   7.376  48.395  1.00  0.00     0.019 A 
HETATM   17  C16 UNL     1      29.611   6.029  48.203  1.00  0.00     0.011 A 
HETATM   18 BR1  UNL     1      31.151   4.979  47.753  1.00  0.00    -0.051 Br
HETATM   19  C17 UNL     1      28.407   5.380  48.323  1.00  0.00     0.032 A 
ENDBRANCH  10  13
BRANCH   1  20
HETATM   20  N1  UNL     1      27.012   1.772  51.595  1.00  0.00    -0.303 N 
HETATM   21  C3  UNL     1      26.879   1.850  53.009  1.00  0.00     0.365 C 
HETATM   22  O2  UNL     1      26.181   2.446  53.864  1.00  0.00    -0.238 OA
HETATM   23  H6  UNL     1      27.746   1.127  51.256  1.00  0.00     0.171 HD
BRANCH  21  24
HETATM   24  O1  UNL     1      27.652   1.134  53.926  1.00  0.00    -0.304 OA
BRANCH  24  25
HETATM   25  C2  UNL     1      29.030   0.856  53.634  1.00  0.00     0.176 C 
HETATM   26  C1  UNL     1      29.210  -0.629  53.627  1.00  0.00     0.034 C 
ENDBRANCH  24  25
ENDBRANCH  21  24
ENDBRANCH   1  20
TORSDOF 4
ENDMDL
MODEL 8
REMARK VINA RESULT:      -7.6      3.315      6.579
REMARK  4 active torsions:
REMARK  status: ('A' for Active; 'I' for Inactive)
REMARK    1  A    between atoms: C2_2  and  O1_3 
REMARK    2  A    between atoms: O1_3  and  C3_4 
REMARK       I    between atoms: C3_4  and  N1_6 
REMARK    3  A    between atoms: N1_6  and  C4_7 
REMARK    4  A    between atoms: C11_16  and  C12_17 
ROOT
HETATM    1  C4  UNL     1      25.282   2.861  50.525  1.00  0.00     0.037 A 
HETATM    2  C5  UNL     1      26.582   2.531  50.915  1.00  0.00     0.030 A 
HETATM    3  C6  UNL     1      26.863   1.600  51.916  1.00  0.00     0.016 A 
HETATM    4  C7  UNL     1      25.816   0.966  52.559  1.00  0.00    -0.001 A 
HETATM    5  C8  UNL     1      26.049   0.032  53.548  1.00  0.00     0.073 A 
HETATM    6  C9  UNL     1      27.383  -0.312  53.953  1.00  0.00     0.102 C 
HETATM    7  N2  UNL     1      28.458  -0.578  54.279  1.00  0.00    -0.191 NA
HETATM    8  C10 UNL     1      24.911  -0.525  54.093  1.00  0.00     0.140 A 
HETATM    9  N3  UNL     1      23.662  -0.186  53.697  1.00  0.00    -0.258 NA
HETATM   10  C11 UNL     1      23.431   0.730  52.729  1.00  0.00     0.078 A 
HETATM   11  C18 UNL     1      24.543   1.310  52.157  1.00  0.00     0.007 A 
HETATM   12  C19 UNL     1      24.245   2.226  51.171  1.00  0.00     0.044 A 
ENDROOT
BRANCH  10  13
HETATM   13  C12 UNL     1      22.018   0.928  52.474  1.00  0.00    -0.005 A 
HETATM   14  C13 UNL     1      21.212  -0.205  52.648  1.00  0.00     0.014 A 
HETATM   15  C14 UNL     1      19.829  -0.221  52.472  1.00  0.00     0.002 A 
HETATM   16  C15 UNL     1      19.222   0.960  52.100  1.00  0.00     0.019 A 
HETATM   17  C16 UNL     1      19.978   2.082  51.921  1.00  0.00     0.011 A 
HETATM   18 BR1  UNL     1      19.164   3.739  51.405  1.00  0.00    -0.051 Br
HETATM   19  C17 UNL     1      21.339   2.066  52.103  1.00  0.00     0.032 A 
ENDBRANCH  10  13
BRANCH   1  20
HETATM   20  N1  UNL     1      25.133   3.827  49.492  1.00  0.00    -0.303 N 
HETATM   21  C3  UNL     1      24.721   5.102  49.967  1.00  0.00     0.365 C 
HETATM   22  O2  UNL     1      24.438   5.663  51.052  1.00  0.00    -0.238 OA
HETATM   23  H6  UNL     1      25.272   3.762  48.469  1.00  0.00     0.171 HD
BRANCH  21  24
HETATM   24  O1  UNL     1      24.503   6.224  49.163  1.00  0.00    -0.304 OA
BRANCH  24  25
HETATM   25  C2  UNL     1      23.656   6.120  48.009  1.00  0.00     0.176 C 
HETATM   26  C1  UNL     1      23.835   7.360  47.191  1.00  0.00     0.034 C 
ENDBRANCH  24  25
ENDBRANCH  21  24
ENDBRANCH   1  20
TORSDOF 4
ENDMDL
MODEL 9
REMARK VINA RESULT:      -7.6      3.662      6.995
REMARK  4 active torsions:
REMARK  status: ('A' for Active; 'I' for Inactive)
REMARK    1  A    between atoms: C2_2  and  O1_3 
REMARK    2  A    between atoms: O1_3  and  C3_4 
REMARK       I    between atoms: C3_4  and  N1_6 
REMARK    3  A    between atoms: N1_6  and  C4_7 
REMARK    4  A    between atoms: C11_16  and  C12_17 
ROOT
HETATM    1  C4  UNL     1      23.634   3.004  51.513  1.00  0.00     0.037 A 
HETATM    2  C5  UNL     1      24.956   2.975  51.966  1.00  0.00     0.030 A 
HETATM    3  C6  UNL     1      25.448   1.980  52.810  1.00  0.00     0.016 A 
HETATM    4  C7  UNL     1      24.602   0.967  53.224  1.00  0.00    -0.001 A 
HETATM    5  C8  UNL     1      25.050  -0.043  54.050  1.00  0.00     0.073 A 
HETATM    6  C9  UNL     1      26.407  -0.079  54.520  1.00  0.00     0.102 C 
HETATM    7  N2  UNL     1      27.498  -0.097  54.899  1.00  0.00    -0.191 NA
HETATM    8  C10 UNL     1      24.100  -0.989  54.372  1.00  0.00     0.140 A 
HETATM    9  N3  UNL     1      22.825  -0.936  53.919  1.00  0.00    -0.258 NA
HETATM   10  C11 UNL     1      22.383   0.054  53.110  1.00  0.00     0.078 A 
HETATM   11  C18 UNL     1      23.304   1.019  52.763  1.00  0.00     0.007 A 
HETATM   12  C19 UNL     1      22.798   1.994  51.930  1.00  0.00     0.044 A 
ENDROOT
BRANCH  10  13
HETATM   13  C12 UNL     1      20.986  -0.099  52.754  1.00  0.00    -0.005 A 
HETATM   14  C13 UNL     1      20.220  -0.864  53.644  1.00  0.00     0.014 A 
HETATM   15  C14 UNL     1      18.857  -1.114  53.493  1.00  0.00     0.002 A 
HETATM   16  C15 UNL     1      18.228  -0.571  52.392  1.00  0.00     0.019 A 
HETATM   17  C16 UNL     1      18.945   0.179  51.505  1.00  0.00     0.011 A 
HETATM   18 BR1  UNL     1      18.102   0.948  49.965  1.00  0.00    -0.051 Br
HETATM   19  C17 UNL     1      20.288   0.408  51.681  1.00  0.00     0.032 A 
ENDBRANCH  10  13
BRANCH   1  20
HETATM   20  N1  UNL     1      23.260   4.076  50.656  1.00  0.00    -0.303 N 
HETATM   21  C3  UNL     1      23.254   3.722  49.279  1.00  0.00     0.365 C 
HETATM   22  O2  UNL     1      23.483   2.724  48.556  1.00  0.00    -0.238 OA
HETATM   23  H6  UNL     1      22.995   5.055  50.861  1.00  0.00     0.171 HD
BRANCH  21  24
HETATM   24  O1  UNL     1      22.924   4.587  48.232  1.00  0.00    -0.304 OA
BRANCH  24  25
HETATM   25  C2  UNL     1      21.641   4.480  47.596  1.00  0.00     0.176 C 
HETATM   26  C1  UNL     1      21.855   4.510  46.116  1.00  0.00     0.034 C 
ENDBRANCH  24  25
ENDBRANCH  21  24
ENDBRANCH   1  20
TORSDOF 4
ENDMDL
