MODEL 1
REMARK VINA RESULT:      -8.2      0.000      0.000
REMARK  6 active torsions:
REMARK  status: ('A' for Active; 'I' for Inactive)
REMARK    1  A    between atoms: N1_7  and  C6_8 
REMARK    2  A    between atoms: C6_8  and  C7_9 
REMARK    3  A    between atoms: C8_10  and  C9_11 
REMARK       I    between atoms: C9_11  and  N2_13 
REMARK    4  A    between atoms: N2_13  and  C10_14 
REMARK    5  A    between atoms: C10_14  and  N3_15 
REMARK    6  A    between atoms: C14_22  and  C15_23 
ROOT
HETATM    1  C10 UNL     1      20.369   0.042  53.203  1.00  0.00     0.360 A 
HETATM    2  N4  UNL     1      19.792  -1.121  53.843  1.00  0.00    -0.235 NA
HETATM    3  C11 UNL     1      18.754  -1.458  53.176  1.00  0.00     0.148 A 
HETATM    4  C12 UNL     1      18.450  -0.632  52.019  1.00  0.00     0.090 A 
HETATM    5  N5  UNL     1      17.509  -0.646  51.088  1.00  0.00    -0.240 NA
HETATM    6  C13 UNL     1      17.527   0.292  50.096  1.00  0.00     0.234 A 
HETATM    7  N6  UNL     1      18.515   1.202  50.109  1.00  0.00    -0.240 NA
HETATM    8  C14 UNL     1      19.481   1.234  51.045  1.00  0.00     0.083 A 
HETATM    9  C21 UNL     1      19.482   0.282  52.070  1.00  0.00     0.083 A 
ENDROOT
BRANCH   1  10
HETATM   10  N2  UNL     1      21.756  -0.165  52.850  1.00  0.00    -0.293 N 
HETATM   11  C9  UNL     1      22.696  -0.415  53.891  1.00  0.00     0.300 C 
HETATM   12  O2  UNL     1      22.315  -0.455  55.097  1.00  0.00    -0.258 OA
HETATM   13  H11 UNL     1      21.970  -0.113  51.829  1.00  0.00     0.168 HD
BRANCH  11  14
HETATM   14  C8  UNL     1      24.069  -0.619  53.520  1.00  0.00    -0.004 C 
HETATM   15  C7  UNL     1      25.226  -0.790  53.228  1.00  0.00    -0.077 C 
BRANCH  15  16
HETATM   16  C6  UNL     1      26.637  -0.976  52.889  1.00  0.00     0.217 C 
BRANCH  16  17
HETATM   17  N1  UNL     1      27.480   0.118  53.247  1.00  0.00    -0.373 N 
HETATM   18  C2  UNL     1      28.798  -0.001  53.771  1.00  0.00     0.009 C 
HETATM   19  C1  UNL     1      29.467  -1.091  53.431  1.00  0.00     0.060 C 
HETATM   20  C3  UNL     1      29.306   1.088  54.639  1.00  0.00     0.219 C 
HETATM   21  O1  UNL     1      28.724   2.309  54.352  1.00  0.00    -0.384 OA
HETATM   22  C4  UNL     1      28.224   2.345  53.065  1.00  0.00     0.188 C 
HETATM   23  C5  UNL     1      26.954   1.482  53.064  1.00  0.00     0.149 C 
ENDBRANCH  16  17
ENDBRANCH  15  16
ENDBRANCH  11  14
ENDBRANCH   1  10
BRANCH   1  24
HETATM   24  N3  UNL     1      20.234   1.115  54.191  1.00  0.00     0.135 N 
HETATM   25  H12 UNL     1      19.581   1.847  53.850  1.00  0.00     0.319 HD
HETATM   26  H13 UNL     1      19.807   0.715  55.056  1.00  0.00     0.319 HD
ENDBRANCH   1  24
BRANCH   8  27
HETATM   27  C15 UNL     1      20.456   2.288  50.827  1.00  0.00    -0.005 A 
HETATM   28  C16 UNL     1      20.201   3.471  51.543  1.00  0.00     0.017 A 
HETATM   29  C17 UNL     1      20.976   4.616  51.523  1.00  0.00     0.045 A 
HETATM   30  C18 UNL     1      22.096   4.621  50.747  1.00  0.00     0.138 A 
HETATM   31  F1  UNL     1      22.943   5.666  50.632  1.00  0.00    -0.204 F 
HETATM   32  C19 UNL     1      22.407   3.494  50.018  1.00  0.00     0.073 A 
HETATM   33 CL1  UNL     1      23.815   3.378  48.987  1.00  0.00    -0.081 Cl
HETATM   34  C20 UNL     1      21.602   2.383  50.073  1.00  0.00     0.041 A 
ENDBRANCH   8  27
TORSDOF 6
ENDMDL
MODEL 2
REMARK VINA RESULT:      -8.1      2.011      2.863
REMARK  6 active torsions:
REMARK  status: ('A' for Active; 'I' for Inactive)
REMARK    1  A    between atoms: N1_7  and  C6_8 
REMARK    2  A    between atoms: C6_8  and  C7_9 
REMARK    3  A    between atoms: C8_10  and  C9_11 
REMARK       I    between atoms: C9_11  and  N2_13 
REMARK    4  A    between atoms: N2_13  and  C10_14 
REMARK    5  A    between atoms: C10_14  and  N3_15 
REMARK    6  A    between atoms: C14_22  and  C15_23 
ROOT
HETATM    1  C10 UNL     1      21.088   2.267  51.236  1.00  0.00     0.360 A 
HETATM    2  N4  UNL     1      20.043   1.281  51.418  1.00  0.00    -0.235 NA
HETATM    3  C11 UNL     1      19.287   1.321  50.388  1.00  0.00     0.148 A 
HETATM    4  C12 UNL     1      19.659   2.286  49.367  1.00  0.00     0.090 A 
HETATM    5  N5  UNL     1      19.169   2.625  48.185  1.00  0.00    -0.240 NA
HETATM    6  C13 UNL     1      19.793   3.590  47.447  1.00  0.00     0.234 A 
HETATM    7  N6  UNL     1      20.894   4.161  47.962  1.00  0.00    -0.240 NA
HETATM    8  C14 UNL     1      21.410   3.832  49.160  1.00  0.00     0.083 A 
HETATM    9  C21 UNL     1      20.786   2.846  49.933  1.00  0.00     0.083 A 
ENDROOT
BRANCH   1  10
HETATM   10  N2  UNL     1      22.408   1.684  51.347  1.00  0.00    -0.293 N 
HETATM   11  C9  UNL     1      22.772   1.042  52.565  1.00  0.00     0.300 C 
HETATM   12  O2  UNL     1      21.950   0.987  53.526  1.00  0.00    -0.258 OA
HETATM   13  H11 UNL     1      23.012   1.783  50.500  1.00  0.00     0.168 HD
BRANCH  11  14
HETATM   14  C8  UNL     1      24.087   0.470  52.655  1.00  0.00    -0.004 C 
HETATM   15  C7  UNL     1      25.194   0.002  52.746  1.00  0.00    -0.077 C 
BRANCH  15  16
HETATM   16  C6  UNL     1      26.548  -0.541  52.852  1.00  0.00     0.217 C 
BRANCH  16  17
HETATM   17  N1  UNL     1      27.527   0.395  53.303  1.00  0.00    -0.373 N 
HETATM   18  C2  UNL     1      28.797   0.054  53.845  1.00  0.00     0.009 C 
HETATM   19  C1  UNL     1      29.316  -1.095  53.444  1.00  0.00     0.060 C 
HETATM   20  C3  UNL     1      29.427   1.000  54.797  1.00  0.00     0.219 C 
HETATM   21  O1  UNL     1      29.034   2.308  54.583  1.00  0.00    -0.384 OA
HETATM   22  C4  UNL     1      28.584   2.499  53.291  1.00  0.00     0.188 C 
HETATM   23  C5  UNL     1      27.205   1.830  53.204  1.00  0.00     0.149 C 
ENDBRANCH  16  17
ENDBRANCH  15  16
ENDBRANCH  11  14
ENDBRANCH   1  10
BRANCH   1  24
HETATM   24  N3  UNL     1      20.859   3.251  52.296  1.00  0.00     0.135 N 
HETATM   25  H12 UNL     1      20.272   2.846  53.051  1.00  0.00     0.319 HD
HETATM   26  H13 UNL     1      21.779   3.489  52.729  1.00  0.00     0.319 HD
ENDBRANCH   1  24
BRANCH   8  27
HETATM   27  C15 UNL     1      22.622   4.563  49.484  1.00  0.00    -0.005 A 
HETATM   28  C16 UNL     1      22.413   5.728  50.240  1.00  0.00     0.017 A 
HETATM   29  C17 UNL     1      23.394   6.594  50.689  1.00  0.00     0.045 A 
HETATM   30  C18 UNL     1      24.691   6.310  50.381  1.00  0.00     0.138 A 
HETATM   31  F1  UNL     1      25.747   7.064  50.751  1.00  0.00    -0.204 F 
HETATM   32  C19 UNL     1      24.969   5.182  49.642  1.00  0.00     0.073 A 
HETATM   33 CL1  UNL     1      26.590   4.711  49.185  1.00  0.00    -0.081 Cl
HETATM   34  C20 UNL     1      23.956   4.355  49.221  1.00  0.00     0.041 A 
ENDBRANCH   8  27
TORSDOF 6
ENDMDL
MODEL 3
REMARK VINA RESULT:      -7.9      4.993      6.750
REMARK  6 active torsions:
REMARK  status: ('A' for Active; 'I' for Inactive)
REMARK    1  A    between atoms: N1_7  and  C6_8 
REMARK    2  A    between atoms: C6_8  and  C7_9 
REMARK    3  A    between atoms: C8_10  and  C9_11 
REMARK       I    between atoms: C9_11  and  N2_13 
REMARK    4  A    between atoms: N2_13  and  C10_14 
REMARK    5  A    between atoms: C10_14  and  N3_15 
REMARK    6  A    between atoms: C14_22  and  C15_23 
ROOT
HETATM    1  C10 UNL     1      23.309   6.708  50.510  1.00  0.00     0.360 A 
HETATM    2  N4  UNL     1      21.928   6.525  50.903  1.00  0.00    -0.235 NA
HETATM    3  C11 UNL     1      21.191   6.995  49.970  1.00  0.00     0.148 A 
HETATM    4  C12 UNL     1      21.896   7.551  48.827  1.00  0.00     0.090 A 
HETATM    5  N5  UNL     1      21.523   8.105  47.684  1.00  0.00    -0.240 NA
HETATM    6  C13 UNL     1      22.472   8.514  46.792  1.00  0.00     0.234 A 
HETATM    7  N6  UNL     1      23.762   8.334  47.118  1.00  0.00    -0.240 NA
HETATM    8  C14 UNL     1      24.164   7.773  48.274  1.00  0.00     0.083 A 
HETATM    9  C21 UNL     1      23.208   7.346  49.202  1.00  0.00     0.083 A 
ENDROOT
BRANCH   1  10
HETATM   10  N2  UNL     1      24.045   5.462  50.519  1.00  0.00    -0.293 N 
HETATM   11  C9  UNL     1      24.013   4.658  51.693  1.00  0.00     0.300 C 
HETATM   12  O2  UNL     1      23.350   5.033  52.705  1.00  0.00    -0.258 OA
HETATM   13  H11 UNL     1      24.560   5.241  49.637  1.00  0.00     0.168 HD
BRANCH  11  14
HETATM   14  C8  UNL     1      24.750   3.425  51.683  1.00  0.00    -0.004 C 
HETATM   15  C7  UNL     1      25.384   2.400  51.669  1.00  0.00    -0.077 C 
BRANCH  15  16
HETATM   16  C6  UNL     1      26.160   1.160  51.626  1.00  0.00     0.217 C 
BRANCH  16  17
HETATM   17  N1  UNL     1      27.095   1.012  52.695  1.00  0.00    -0.373 N 
HETATM   18  C2  UNL     1      27.284  -0.173  53.459  1.00  0.00     0.009 C 
HETATM   19  C1  UNL     1      26.994  -1.313  52.853  1.00  0.00     0.060 C 
HETATM   20  C3  UNL     1      27.784  -0.037  54.848  1.00  0.00     0.219 C 
HETATM   21  O1  UNL     1      28.557   1.095  55.024  1.00  0.00    -0.384 OA
HETATM   22  C4  UNL     1      29.090   1.538  53.828  1.00  0.00     0.188 C 
HETATM   23  C5  UNL     1      27.935   2.172  53.042  1.00  0.00     0.149 C 
ENDBRANCH  16  17
ENDBRANCH  15  16
ENDBRANCH  11  14
ENDBRANCH   1  10
BRANCH   1  24
HETATM   24  N3  UNL     1      23.855   7.646  51.493  1.00  0.00     0.135 N 
HETATM   25  H12 UNL     1      23.481   7.443  52.440  1.00  0.00     0.319 HD
HETATM   26  H13 UNL     1      24.888   7.506  51.544  1.00  0.00     0.319 HD
ENDBRANCH   1  24
BRANCH   8  27
HETATM   27  C15 UNL     1      25.606   7.654  48.383  1.00  0.00    -0.005 A 
HETATM   28  C16 UNL     1      26.267   8.858  48.684  1.00  0.00     0.017 A 
HETATM   29  C17 UNL     1      27.629   9.017  48.854  1.00  0.00     0.045 A 
HETATM   30  C18 UNL     1      28.427   7.920  48.723  1.00  0.00     0.138 A 
HETATM   31  F1  UNL     1      29.769   7.928  48.861  1.00  0.00    -0.204 F 
HETATM   32  C19 UNL     1      27.846   6.706  48.428  1.00  0.00     0.073 A 
HETATM   33 CL1  UNL     1      28.760   5.227  48.236  1.00  0.00    -0.081 Cl
HETATM   34  C20 UNL     1      26.486   6.603  48.270  1.00  0.00     0.041 A 
ENDBRANCH   8  27
TORSDOF 6
ENDMDL
MODEL 4
REMARK VINA RESULT:      -7.9      3.462      7.875
REMARK  6 active torsions:
REMARK  status: ('A' for Active; 'I' for Inactive)
REMARK    1  A    between atoms: N1_7  and  C6_8 
REMARK    2  A    between atoms: C6_8  and  C7_9 
REMARK    3  A    between atoms: C8_10  and  C9_11 
REMARK       I    between atoms: C9_11  and  N2_13 
REMARK    4  A    between atoms: N2_13  and  C10_14 
REMARK    5  A    between atoms: C10_14  and  N3_15 
REMARK    6  A    between atoms: C14_22  and  C15_23 
ROOT
HETATM    1  C10 UNL     1      26.913   1.952  53.154  1.00  0.00     0.360 A 
HETATM    2  N4  UNL     1      28.310   2.331  53.183  1.00  0.00    -0.235 NA
HETATM    3  C11 UNL     1      29.005   1.258  53.228  1.00  0.00     0.148 A 
HETATM    4  C12 UNL     1      28.249   0.016  53.233  1.00  0.00     0.090 A 
HETATM    5  N5  UNL     1      28.571  -1.267  53.259  1.00  0.00    -0.240 NA
HETATM    6  C13 UNL     1      27.584  -2.211  53.232  1.00  0.00     0.234 A 
HETATM    7  N6  UNL     1      26.311  -1.788  53.181  1.00  0.00    -0.240 NA
HETATM    8  C14 UNL     1      25.961  -0.488  53.154  1.00  0.00     0.083 A 
HETATM    9  C21 UNL     1      26.956   0.495  53.180  1.00  0.00     0.083 A 
ENDROOT
BRANCH   1  10
HETATM   10  N2  UNL     1      26.222   2.516  52.014  1.00  0.00    -0.293 N 
HETATM   11  C9  UNL     1      24.970   3.160  52.225  1.00  0.00     0.300 C 
HETATM   12  O2  UNL     1      24.479   3.234  53.389  1.00  0.00    -0.258 OA
HETATM   13  H11 UNL     1      26.709   2.403  51.097  1.00  0.00     0.168 HD
BRANCH  11  14
HETATM   14  C8  UNL     1      24.300   3.714  51.081  1.00  0.00    -0.004 C 
HETATM   15  C7  UNL     1      23.737   4.161  50.113  1.00  0.00    -0.077 C 
BRANCH  15  16
HETATM   16  C6  UNL     1      23.074   4.694  48.923  1.00  0.00     0.217 C 
BRANCH  16  17
HETATM   17  N1  UNL     1      21.753   4.197  48.710  1.00  0.00    -0.373 N 
HETATM   18  C2  UNL     1      21.403   3.173  47.786  1.00  0.00     0.009 C 
HETATM   19  C1  UNL     1      22.349   2.291  47.503  1.00  0.00     0.060 C 
HETATM   20  C3  UNL     1      20.030   3.176  47.227  1.00  0.00     0.219 C 
HETATM   21  O1  UNL     1      19.111   3.755  48.082  1.00  0.00    -0.384 OA
HETATM   22  C4  UNL     1      19.549   3.730  49.392  1.00  0.00     0.188 C 
HETATM   23  C5  UNL     1      20.659   4.784  49.503  1.00  0.00     0.149 C 
ENDBRANCH  16  17
ENDBRANCH  15  16
ENDBRANCH  11  14
ENDBRANCH   1  10
BRANCH   1  24
HETATM   24  N3  UNL     1      26.362   2.468  54.409  1.00  0.00     0.135 N 
HETATM   25  H12 UNL     1      25.766   3.299  54.233  1.00  0.00     0.319 HD
HETATM   26  H13 UNL     1      25.739   1.737  54.820  1.00  0.00     0.319 HD
ENDBRANCH   1  24
BRANCH   8  27
HETATM   27  C15 UNL     1      24.527  -0.282  53.063  1.00  0.00    -0.005 A 
HETATM   28  C16 UNL     1      23.817  -0.626  54.226  1.00  0.00     0.017 A 
HETATM   29  C17 UNL     1      22.450  -0.516  54.407  1.00  0.00     0.045 A 
HETATM   30  C18 UNL     1      21.702  -0.030  53.377  1.00  0.00     0.138 A 
HETATM   31  F1  UNL     1      20.363   0.132  53.413  1.00  0.00    -0.204 F 
HETATM   32  C19 UNL     1      22.334   0.328  52.206  1.00  0.00     0.073 A 
HETATM   33 CL1  UNL     1      21.486   0.964  50.815  1.00  0.00    -0.081 Cl
HETATM   34  C20 UNL     1      23.695   0.198  52.079  1.00  0.00     0.041 A 
ENDBRANCH   8  27
TORSDOF 6
ENDMDL
MODEL 5
REMARK VINA RESULT:      -7.8      3.970      8.491
REMARK  6 active torsions:
REMARK  status: ('A' for Active; 'I' for Inactive)
REMARK    1  A    between atoms: N1_7  and  C6_8 
REMARK    2  A    between atoms: C6_8  and  C7_9 
REMARK    3  A    between atoms: C8_10  and  C9_11 
REMARK       I    between atoms: C9_11  and  N2_13 
REMARK    4  A    between atoms: N2_13  and  C10_14 
REMARK    5  A    between atoms: C10_14  and  N3_15 
REMARK    6  A    between atoms: C14_22  and  C15_23 
ROOT
HETATM    1  C10 UNL     1      23.962   5.492  50.695  1.00  0.00     0.360 A 
HETATM    2  N4  UNL     1      23.714   6.790  50.104  1.00  0.00    -0.235 NA
HETATM    3  C11 UNL     1      24.681   7.047  49.308  1.00  0.00     0.148 A 
HETATM    4  C12 UNL     1      25.710   6.024  49.213  1.00  0.00     0.090 A 
HETATM    5  N5  UNL     1      26.831   5.895  48.521  1.00  0.00    -0.240 NA
HETATM    6  C13 UNL     1      27.579   4.760  48.654  1.00  0.00     0.234 A 
HETATM    7  N6  UNL     1      27.137   3.811  49.495  1.00  0.00    -0.240 NA
HETATM    8  C14 UNL     1      26.001   3.921  50.207  1.00  0.00     0.083 A 
HETATM    9  C21 UNL     1      25.220   5.075  50.086  1.00  0.00     0.083 A 
ENDROOT
BRANCH   1  10
HETATM   10  N2  UNL     1      22.858   4.581  50.485  1.00  0.00    -0.293 N 
HETATM   11  C9  UNL     1      21.570   4.944  50.970  1.00  0.00     0.300 C 
HETATM   12  O2  UNL     1      21.403   6.046  51.572  1.00  0.00    -0.258 OA
HETATM   13  H11 UNL     1      23.097   3.698  49.979  1.00  0.00     0.168 HD
BRANCH  11  14
HETATM   14  C8  UNL     1      20.486   4.026  50.752  1.00  0.00    -0.004 C 
HETATM   15  C7  UNL     1      19.578   3.259  50.551  1.00  0.00    -0.077 C 
BRANCH  15  16
HETATM   16  C6  UNL     1      18.463   2.348  50.293  1.00  0.00     0.217 C 
BRANCH  16  17
HETATM   17  N1  UNL     1      18.432   1.198  51.138  1.00  0.00    -0.373 N 
HETATM   18  C2  UNL     1      17.533   0.105  51.001  1.00  0.00     0.009 C 
HETATM   19  C1  UNL     1      17.075  -0.127  49.781  1.00  0.00     0.060 C 
HETATM   20  C3  UNL     1      17.188  -0.673  52.215  1.00  0.00     0.219 C 
HETATM   21  O1  UNL     1      18.194  -0.650  53.163  1.00  0.00    -0.384 OA
HETATM   22  C4  UNL     1      19.422  -0.365  52.595  1.00  0.00     0.188 C 
HETATM   23  C5  UNL     1      19.405   1.129  52.243  1.00  0.00     0.149 C 
ENDBRANCH  16  17
ENDBRANCH  15  16
ENDBRANCH  11  14
ENDBRANCH   1  10
BRANCH   1  24
HETATM   24  N3  UNL     1      24.153   5.764  52.121  1.00  0.00     0.135 N 
HETATM   25  H12 UNL     1      23.248   5.993  52.575  1.00  0.00     0.319 HD
HETATM   26  H13 UNL     1      24.503   4.893  52.579  1.00  0.00     0.319 HD
ENDBRANCH   1  24
BRANCH   8  27
HETATM   27  C15 UNL     1      25.716   2.751  51.018  1.00  0.00    -0.005 A 
HETATM   28  C16 UNL     1      26.855   2.129  51.559  1.00  0.00     0.017 A 
HETATM   29  C17 UNL     1      26.862   1.011  52.372  1.00  0.00     0.045 A 
HETATM   30  C18 UNL     1      25.666   0.442  52.693  1.00  0.00     0.138 A 
HETATM   31  F1  UNL     1      25.522  -0.649  53.475  1.00  0.00    -0.204 F 
HETATM   32  C19 UNL     1      24.508   1.001  52.198  1.00  0.00     0.073 A 
HETATM   33 CL1  UNL     1      22.915   0.365  52.539  1.00  0.00    -0.081 Cl
HETATM   34  C20 UNL     1      24.558   2.113  51.394  1.00  0.00     0.041 A 
ENDBRANCH   8  27
TORSDOF 6
ENDMDL
MODEL 6
REMARK VINA RESULT:      -7.7      4.342      6.434
REMARK  6 active torsions:
REMARK  status: ('A' for Active; 'I' for Inactive)
REMARK    1  A    between atoms: N1_7  and  C6_8 
REMARK    2  A    between atoms: C6_8  and  C7_9 
REMARK    3  A    between atoms: C8_10  and  C9_11 
REMARK       I    between atoms: C9_11  and  N2_13 
REMARK    4  A    between atoms: N2_13  and  C10_14 
REMARK    5  A    between atoms: C10_14  and  N3_15 
REMARK    6  A    between atoms: C14_22  and  C15_23 
ROOT
HETATM    1  C10 UNL     1      21.776   2.048  51.059  1.00  0.00     0.360 A 
HETATM    2  N4  UNL     1      20.415   2.441  50.763  1.00  0.00    -0.235 NA
HETATM    3  C11 UNL     1      19.660   1.947  51.668  1.00  0.00     0.148 A 
HETATM    4  C12 UNL     1      20.333   1.169  52.696  1.00  0.00     0.090 A 
HETATM    5  N5  UNL     1      19.936   0.521  53.780  1.00  0.00    -0.240 NA
HETATM    6  C13 UNL     1      20.859  -0.109  54.565  1.00  0.00     0.234 A 
HETATM    7  N6  UNL     1      22.149  -0.041  54.196  1.00  0.00    -0.240 NA
HETATM    8  C14 UNL     1      22.574   0.612  53.100  1.00  0.00     0.083 A 
HETATM    9  C21 UNL     1      21.645   1.264  52.281  1.00  0.00     0.083 A 
ENDROOT
BRANCH   1  10
HETATM   10  N2  UNL     1      22.660   3.189  51.165  1.00  0.00    -0.293 N 
HETATM   11  C9  UNL     1      22.972   3.924  49.986  1.00  0.00     0.300 C 
HETATM   12  O2  UNL     1      22.481   3.578  48.871  1.00  0.00    -0.258 OA
HETATM   13  H11 UNL     1      23.012   3.393  52.127  1.00  0.00     0.168 HD
BRANCH  11  14
HETATM   14  C8  UNL     1      23.851   5.053  50.112  1.00  0.00    -0.004 C 
HETATM   15  C7  UNL     1      24.581   6.004  50.235  1.00  0.00    -0.077 C 
BRANCH  15  16
HETATM   16  C6  UNL     1      25.447   7.173  50.390  1.00  0.00     0.217 C 
BRANCH  16  17
HETATM   17  N1  UNL     1      26.527   7.237  49.459  1.00  0.00    -0.373 N 
HETATM   18  C2  UNL     1      27.323   8.388  49.205  1.00  0.00     0.009 C 
HETATM   19  C1  UNL     1      27.436   9.253  50.201  1.00  0.00     0.060 C 
HETATM   20  C3  UNL     1      27.952   8.523  47.869  1.00  0.00     0.219 C 
HETATM   21  O1  UNL     1      28.198   7.300  47.275  1.00  0.00    -0.384 OA
HETATM   22  C4  UNL     1      28.282   6.286  48.210  1.00  0.00     0.188 C 
HETATM   23  C5  UNL     1      26.851   6.019  48.695  1.00  0.00     0.149 C 
ENDBRANCH  16  17
ENDBRANCH  15  16
ENDBRANCH  11  14
ENDBRANCH   1  10
BRANCH   1  24
HETATM   24  N3  UNL     1      22.166   1.186  49.941  1.00  0.00     0.135 N 
HETATM   25  H12 UNL     1      21.548   0.354  49.888  1.00  0.00     0.319 HD
HETATM   26  H13 UNL     1      22.028   1.717  49.052  1.00  0.00     0.319 HD
ENDBRANCH   1  24
BRANCH   8  27
HETATM   27  C15 UNL     1      24.016   0.573  52.931  1.00  0.00    -0.005 A 
HETATM   28  C16 UNL     1      24.614  -0.633  53.336  1.00  0.00     0.017 A 
HETATM   29  C17 UNL     1      25.962  -0.933  53.270  1.00  0.00     0.045 A 
HETATM   30  C18 UNL     1      26.808   0.011  52.770  1.00  0.00     0.138 A 
HETATM   31  F1  UNL     1      28.143  -0.144  52.648  1.00  0.00    -0.204 F 
HETATM   32  C19 UNL     1      26.289   1.217  52.354  1.00  0.00     0.073 A 
HETATM   33 CL1  UNL     1      27.269   2.507  51.694  1.00  0.00    -0.081 Cl
HETATM   34  C20 UNL     1      24.941   1.464  52.441  1.00  0.00     0.041 A 
ENDBRANCH   8  27
TORSDOF 6
ENDMDL
MODEL 7
REMARK VINA RESULT:      -7.6      4.495      9.106
REMARK  6 active torsions:
REMARK  status: ('A' for Active; 'I' for Inactive)
REMARK    1  A    between atoms: N1_7  and  C6_8 
REMARK    2  A    between atoms: C6_8  and  C7_9 
REMARK    3  A    between atoms: C8_10  and  C9_11 
REMARK       I    between atoms: C9_11  and  N2_13 
REMARK    4  A    between atoms: N2_13  and  C10_14 
REMARK    5  A    between atoms: C10_14  and  N3_15 
REMARK    6  A    between atoms: C14_22  and  C15_23 
ROOT
HETATM    1  C10 UNL     1      24.045   5.825  50.460  1.00  0.00     0.360 A 
HETATM    2  N4  UNL     1      23.910   7.156  49.909  1.00  0.00    -0.235 NA
HETATM    3  C11 UNL     1      24.935   7.382  49.179  1.00  0.00     0.148 A 
HETATM    4  C12 UNL     1      25.905   6.302  49.100  1.00  0.00     0.090 A 
HETATM    5  N5  UNL     1      27.054   6.129  48.467  1.00  0.00    -0.240 NA
HETATM    6  C13 UNL     1      27.724   4.945  48.595  1.00  0.00     0.234 A 
HETATM    7  N6  UNL     1      27.178   3.995  49.371  1.00  0.00    -0.240 NA
HETATM    8  C14 UNL     1      26.011   4.149  50.023  1.00  0.00     0.083 A 
HETATM    9  C21 UNL     1      25.308   5.354  49.905  1.00  0.00     0.083 A 
ENDROOT
BRANCH   1  10
HETATM   10  N2  UNL     1      22.902   4.992  50.153  1.00  0.00    -0.293 N 
HETATM   11  C9  UNL     1      21.616   5.401  50.607  1.00  0.00     0.300 C 
HETATM   12  O2  UNL     1      21.485   6.475  51.267  1.00  0.00    -0.258 OA
HETATM   13  H11 UNL     1      23.113   4.128  49.605  1.00  0.00     0.168 HD
BRANCH  11  14
HETATM   14  C8  UNL     1      20.494   4.562  50.292  1.00  0.00    -0.004 C 
HETATM   15  C7  UNL     1      19.563   3.842  50.032  1.00  0.00    -0.077 C 
BRANCH  15  16
HETATM   16  C6  UNL     1      18.448   2.955  49.698  1.00  0.00     0.217 C 
BRANCH  16  17
HETATM   17  N1  UNL     1      17.386   2.956  50.651  1.00  0.00    -0.373 N 
HETATM   18  C2  UNL     1      16.923   1.815  51.363  1.00  0.00     0.009 C 
HETATM   19  C1  UNL     1      17.808   0.851  51.563  1.00  0.00     0.060 C 
HETATM   20  C3  UNL     1      15.511   1.799  51.816  1.00  0.00     0.219 C 
HETATM   21  O1  UNL     1      15.012   3.069  52.037  1.00  0.00    -0.384 OA
HETATM   22  C4  UNL     1      16.023   3.979  52.276  1.00  0.00     0.188 C 
HETATM   23  C5  UNL     1      16.709   4.236  50.927  1.00  0.00     0.149 C 
ENDBRANCH  16  17
ENDBRANCH  15  16
ENDBRANCH  11  14
ENDBRANCH   1  10
BRANCH   1  24
HETATM   24  N3  UNL     1      24.169   6.031  51.905  1.00  0.00     0.135 N 
HETATM   25  H12 UNL     1      25.066   6.502  52.131  1.00  0.00     0.319 HD
HETATM   26  H13 UNL     1      23.408   6.677  52.212  1.00  0.00     0.319 HD
ENDBRANCH   1  24
BRANCH   8  27
HETATM   27  C15 UNL     1      25.610   2.970  50.768  1.00  0.00    -0.005 A 
HETATM   28  C16 UNL     1      26.679   2.222  51.290  1.00  0.00     0.017 A 
HETATM   29  C17 UNL     1      26.574   1.068  52.045  1.00  0.00     0.045 A 
HETATM   30  C18 UNL     1      25.326   0.593  52.322  1.00  0.00     0.138 A 
HETATM   31  F1  UNL     1      25.074  -0.518  53.044  1.00  0.00    -0.204 F 
HETATM   32  C19 UNL     1      24.231   1.277  51.841  1.00  0.00     0.073 A 
HETATM   33 CL1  UNL     1      22.582   0.770  52.129  1.00  0.00    -0.081 Cl
HETATM   34  C20 UNL     1      24.393   2.419  51.096  1.00  0.00     0.041 A 
ENDBRANCH   8  27
TORSDOF 6
ENDMDL
MODEL 8
REMARK VINA RESULT:      -7.6      3.868      8.599
REMARK  6 active torsions:
REMARK  status: ('A' for Active; 'I' for Inactive)
REMARK    1  A    between atoms: N1_7  and  C6_8 
REMARK    2  A    between atoms: C6_8  and  C7_9 
REMARK    3  A    between atoms: C8_10  and  C9_11 
REMARK       I    between atoms: C9_11  and  N2_13 
REMARK    4  A    between atoms: N2_13  and  C10_14 
REMARK    5  A    between atoms: C10_14  and  N3_15 
REMARK    6  A    between atoms: C14_22  and  C15_23 
ROOT
HETATM    1  C10 UNL     1      23.474   4.445  51.114  1.00  0.00     0.360 A 
HETATM    2  N4  UNL     1      22.979   5.668  50.518  1.00  0.00    -0.235 NA
HETATM    3  C11 UNL     1      23.877   6.103  49.718  1.00  0.00     0.148 A 
HETATM    4  C12 UNL     1      25.083   5.298  49.623  1.00  0.00     0.090 A 
HETATM    5  N5  UNL     1      26.206   5.384  48.928  1.00  0.00    -0.240 NA
HETATM    6  C13 UNL     1      27.159   4.415  49.063  1.00  0.00     0.234 A 
HETATM    7  N6  UNL     1      26.911   3.402  49.909  1.00  0.00    -0.240 NA
HETATM    8  C14 UNL     1      25.777   3.295  50.625  1.00  0.00     0.083 A 
HETATM    9  C21 UNL     1      24.787   4.276  50.501  1.00  0.00     0.083 A 
ENDROOT
BRANCH   1  10
HETATM   10  N2  UNL     1      22.566   3.337  50.912  1.00  0.00    -0.293 N 
HETATM   11  C9  UNL     1      21.313   3.349  51.587  1.00  0.00     0.300 C 
HETATM   12  O2  UNL     1      21.007   4.314  52.347  1.00  0.00    -0.258 OA
HETATM   13  H11 UNL     1      22.910   2.590  50.267  1.00  0.00     0.168 HD
BRANCH  11  14
HETATM   14  C8  UNL     1      20.425   2.239  51.373  1.00  0.00    -0.004 C 
HETATM   15  C7  UNL     1      19.678   1.307  51.213  1.00  0.00    -0.077 C 
BRANCH  15  16
HETATM   16  C6  UNL     1      18.787   0.160  51.034  1.00  0.00     0.217 C 
BRANCH  16  17
HETATM   17  N1  UNL     1      17.466   0.353  51.537  1.00  0.00    -0.373 N 
HETATM   18  C2  UNL     1      16.799  -0.517  52.444  1.00  0.00     0.009 C 
HETATM   19  C1  UNL     1      17.572  -1.222  53.254  1.00  0.00     0.060 C 
HETATM   20  C3  UNL     1      15.318  -0.561  52.408  1.00  0.00     0.219 C 
HETATM   21  O1  UNL     1      14.763   0.627  51.970  1.00  0.00    -0.384 OA
HETATM   22  C4  UNL     1      15.627   1.690  52.151  1.00  0.00     0.188 C 
HETATM   23  C5  UNL     1      16.725   1.546  51.089  1.00  0.00     0.149 C 
ENDBRANCH  16  17
ENDBRANCH  15  16
ENDBRANCH  11  14
ENDBRANCH   1  10
BRANCH   1  24
HETATM   24  N3  UNL     1      23.613   4.755  52.538  1.00  0.00     0.135 N 
HETATM   25  H12 UNL     1      22.683   4.915  52.971  1.00  0.00     0.319 HD
HETATM   26  H13 UNL     1      24.026   3.924  53.018  1.00  0.00     0.319 HD
ENDBRANCH   1  24
BRANCH   8  27
HETATM   27  C15 UNL     1      25.725   2.095  51.441  1.00  0.00    -0.005 A 
HETATM   28  C16 UNL     1      26.984   1.581  51.796  1.00  0.00     0.017 A 
HETATM   29  C17 UNL     1      27.215   0.461  52.574  1.00  0.00     0.045 A 
HETATM   30  C18 UNL     1      26.138  -0.223  53.053  1.00  0.00     0.138 A 
HETATM   31  F1  UNL     1      26.214  -1.329  53.821  1.00  0.00    -0.204 F 
HETATM   32  C19 UNL     1      24.873   0.226  52.743  1.00  0.00     0.073 A 
HETATM   33 CL1  UNL     1      23.414  -0.564  53.297  1.00  0.00    -0.081 Cl
HETATM   34  C20 UNL     1      24.700   1.345  51.966  1.00  0.00     0.041 A 
ENDBRANCH   8  27
TORSDOF 6
ENDMDL
MODEL 9
REMARK VINA RESULT:      -7.5      4.200      6.127
REMARK  6 active torsions:
REMARK  status: ('A' for Active; 'I' for Inactive)
REMARK    1  A    between atoms: N1_7  and  C6_8 
REMARK    2  A    between atoms: C6_8  and  C7_9 
REMARK    3  A    between atoms: C8_10  and  C9_11 
REMARK       I    between atoms: C9_11  and  N2_13 
REMARK    4  A    between atoms: N2_13  and  C10_14 
REMARK    5  A    between atoms: C10_14  and  N3_15 
REMARK    6  A    between atoms: C14_22  and  C15_23 
ROOT
HETATM    1  C10 UNL     1      25.137   6.043  49.891  1.00  0.00     0.360 A 
HETATM    2  N4  UNL     1      25.873   7.260  50.161  1.00  0.00    -0.235 NA
HETATM    3  C11 UNL     1      25.035   8.226  50.183  1.00  0.00     0.148 A 
HETATM    4  C12 UNL     1      23.647   7.863  49.948  1.00  0.00     0.090 A 
HETATM    5  N5  UNL     1      22.506   8.533  49.901  1.00  0.00    -0.240 NA
HETATM    6  C13 UNL     1      21.339   7.863  49.672  1.00  0.00     0.234 A 
HETATM    7  N6  UNL     1      21.401   6.532  49.500  1.00  0.00    -0.240 NA
HETATM    8  C14 UNL     1      22.549   5.832  49.543  1.00  0.00     0.083 A 
HETATM    9  C21 UNL     1      23.756   6.499  49.777  1.00  0.00     0.083 A 
ENDROOT
BRANCH   1  10
HETATM   10  N2  UNL     1      25.360   5.038  50.907  1.00  0.00    -0.293 N 
HETATM   11  C9  UNL     1      25.652   3.706  50.498  1.00  0.00     0.300 C 
HETATM   12  O2  UNL     1      25.714   3.416  49.267  1.00  0.00    -0.258 OA
HETATM   13  H11 UNL     1      25.287   5.376  51.893  1.00  0.00     0.168 HD
BRANCH  11  14
HETATM   14  C8  UNL     1      25.870   2.721  51.522  1.00  0.00    -0.004 C 
HETATM   15  C7  UNL     1      26.038   1.887  52.375  1.00  0.00    -0.077 C 
BRANCH  15  16
HETATM   16  C6  UNL     1      26.216   0.879  53.421  1.00  0.00     0.217 C 
BRANCH  16  17
HETATM   17  N1  UNL     1      27.488   0.231  53.405  1.00  0.00    -0.373 N 
HETATM   18  C2  UNL     1      27.719  -1.108  52.983  1.00  0.00     0.009 C 
HETATM   19  C1  UNL     1      26.869  -1.596  52.094  1.00  0.00     0.060 C 
HETATM   20  C3  UNL     1      28.875  -1.834  53.561  1.00  0.00     0.219 C 
HETATM   21  O1  UNL     1      29.897  -0.984  53.942  1.00  0.00    -0.384 OA
HETATM   22  C4  UNL     1      29.838   0.218  53.264  1.00  0.00     0.188 C 
HETATM   23  C5  UNL     1      28.659   0.999  53.861  1.00  0.00     0.149 C 
ENDBRANCH  16  17
ENDBRANCH  15  16
ENDBRANCH  11  14
ENDBRANCH   1  10
BRANCH   1  24
HETATM   24  N3  UNL     1      25.632   5.591  48.589  1.00  0.00     0.135 N 
HETATM   25  H12 UNL     1      24.860   5.190  48.023  1.00  0.00     0.319 HD
HETATM   26  H13 UNL     1      25.986   6.422  48.064  1.00  0.00     0.319 HD
ENDBRANCH   1  24
BRANCH   8  27
HETATM   27  C15 UNL     1      22.356   4.404  49.364  1.00  0.00    -0.005 A 
HETATM   28  C16 UNL     1      22.350   3.983  48.023  1.00  0.00     0.017 A 
HETATM   29  C17 UNL     1      22.198   2.682  47.580  1.00  0.00     0.045 A 
HETATM   30  C18 UNL     1      22.039   1.700  48.511  1.00  0.00     0.138 A 
HETATM   31  F1  UNL     1      21.880   0.391  48.223  1.00  0.00    -0.204 F 
HETATM   32  C19 UNL     1      22.035   2.041  49.846  1.00  0.00     0.073 A 
HETATM   33 CL1  UNL     1      21.841   0.874  51.133  1.00  0.00    -0.081 Cl
HETATM   34  C20 UNL     1      22.191   3.350  50.232  1.00  0.00     0.041 A 
ENDBRANCH   8  27
TORSDOF 6
ENDMDL
