MODEL 1
REMARK VINA RESULT:      -9.3      0.000      0.000
REMARK  6 active torsions:
REMARK  status: ('A' for Active; 'I' for Inactive)
REMARK    1  A    between atoms: C4_6  and  N3_7 
REMARK    2  A    between atoms: N3_7  and  C5_8 
REMARK    3  A    between atoms: C13_17  and  C14_18 
REMARK    4  A    between atoms: C14_18  and  C15_19 
REMARK    5  A    between atoms: C19_25  and  O3_26 
REMARK    6  A    between atoms: O3_26  and  C20_27 
ROOT
HETATM    1  C5  UNL     1      25.991   0.040  53.008  1.00  0.00     0.035 A 
HETATM    2  C6  UNL     1      26.429  -1.221  52.628  1.00  0.00     0.030 A 
HETATM    3  C7  UNL     1      27.745  -1.551  52.886  1.00  0.00     0.010 A 
HETATM    4  C8  UNL     1      28.662  -0.725  53.492  1.00  0.00    -0.041 A 
HETATM    5  C9  UNL     1      30.063  -1.117  53.762  1.00  0.00     0.049 C 
HETATM    6  C10 UNL     1      28.213   0.525  53.862  1.00  0.00     0.052 A 
HETATM    7  C11 UNL     1      29.058   1.501  54.508  1.00  0.00     0.100 C 
HETATM    8  N4  UNL     1      29.749   2.274  55.015  1.00  0.00    -0.191 NA
HETATM    9  C12 UNL     1      26.903   0.874  53.614  1.00  0.00     0.052 A 
ENDROOT
BRANCH   1  10
HETATM   10  N3  UNL     1      24.650   0.471  52.809  1.00  0.00    -0.340 N 
HETATM   11  H4  UNL     1      24.450   1.249  52.178  1.00  0.00     0.167 HD
BRANCH  10  12
HETATM   12  C4  UNL     1      23.557  -0.152  53.469  1.00  0.00     0.141 A 
HETATM   13  N2  UNL     1      24.015  -0.786  54.557  1.00  0.00    -0.224 NA
HETATM   14  C3  UNL     1      23.176  -1.463  55.385  1.00  0.00     0.235 A 
HETATM   15  N1  UNL     1      21.872  -1.464  55.061  1.00  0.00    -0.245 NA
HETATM   16  C2  UNL     1      21.448  -0.814  53.960  1.00  0.00     0.050 A 
HETATM   17  C1  UNL     1      20.129  -0.858  53.753  1.00  0.00     0.066 C 
HETATM   18  C13 UNL     1      22.240  -0.122  53.094  1.00  0.00     0.034 A 
BRANCH  18  19
HETATM   19  C14 UNL     1      21.880   0.503  52.019  1.00  0.00     0.029 C 
BRANCH  19  20
HETATM   20  C15 UNL     1      21.335   1.839  51.719  1.00  0.00     0.204 C 
HETATM   21  O1  UNL     1      20.134   1.681  51.029  1.00  0.00    -0.373 OA
HETATM   22  C16 UNL     1      19.960   2.668  50.065  1.00  0.00     0.195 C 
HETATM   23  C17 UNL     1      20.309   4.045  50.630  1.00  0.00     0.201 C 
HETATM   24  O2  UNL     1      21.733   3.986  50.777  1.00  0.00    -0.348 OA
HETATM   25  C18 UNL     1      22.288   2.695  50.933  1.00  0.00     0.100 C 
HETATM   26  C19 UNL     1      23.495   2.508  50.371  1.00  0.00     0.170 C 
BRANCH  26  27
HETATM   27  O3  UNL     1      24.291   3.400  49.654  1.00  0.00    -0.356 OA
BRANCH  27  28
HETATM   28  C20 UNL     1      25.461   3.972  50.216  1.00  0.00     0.119 C 
HETATM   29  C21 UNL     1      26.377   2.822  50.576  1.00  0.00     0.039 C 
HETATM   30  C22 UNL     1      26.222   4.778  49.160  1.00  0.00     0.039 C 
ENDBRANCH  27  28
ENDBRANCH  26  27
ENDBRANCH  19  20
ENDBRANCH  18  19
ENDBRANCH  10  12
ENDBRANCH   1  10
TORSDOF 6
ENDMDL
MODEL 2
REMARK VINA RESULT:      -8.7      1.632      3.692
REMARK  6 active torsions:
REMARK  status: ('A' for Active; 'I' for Inactive)
REMARK    1  A    between atoms: C4_6  and  N3_7 
REMARK    2  A    between atoms: N3_7  and  C5_8 
REMARK    3  A    between atoms: C13_17  and  C14_18 
REMARK    4  A    between atoms: C14_18  and  C15_19 
REMARK    5  A    between atoms: C19_25  and  O3_26 
REMARK    6  A    between atoms: O3_26  and  C20_27 
ROOT
HETATM    1  C5  UNL     1      25.816   0.287  53.164  1.00  0.00     0.035 A 
HETATM    2  C6  UNL     1      26.181  -0.968  52.698  1.00  0.00     0.030 A 
HETATM    3  C7  UNL     1      27.498  -1.353  52.850  1.00  0.00     0.010 A 
HETATM    4  C8  UNL     1      28.484  -0.588  53.429  1.00  0.00    -0.041 A 
HETATM    5  C9  UNL     1      29.884  -1.039  53.585  1.00  0.00     0.049 C 
HETATM    6  C10 UNL     1      28.105   0.657  53.886  1.00  0.00     0.052 A 
HETATM    7  C11 UNL     1      29.026   1.572  54.517  1.00  0.00     0.100 C 
HETATM    8  N4  UNL     1      29.778   2.296  55.010  1.00  0.00    -0.191 NA
HETATM    9  C12 UNL     1      26.796   1.060  53.744  1.00  0.00     0.052 A 
ENDROOT
BRANCH   1  10
HETATM   10  N3  UNL     1      24.480   0.772  53.077  1.00  0.00    -0.340 N 
HETATM   11  H4  UNL     1      24.289   1.670  52.630  1.00  0.00     0.167 HD
BRANCH  10  12
HETATM   12  C4  UNL     1      23.382   0.039  53.600  1.00  0.00     0.141 A 
HETATM   13  N2  UNL     1      23.828  -0.775  54.567  1.00  0.00    -0.224 NA
HETATM   14  C3  UNL     1      22.981  -1.590  55.250  1.00  0.00     0.235 A 
HETATM   15  N1  UNL     1      21.682  -1.538  54.911  1.00  0.00    -0.245 NA
HETATM   16  C2  UNL     1      21.270  -0.707  53.935  1.00  0.00     0.050 A 
HETATM   17  C1  UNL     1      19.955  -0.718  53.702  1.00  0.00     0.066 C 
HETATM   18  C13 UNL     1      22.070   0.129  53.216  1.00  0.00     0.034 A 
BRANCH  18  19
HETATM   19  C14 UNL     1      21.723   0.932  52.262  1.00  0.00     0.029 C 
BRANCH  19  20
HETATM   20  C15 UNL     1      21.941   0.982  50.805  1.00  0.00     0.204 C 
HETATM   21  O1  UNL     1      22.857   1.997  50.531  1.00  0.00    -0.373 OA
HETATM   22  C16 UNL     1      22.561   2.651  49.341  1.00  0.00     0.195 C 
HETATM   23  C17 UNL     1      22.225   1.645  48.239  1.00  0.00     0.201 C 
HETATM   24  O2  UNL     1      20.952   1.128  48.647  1.00  0.00    -0.348 OA
HETATM   25  C18 UNL     1      20.671   1.194  50.030  1.00  0.00     0.100 C 
HETATM   26  C19 UNL     1      19.385   1.423  50.353  1.00  0.00     0.170 C 
BRANCH  26  27
HETATM   27  O3  UNL     1      18.279   1.606  49.525  1.00  0.00    -0.356 OA
BRANCH  27  28
HETATM   28  C20 UNL     1      17.075   0.881  49.720  1.00  0.00     0.119 C 
HETATM   29  C21 UNL     1      17.354  -0.141  50.801  1.00  0.00     0.039 C 
HETATM   30  C22 UNL     1      15.990   1.793  50.297  1.00  0.00     0.039 C 
ENDBRANCH  27  28
ENDBRANCH  26  27
ENDBRANCH  19  20
ENDBRANCH  18  19
ENDBRANCH  10  12
ENDBRANCH   1  10
TORSDOF 6
ENDMDL
MODEL 3
REMARK VINA RESULT:      -8.7      2.396      5.673
REMARK  6 active torsions:
REMARK  status: ('A' for Active; 'I' for Inactive)
REMARK    1  A    between atoms: C4_6  and  N3_7 
REMARK    2  A    between atoms: N3_7  and  C5_8 
REMARK    3  A    between atoms: C13_17  and  C14_18 
REMARK    4  A    between atoms: C14_18  and  C15_19 
REMARK    5  A    between atoms: C19_25  and  O3_26 
REMARK    6  A    between atoms: O3_26  and  C20_27 
ROOT
HETATM    1  C5  UNL     1      25.958   3.495  50.224  1.00  0.00     0.035 A 
HETATM    2  C6  UNL     1      26.943   3.705  49.269  1.00  0.00     0.030 A 
HETATM    3  C7  UNL     1      27.095   4.984  48.772  1.00  0.00     0.010 A 
HETATM    4  C8  UNL     1      26.344   6.073  49.147  1.00  0.00    -0.041 A 
HETATM    5  C9  UNL     1      26.543   7.433  48.599  1.00  0.00     0.049 C 
HETATM    6  C10 UNL     1      25.368   5.848  50.096  1.00  0.00     0.052 A 
HETATM    7  C11 UNL     1      24.503   6.892  50.590  1.00  0.00     0.100 C 
HETATM    8  N4  UNL     1      23.811   7.736  50.967  1.00  0.00    -0.191 NA
HETATM    9  C12 UNL     1      25.200   4.580  50.606  1.00  0.00     0.052 A 
ENDROOT
BRANCH   1  10
HETATM   10  N3  UNL     1      25.733   2.222  50.818  1.00  0.00    -0.340 N 
HETATM   11  H4  UNL     1      25.123   1.543  50.360  1.00  0.00     0.167 HD
BRANCH  10  12
HETATM   12  C4  UNL     1      26.336   1.853  52.050  1.00  0.00     0.141 A 
HETATM   13  N2  UNL     1      27.516   2.479  52.157  1.00  0.00    -0.224 NA
HETATM   14  C3  UNL     1      28.307   2.313  53.250  1.00  0.00     0.235 A 
HETATM   15  N1  UNL     1      27.849   1.496  54.213  1.00  0.00    -0.245 NA
HETATM   16  C2  UNL     1      26.658   0.884  54.071  1.00  0.00     0.050 A 
HETATM   17  C1  UNL     1      26.291   0.118  55.103  1.00  0.00     0.066 C 
HETATM   18  C13 UNL     1      25.825   1.010  53.001  1.00  0.00     0.034 A 
BRANCH  18  19
HETATM   19  C14 UNL     1      24.682   0.432  52.815  1.00  0.00     0.029 C 
BRANCH  19  20
HETATM   20  C15 UNL     1      23.325   0.593  53.370  1.00  0.00     0.204 C 
HETATM   21  O1  UNL     1      22.948  -0.609  53.969  1.00  0.00    -0.373 OA
HETATM   22  C16 UNL     1      21.592  -0.866  53.799  1.00  0.00     0.195 C 
HETATM   23  C17 UNL     1      20.764   0.389  54.079  1.00  0.00     0.201 C 
HETATM   24  O2  UNL     1      21.072   1.238  52.967  1.00  0.00    -0.348 OA
HETATM   25  C18 UNL     1      22.317   1.008  52.337  1.00  0.00     0.100 C 
HETATM   26  C19 UNL     1      22.339   1.198  51.005  1.00  0.00     0.170 C 
BRANCH  26  27
HETATM   27  O3  UNL     1      21.316   1.591  50.145  1.00  0.00    -0.356 OA
BRANCH  27  28
HETATM   28  C20 UNL     1      21.462   2.698  49.270  1.00  0.00     0.119 C 
HETATM   29  C21 UNL     1      21.577   3.930  50.143  1.00  0.00     0.039 C 
HETATM   30  C22 UNL     1      22.793   2.612  48.517  1.00  0.00     0.039 C 
ENDBRANCH  27  28
ENDBRANCH  26  27
ENDBRANCH  19  20
ENDBRANCH  18  19
ENDBRANCH  10  12
ENDBRANCH   1  10
TORSDOF 6
ENDMDL
MODEL 4
REMARK VINA RESULT:      -8.5      2.003      4.732
REMARK  6 active torsions:
REMARK  status: ('A' for Active; 'I' for Inactive)
REMARK    1  A    between atoms: C4_6  and  N3_7 
REMARK    2  A    between atoms: N3_7  and  C5_8 
REMARK    3  A    between atoms: C13_17  and  C14_18 
REMARK    4  A    between atoms: C14_18  and  C15_19 
REMARK    5  A    between atoms: C19_25  and  O3_26 
REMARK    6  A    between atoms: O3_26  and  C20_27 
ROOT
HETATM    1  C5  UNL     1      25.664   1.822  52.541  1.00  0.00     0.035 A 
HETATM    2  C6  UNL     1      25.640   0.529  52.037  1.00  0.00     0.030 A 
HETATM    3  C7  UNL     1      26.708  -0.296  52.328  1.00  0.00     0.010 A 
HETATM    4  C8  UNL     1      27.801   0.062  53.082  1.00  0.00    -0.041 A 
HETATM    5  C9  UNL     1      28.924  -0.853  53.382  1.00  0.00     0.049 C 
HETATM    6  C10 UNL     1      27.811   1.351  53.575  1.00  0.00     0.052 A 
HETATM    7  C11 UNL     1      28.889   1.871  54.382  1.00  0.00     0.100 C 
HETATM    8  N4  UNL     1      29.763   2.275  55.018  1.00  0.00    -0.191 NA
HETATM    9  C12 UNL     1      26.755   2.190  53.296  1.00  0.00     0.052 A 
ENDROOT
BRANCH   1  10
HETATM   10  N3  UNL     1      24.604   2.745  52.319  1.00  0.00    -0.340 N 
HETATM   11  H4  UNL     1      24.015   3.045  53.097  1.00  0.00     0.167 HD
BRANCH  10  12
HETATM   12  C4  UNL     1      24.329   3.274  51.031  1.00  0.00     0.141 A 
HETATM   13  N2  UNL     1      25.175   4.285  50.789  1.00  0.00    -0.224 NA
HETATM   14  C3  UNL     1      25.140   4.970  49.616  1.00  0.00     0.235 A 
HETATM   15  N1  UNL     1      24.221   4.586  48.714  1.00  0.00    -0.245 NA
HETATM   16  C2  UNL     1      23.387   3.565  48.991  1.00  0.00     0.050 A 
HETATM   17  C1  UNL     1      22.535   3.251  48.012  1.00  0.00     0.066 C 
HETATM   18  C13 UNL     1      23.374   2.844  50.147  1.00  0.00     0.034 A 
BRANCH  18  19
HETATM   19  C14 UNL     1      22.585   1.868  50.462  1.00  0.00     0.029 C 
BRANCH  19  20
HETATM   20  C15 UNL     1      21.158   1.748  50.815  1.00  0.00     0.204 C 
HETATM   21  O1  UNL     1      20.564   3.002  50.686  1.00  0.00    -0.373 OA
HETATM   22  C16 UNL     1      19.593   3.215  51.657  1.00  0.00     0.195 C 
HETATM   23  C17 UNL     1      18.695   1.986  51.804  1.00  0.00     0.201 C 
HETATM   24  O2  UNL     1      19.559   1.022  52.418  1.00  0.00    -0.348 OA
HETATM   25  C18 UNL     1      20.943   1.201  52.198  1.00  0.00     0.100 C 
HETATM   26  C19 UNL     1      21.744   0.862  53.224  1.00  0.00     0.170 C 
BRANCH  26  27
HETATM   27  O3  UNL     1      21.415   0.356  54.481  1.00  0.00    -0.356 OA
BRANCH  27  28
HETATM   28  C20 UNL     1      21.977  -0.852  54.968  1.00  0.00     0.119 C 
HETATM   29  C21 UNL     1      21.332  -1.977  54.185  1.00  0.00     0.039 C 
HETATM   30  C22 UNL     1      23.467  -0.925  54.626  1.00  0.00     0.039 C 
ENDBRANCH  27  28
ENDBRANCH  26  27
ENDBRANCH  19  20
ENDBRANCH  18  19
ENDBRANCH  10  12
ENDBRANCH   1  10
TORSDOF 6
ENDMDL
MODEL 5
REMARK VINA RESULT:      -8.5      2.940      5.638
REMARK  6 active torsions:
REMARK  status: ('A' for Active; 'I' for Inactive)
REMARK    1  A    between atoms: C4_6  and  N3_7 
REMARK    2  A    between atoms: N3_7  and  C5_8 
REMARK    3  A    between atoms: C13_17  and  C14_18 
REMARK    4  A    between atoms: C14_18  and  C15_19 
REMARK    5  A    between atoms: C19_25  and  O3_26 
REMARK    6  A    between atoms: O3_26  and  C20_27 
ROOT
HETATM    1  C5  UNL     1      24.225   3.932  50.878  1.00  0.00     0.035 A 
HETATM    2  C6  UNL     1      25.015   2.925  50.341  1.00  0.00     0.030 A 
HETATM    3  C7  UNL     1      26.119   3.299  49.600  1.00  0.00     0.010 A 
HETATM    4  C8  UNL     1      26.500   4.596  49.349  1.00  0.00    -0.041 A 
HETATM    5  C9  UNL     1      27.696   4.960  48.558  1.00  0.00     0.049 C 
HETATM    6  C10 UNL     1      25.704   5.586  49.889  1.00  0.00     0.052 A 
HETATM    7  C11 UNL     1      25.977   6.992  49.713  1.00  0.00     0.100 C 
HETATM    8  N4  UNL     1      26.203   8.113  49.554  1.00  0.00    -0.191 NA
HETATM    9  C12 UNL     1      24.598   5.234  50.631  1.00  0.00     0.052 A 
ENDROOT
BRANCH   1  10
HETATM   10  N3  UNL     1      23.079   3.656  51.676  1.00  0.00    -0.340 N 
HETATM   11  H4  UNL     1      23.146   3.682  52.694  1.00  0.00     0.167 HD
BRANCH  10  12
HETATM   12  C4  UNL     1      21.822   3.337  51.097  1.00  0.00     0.141 A 
HETATM   13  N2  UNL     1      21.194   4.476  50.776  1.00  0.00    -0.224 NA
HETATM   14  C3  UNL     1      19.966   4.465  50.193  1.00  0.00     0.235 A 
HETATM   15  N1  UNL     1      19.418   3.262  49.953  1.00  0.00    -0.245 NA
HETATM   16  C2  UNL     1      20.079   2.138  50.288  1.00  0.00     0.050 A 
HETATM   17  C1  UNL     1      19.452   1.000  49.978  1.00  0.00     0.066 C 
HETATM   18  C13 UNL     1      21.307   2.087  50.875  1.00  0.00     0.034 A 
BRANCH  18  19
HETATM   19  C14 UNL     1      21.973   1.034  51.227  1.00  0.00     0.029 C 
BRANCH  19  20
HETATM   20  C15 UNL     1      21.906   0.080  52.350  1.00  0.00     0.204 C 
HETATM   21  O1  UNL     1      20.829   0.431  53.163  1.00  0.00    -0.373 OA
HETATM   22  C16 UNL     1      21.105   0.208  54.508  1.00  0.00     0.195 C 
HETATM   23  C17 UNL     1      21.764  -1.158  54.705  1.00  0.00     0.201 C 
HETATM   24  O2  UNL     1      23.066  -0.978  54.135  1.00  0.00    -0.348 OA
HETATM   25  C18 UNL     1      23.178   0.028  53.149  1.00  0.00     0.100 C 
HETATM   26  C19 UNL     1      24.343   0.699  53.131  1.00  0.00     0.170 C 
BRANCH  26  27
HETATM   27  O3  UNL     1      25.467   0.553  53.941  1.00  0.00    -0.356 OA
BRANCH  27  28
HETATM   28  C20 UNL     1      26.779   0.552  53.402  1.00  0.00     0.119 C 
HETATM   29  C21 UNL     1      26.681  -0.063  52.022  1.00  0.00     0.039 C 
HETATM   30  C22 UNL     1      27.263   1.986  53.172  1.00  0.00     0.039 C 
ENDBRANCH  27  28
ENDBRANCH  26  27
ENDBRANCH  19  20
ENDBRANCH  18  19
ENDBRANCH  10  12
ENDBRANCH   1  10
TORSDOF 6
ENDMDL
MODEL 6
REMARK VINA RESULT:      -8.4      2.492      5.425
REMARK  6 active torsions:
REMARK  status: ('A' for Active; 'I' for Inactive)
REMARK    1  A    between atoms: C4_6  and  N3_7 
REMARK    2  A    between atoms: N3_7  and  C5_8 
REMARK    3  A    between atoms: C13_17  and  C14_18 
REMARK    4  A    between atoms: C14_18  and  C15_19 
REMARK    5  A    between atoms: C19_25  and  O3_26 
REMARK    6  A    between atoms: O3_26  and  C20_27 
ROOT
HETATM    1  C5  UNL     1      26.228   1.698  53.076  1.00  0.00     0.035 A 
HETATM    2  C6  UNL     1      27.346   2.404  53.498  1.00  0.00     0.030 A 
HETATM    3  C7  UNL     1      28.522   1.702  53.675  1.00  0.00     0.010 A 
HETATM    4  C8  UNL     1      28.676   0.352  53.466  1.00  0.00    -0.041 A 
HETATM    5  C9  UNL     1      29.956  -0.365  53.656  1.00  0.00     0.049 C 
HETATM    6  C10 UNL     1      27.556  -0.336  53.048  1.00  0.00     0.052 A 
HETATM    7  C11 UNL     1      27.563  -1.756  52.786  1.00  0.00     0.100 C 
HETATM    8  N4  UNL     1      27.582  -2.893  52.591  1.00  0.00    -0.191 NA
HETATM    9  C12 UNL     1      26.373   0.345  52.865  1.00  0.00     0.052 A 
ENDROOT
BRANCH   1  10
HETATM   10  N3  UNL     1      24.974   2.328  52.842  1.00  0.00    -0.340 N 
HETATM   11  H4  UNL     1      24.349   2.531  53.623  1.00  0.00     0.167 HD
BRANCH  10  12
HETATM   12  C4  UNL     1      24.551   2.691  51.536  1.00  0.00     0.141 A 
HETATM   13  N2  UNL     1      25.347   3.668  51.080  1.00  0.00    -0.224 NA
HETATM   14  C3  UNL     1      25.172   4.202  49.843  1.00  0.00     0.235 A 
HETATM   15  N1  UNL     1      24.169   3.704  49.102  1.00  0.00    -0.245 NA
HETATM   16  C2  UNL     1      23.389   2.721  49.592  1.00  0.00     0.050 A 
HETATM   17  C1  UNL     1      22.442   2.284  48.758  1.00  0.00     0.066 C 
HETATM   18  C13 UNL     1      23.514   2.150  50.822  1.00  0.00     0.034 A 
BRANCH  18  19
HETATM   19  C14 UNL     1      22.782   1.216  51.340  1.00  0.00     0.029 C 
BRANCH  19  20
HETATM   20  C15 UNL     1      22.367   0.848  52.706  1.00  0.00     0.204 C 
HETATM   21  O1  UNL     1      23.068  -0.295  53.086  1.00  0.00    -0.373 OA
HETATM   22  C16 UNL     1      22.290  -1.141  53.869  1.00  0.00     0.195 C 
HETATM   23  C17 UNL     1      21.536  -0.348  54.937  1.00  0.00     0.201 C 
HETATM   24  O2  UNL     1      20.561   0.378  54.179  1.00  0.00    -0.348 OA
HETATM   25  C18 UNL     1      20.886   0.625  52.826  1.00  0.00     0.100 C 
HETATM   26  C19 UNL     1      19.852   0.608  51.966  1.00  0.00     0.170 C 
BRANCH  26  27
HETATM   27  O3  UNL     1      18.497   0.384  52.207  1.00  0.00    -0.356 OA
BRANCH  27  28
HETATM   28  C20 UNL     1      17.731  -0.492  51.396  1.00  0.00     0.119 C 
HETATM   29  C21 UNL     1      16.391  -0.657  52.081  1.00  0.00     0.039 C 
HETATM   30  C22 UNL     1      17.418   0.164  50.049  1.00  0.00     0.039 C 
ENDBRANCH  27  28
ENDBRANCH  26  27
ENDBRANCH  19  20
ENDBRANCH  18  19
ENDBRANCH  10  12
ENDBRANCH   1  10
TORSDOF 6
ENDMDL
MODEL 7
REMARK VINA RESULT:      -8.3      1.465      1.947
REMARK  6 active torsions:
REMARK  status: ('A' for Active; 'I' for Inactive)
REMARK    1  A    between atoms: C4_6  and  N3_7 
REMARK    2  A    between atoms: N3_7  and  C5_8 
REMARK    3  A    between atoms: C13_17  and  C14_18 
REMARK    4  A    between atoms: C14_18  and  C15_19 
REMARK    5  A    between atoms: C19_25  and  O3_26 
REMARK    6  A    between atoms: O3_26  and  C20_27 
ROOT
HETATM    1  C5  UNL     1      25.340   0.675  52.796  1.00  0.00     0.035 A 
HETATM    2  C6  UNL     1      25.976   1.850  53.171  1.00  0.00     0.030 A 
HETATM    3  C7  UNL     1      27.309   1.776  53.524  1.00  0.00     0.010 A 
HETATM    4  C8  UNL     1      28.061   0.625  53.536  1.00  0.00    -0.041 A 
HETATM    5  C9  UNL     1      29.492   0.585  53.912  1.00  0.00     0.049 C 
HETATM    6  C10 UNL     1      27.414  -0.535  53.163  1.00  0.00     0.052 A 
HETATM    7  C11 UNL     1      28.071  -1.819  53.125  1.00  0.00     0.100 C 
HETATM    8  N4  UNL     1      28.608  -2.841  53.110  1.00  0.00    -0.191 NA
HETATM    9  C12 UNL     1      26.085  -0.482  52.806  1.00  0.00     0.052 A 
ENDROOT
BRANCH   1  10
HETATM   10  N3  UNL     1      23.976   0.645  52.392  1.00  0.00    -0.340 N 
HETATM   11  H4  UNL     1      23.682   1.130  51.543  1.00  0.00     0.167 HD
BRANCH  10  12
HETATM   12  C4  UNL     1      22.988  -0.049  53.140  1.00  0.00     0.141 A 
HETATM   13  N2  UNL     1      23.552  -0.533  54.255  1.00  0.00    -0.224 NA
HETATM   14  C3  UNL     1      22.828  -1.237  55.165  1.00  0.00     0.235 A 
HETATM   15  N1  UNL     1      21.525  -1.420  54.894  1.00  0.00    -0.245 NA
HETATM   16  C2  UNL     1      20.992  -0.917  53.764  1.00  0.00     0.050 A 
HETATM   17  C1  UNL     1      19.683  -1.136  53.612  1.00  0.00     0.066 C 
HETATM   18  C13 UNL     1      21.667  -0.208  52.816  1.00  0.00     0.034 A 
BRANCH  18  19
HETATM   19  C14 UNL     1      21.201   0.280  51.712  1.00  0.00     0.029 C 
BRANCH  19  20
HETATM   20  C15 UNL     1      20.373   1.445  51.349  1.00  0.00     0.204 C 
HETATM   21  O1  UNL     1      19.286   0.998  50.600  1.00  0.00    -0.373 OA
HETATM   22  C16 UNL     1      18.939   1.903  49.604  1.00  0.00     0.195 C 
HETATM   23  C17 UNL     1      18.919   3.330  50.152  1.00  0.00     0.201 C 
HETATM   24  O2  UNL     1      20.306   3.614  50.376  1.00  0.00    -0.348 OA
HETATM   25  C18 UNL     1      21.140   2.494  50.594  1.00  0.00     0.100 C 
HETATM   26  C19 UNL     1      22.388   2.593  50.102  1.00  0.00     0.170 C 
BRANCH  26  27
HETATM   27  O3  UNL     1      22.990   3.639  49.406  1.00  0.00    -0.356 OA
BRANCH  27  28
HETATM   28  C20 UNL     1      24.192   4.242  49.859  1.00  0.00     0.119 C 
HETATM   29  C21 UNL     1      24.016   4.497  51.342  1.00  0.00     0.039 C 
HETATM   30  C22 UNL     1      25.357   3.255  49.755  1.00  0.00     0.039 C 
ENDBRANCH  27  28
ENDBRANCH  26  27
ENDBRANCH  19  20
ENDBRANCH  18  19
ENDBRANCH  10  12
ENDBRANCH   1  10
TORSDOF 6
ENDMDL
MODEL 8
REMARK VINA RESULT:      -8.1      3.148      6.795
REMARK  6 active torsions:
REMARK  status: ('A' for Active; 'I' for Inactive)
REMARK    1  A    between atoms: C4_6  and  N3_7 
REMARK    2  A    between atoms: N3_7  and  C5_8 
REMARK    3  A    between atoms: C13_17  and  C14_18 
REMARK    4  A    between atoms: C14_18  and  C15_19 
REMARK    5  A    between atoms: C19_25  and  O3_26 
REMARK    6  A    between atoms: O3_26  and  C20_27 
ROOT
HETATM    1  C5  UNL     1      25.583   4.512  49.079  1.00  0.00     0.035 A 
HETATM    2  C6  UNL     1      24.934   5.719  48.864  1.00  0.00     0.030 A 
HETATM    3  C7  UNL     1      25.700   6.802  48.477  1.00  0.00     0.010 A 
HETATM    4  C8  UNL     1      27.061   6.779  48.287  1.00  0.00    -0.041 A 
HETATM    5  C9  UNL     1      27.848   7.958  47.861  1.00  0.00     0.049 C 
HETATM    6  C10 UNL     1      27.692   5.572  48.505  1.00  0.00     0.052 A 
HETATM    7  C11 UNL     1      29.115   5.392  48.345  1.00  0.00     0.100 C 
HETATM    8  N4  UNL     1      30.256   5.268  48.222  1.00  0.00    -0.191 NA
HETATM    9  C12 UNL     1      26.946   4.480  48.892  1.00  0.00     0.052 A 
ENDROOT
BRANCH   1  10
HETATM   10  N3  UNL     1      24.885   3.330  49.458  1.00  0.00    -0.340 N 
HETATM   11  H4  UNL     1      25.364   2.428  49.450  1.00  0.00     0.167 HD
BRANCH  10  12
HETATM   12  C4  UNL     1      23.522   3.360  49.852  1.00  0.00     0.141 A 
HETATM   13  N2  UNL     1      22.754   3.221  48.762  1.00  0.00    -0.224 NA
HETATM   14  C3  UNL     1      21.398   3.205  48.851  1.00  0.00     0.235 A 
HETATM   15  N1  UNL     1      20.867   3.332  50.078  1.00  0.00    -0.245 NA
HETATM   16  C2  UNL     1      21.670   3.468  51.152  1.00  0.00     0.050 A 
HETATM   17  C1  UNL     1      21.035   3.558  52.323  1.00  0.00     0.066 C 
HETATM   18  C13 UNL     1      23.032   3.494  51.124  1.00  0.00     0.034 A 
BRANCH  18  19
HETATM   19  C14 UNL     1      23.841   3.637  52.124  1.00  0.00     0.029 C 
BRANCH  19  20
HETATM   20  C15 UNL     1      24.838   2.782  52.795  1.00  0.00     0.204 C 
HETATM   21  O1  UNL     1      25.949   2.663  51.961  1.00  0.00    -0.373 OA
HETATM   22  C16 UNL     1      26.520   1.398  52.039  1.00  0.00     0.195 C 
HETATM   23  C17 UNL     1      26.639   0.948  53.496  1.00  0.00     0.201 C 
HETATM   24  O2  UNL     1      25.278   0.712  53.878  1.00  0.00    -0.348 OA
HETATM   25  C18 UNL     1      24.298   1.426  53.152  1.00  0.00     0.100 C 
HETATM   26  C19 UNL     1      23.140   0.775  52.941  1.00  0.00     0.170 C 
BRANCH  26  27
HETATM   27  O3  UNL     1      22.755  -0.506  53.332  1.00  0.00    -0.356 OA
BRANCH  27  28
HETATM   28  C20 UNL     1      22.122  -0.746  54.579  1.00  0.00     0.119 C 
HETATM   29  C21 UNL     1      20.979  -1.702  54.309  1.00  0.00     0.039 C 
HETATM   30  C22 UNL     1      23.065  -1.500  55.520  1.00  0.00     0.039 C 
ENDBRANCH  27  28
ENDBRANCH  26  27
ENDBRANCH  19  20
ENDBRANCH  18  19
ENDBRANCH  10  12
ENDBRANCH   1  10
TORSDOF 6
ENDMDL
MODEL 9
REMARK VINA RESULT:      -8.1      3.493      6.533
REMARK  6 active torsions:
REMARK  status: ('A' for Active; 'I' for Inactive)
REMARK    1  A    between atoms: C4_6  and  N3_7 
REMARK    2  A    between atoms: N3_7  and  C5_8 
REMARK    3  A    between atoms: C13_17  and  C14_18 
REMARK    4  A    between atoms: C14_18  and  C15_19 
REMARK    5  A    between atoms: C19_25  and  O3_26 
REMARK    6  A    between atoms: O3_26  and  C20_27 
ROOT
HETATM    1  C5  UNL     1      25.443   5.188  49.483  1.00  0.00     0.035 A 
HETATM    2  C6  UNL     1      26.443   4.244  49.296  1.00  0.00     0.030 A 
HETATM    3  C7  UNL     1      27.636   4.671  48.748  1.00  0.00     0.010 A 
HETATM    4  C8  UNL     1      27.916   5.963  48.369  1.00  0.00    -0.041 A 
HETATM    5  C9  UNL     1      29.211   6.386  47.794  1.00  0.00     0.049 C 
HETATM    6  C10 UNL     1      26.911   6.889  48.560  1.00  0.00     0.052 A 
HETATM    7  C11 UNL     1      27.056   8.282  48.213  1.00  0.00     0.100 C 
HETATM    8  N4  UNL     1      27.184   9.392  47.921  1.00  0.00    -0.191 NA
HETATM    9  C12 UNL     1      25.713   6.484  49.106  1.00  0.00     0.052 A 
ENDROOT
BRANCH   1  10
HETATM   10  N3  UNL     1      24.185   4.859  50.061  1.00  0.00    -0.340 N 
HETATM   11  H4  UNL     1      23.911   5.264  50.957  1.00  0.00     0.167 HD
BRANCH  10  12
HETATM   12  C4  UNL     1      23.278   3.969  49.426  1.00  0.00     0.141 A 
HETATM   13  N2  UNL     1      23.054   4.400  48.177  1.00  0.00    -0.224 NA
HETATM   14  C3  UNL     1      22.226   3.726  47.336  1.00  0.00     0.235 A 
HETATM   15  N1  UNL     1      21.649   2.612  47.814  1.00  0.00    -0.245 NA
HETATM   16  C2  UNL     1      21.898   2.208  49.074  1.00  0.00     0.050 A 
HETATM   17  C1  UNL     1      21.293   1.073  49.433  1.00  0.00     0.066 C 
HETATM   18  C13 UNL     1      22.714   2.842  49.962  1.00  0.00     0.034 A 
BRANCH  18  19
HETATM   19  C14 UNL     1      22.972   2.500  51.184  1.00  0.00     0.029 C 
BRANCH  19  20
HETATM   20  C15 UNL     1      23.183   1.224  51.891  1.00  0.00     0.204 C 
HETATM   21  O1  UNL     1      22.032   0.928  52.621  1.00  0.00    -0.373 OA
HETATM   22  C16 UNL     1      22.333   0.314  53.832  1.00  0.00     0.195 C 
HETATM   23  C17 UNL     1      23.384  -0.779  53.638  1.00  0.00     0.201 C 
HETATM   24  O2  UNL     1      24.576  -0.039  53.347  1.00  0.00    -0.348 OA
HETATM   25  C18 UNL     1      24.387   1.246  52.790  1.00  0.00     0.100 C 
HETATM   26  C19 UNL     1      25.281   2.179  53.162  1.00  0.00     0.170 C 
BRANCH  26  27
HETATM   27  O3  UNL     1      26.375   2.073  54.019  1.00  0.00    -0.356 OA
BRANCH  27  28
HETATM   28  C20 UNL     1      27.581   1.445  53.614  1.00  0.00     0.119 C 
HETATM   29  C21 UNL     1      28.663   2.503  53.672  1.00  0.00     0.039 C 
HETATM   30  C22 UNL     1      27.999   0.383  54.634  1.00  0.00     0.039 C 
ENDBRANCH  27  28
ENDBRANCH  26  27
ENDBRANCH  19  20
ENDBRANCH  18  19
ENDBRANCH  10  12
ENDBRANCH   1  10
TORSDOF 6
ENDMDL
