MODEL 1
REMARK VINA RESULT:      -9.1      0.000      0.000
REMARK  1 active torsions:
REMARK  status: ('A' for Active; 'I' for Inactive)
REMARK    1  A    between atoms: C4_5  and  C5_6 
ROOT
HETATM    1  C5  UNL     1      24.055   0.386  52.962  1.00  0.00     0.085 A 
HETATM    2  C6  UNL     1      23.414   1.278  52.178  1.00  0.00     0.047 A 
HETATM    3  C7  UNL     1      24.302   2.166  51.460  1.00  0.00     0.095 A 
HETATM    4  C8  UNL     1      25.485   2.801  51.699  1.00  0.00     0.053 A 
HETATM    5  C9  UNL     1      25.874   3.523  50.600  1.00  0.00     0.139 A 
HETATM    6  N1  UNL     1      25.147   3.576  49.440  1.00  0.00    -0.075 NA
HETATM    7  C10 UNL     1      24.023   2.934  49.312  1.00  0.00     0.722 A 
HETATM    8  N2  UNL     1      23.600   2.215  50.348  1.00  0.00    -0.062 NA
HETATM    9  N3  UNL     1      22.838   2.384  48.914  1.00  0.00    -0.222 N 
HETATM   10  C11 UNL     1      21.644   1.726  48.595  1.00  0.00     0.139 C 
HETATM   11  C12 UNL     1      20.699   1.507  49.773  1.00  0.00     0.034 C 
HETATM   12  C13 UNL     1      21.065   0.494  50.764  1.00  0.00     0.040 C 
HETATM   13  C14 UNL     1      19.679   0.154  51.447  1.00  0.00     0.015 C 
HETATM   14  C15 UNL     1      19.257   1.433  52.109  1.00  0.00     0.010 C 
HETATM   15  C16 UNL     1      20.460   2.128  52.722  1.00  0.00     0.065 C 
HETATM   16  S1  UNL     1      21.749   1.123  52.194  1.00  0.00    -0.180 SA
HETATM   17  C17 UNL     1      21.993  -0.396  53.495  1.00  0.00     0.148 A 
HETATM   18  N4  UNL     1      23.237  -0.525  53.680  1.00  0.00    -0.253 NA
HETATM   19  H5  UNL     1      22.890   3.237  48.245  1.00  0.00     0.177 HD
ENDROOT
BRANCH   1  20
HETATM   20  C4  UNL     1      25.481   0.102  53.257  1.00  0.00    -0.006 A 
HETATM   21  C3  UNL     1      26.118   0.623  54.395  1.00  0.00     0.017 A 
HETATM   22  C2  UNL     1      27.436   0.359  54.697  1.00  0.00     0.043 A 
HETATM   23  C1  UNL     1      28.177  -0.447  53.861  1.00  0.00     0.116 A 
HETATM   24  F1  UNL     1      29.474  -0.742  54.108  1.00  0.00    -0.206 F 
HETATM   25  C19 UNL     1      27.602  -0.985  52.731  1.00  0.00     0.043 A 
HETATM   26  C18 UNL     1      26.301  -0.691  52.484  1.00  0.00     0.017 A 
ENDBRANCH   1  20
TORSDOF 1
ENDMDL
MODEL 2
REMARK VINA RESULT:      -8.5      1.736      3.924
REMARK  1 active torsions:
REMARK  status: ('A' for Active; 'I' for Inactive)
REMARK    1  A    between atoms: C4_5  and  C5_6 
ROOT
HETATM    1  C5  UNL     1      24.899   1.739  51.618  1.00  0.00     0.085 A 
HETATM    2  C6  UNL     1      23.569   1.586  51.447  1.00  0.00     0.047 A 
HETATM    3  C7  UNL     1      22.960   0.680  52.397  1.00  0.00     0.095 A 
HETATM    4  C8  UNL     1      23.299  -0.483  53.024  1.00  0.00     0.053 A 
HETATM    5  C9  UNL     1      22.293  -0.888  53.864  1.00  0.00     0.139 A 
HETATM    6  N1  UNL     1      21.123  -0.193  54.022  1.00  0.00    -0.075 NA
HETATM    7  C10 UNL     1      20.893   0.910  53.373  1.00  0.00     0.722 A 
HETATM    8  N2  UNL     1      21.838   1.349  52.546  1.00  0.00    -0.062 NA
HETATM    9  N3  UNL     1      20.393   2.058  52.827  1.00  0.00    -0.222 N 
HETATM   10  C11 UNL     1      20.006   3.271  52.246  1.00  0.00     0.139 C 
HETATM   11  C12 UNL     1      20.545   3.508  50.838  1.00  0.00     0.034 C 
HETATM   12  C13 UNL     1      21.968   3.822  50.694  1.00  0.00     0.040 C 
HETATM   13  C14 UNL     1      22.029   4.534  49.283  1.00  0.00     0.015 C 
HETATM   14  C15 UNL     1      21.605   3.478  48.305  1.00  0.00     0.010 C 
HETATM   15  C16 UNL     1      22.185   2.132  48.703  1.00  0.00     0.065 C 
HETATM   16  S1  UNL     1      22.933   2.505  50.203  1.00  0.00    -0.180 SA
HETATM   17  C17 UNL     1      24.801   3.184  49.872  1.00  0.00     0.148 A 
HETATM   18  N4  UNL     1      25.550   2.630  50.726  1.00  0.00    -0.253 NA
HETATM   19  H5  UNL     1      19.471   1.565  53.119  1.00  0.00     0.177 HD
ENDROOT
BRANCH   1  20
HETATM   20  C4  UNL     1      25.892   1.186  52.571  1.00  0.00    -0.006 A 
HETATM   21  C3  UNL     1      26.715   0.100  52.233  1.00  0.00     0.017 A 
HETATM   22  C2  UNL     1      27.655  -0.420  53.096  1.00  0.00     0.043 A 
HETATM   23  C1  UNL     1      27.809   0.137  54.347  1.00  0.00     0.116 A 
HETATM   24  F1  UNL     1      28.716  -0.330  55.236  1.00  0.00    -0.206 F 
HETATM   25  C19 UNL     1      27.028   1.203  54.731  1.00  0.00     0.043 A 
HETATM   26  C18 UNL     1      26.119   1.673  53.840  1.00  0.00     0.017 A 
ENDBRANCH   1  20
TORSDOF 1
ENDMDL
MODEL 3
REMARK VINA RESULT:      -8.2      3.167      6.400
REMARK  1 active torsions:
REMARK  status: ('A' for Active; 'I' for Inactive)
REMARK    1  A    between atoms: C4_5  and  C5_6 
ROOT
HETATM    1  C5  UNL     1      24.563   3.012  50.665  1.00  0.00     0.085 A 
HETATM    2  C6  UNL     1      24.127   2.498  51.834  1.00  0.00     0.047 A 
HETATM    3  C7  UNL     1      22.724   2.742  52.091  1.00  0.00     0.095 A 
HETATM    4  C8  UNL     1      21.832   3.751  51.877  1.00  0.00     0.053 A 
HETATM    5  C9  UNL     1      20.587   3.398  52.332  1.00  0.00     0.139 A 
HETATM    6  N1  UNL     1      20.317   2.189  52.917  1.00  0.00    -0.075 NA
HETATM    7  C10 UNL     1      21.243   1.290  53.078  1.00  0.00     0.722 A 
HETATM    8  N2  UNL     1      22.469   1.580  52.652  1.00  0.00    -0.062 NA
HETATM    9  N3  UNL     1      22.001   0.193  53.377  1.00  0.00    -0.222 N 
HETATM   10  C11 UNL     1      22.860  -0.892  53.586  1.00  0.00     0.139 C 
HETATM   11  C12 UNL     1      24.314  -0.517  53.855  1.00  0.00     0.034 C 
HETATM   12  C13 UNL     1      25.111  -0.023  52.731  1.00  0.00     0.040 C 
HETATM   13  C14 UNL     1      26.595  -0.286  53.212  1.00  0.00     0.015 C 
HETATM   14  C15 UNL     1      26.765   0.585  54.421  1.00  0.00     0.010 C 
HETATM   15  C16 UNL     1      26.070   1.919  54.208  1.00  0.00     0.065 C 
HETATM   16  S1  UNL     1      25.300   1.671  52.692  1.00  0.00    -0.180 SA
HETATM   17  C17 UNL     1      26.581   2.127  51.205  1.00  0.00     0.148 A 
HETATM   18  N4  UNL     1      25.929   2.790  50.349  1.00  0.00    -0.253 NA
HETATM   19  H5  UNL     1      21.195   0.073  54.095  1.00  0.00     0.177 HD
ENDROOT
BRANCH   1  20
HETATM   20  C4  UNL     1      23.923   3.778  49.567  1.00  0.00    -0.006 A 
HETATM   21  C3  UNL     1      23.059   3.165  48.645  1.00  0.00     0.017 A 
HETATM   22  C2  UNL     1      22.441   3.859  47.628  1.00  0.00     0.043 A 
HETATM   23  C1  UNL     1      22.667   5.211  47.493  1.00  0.00     0.116 A 
HETATM   24  F1  UNL     1      22.088   5.944  46.514  1.00  0.00    -0.206 F 
HETATM   25  C19 UNL     1      23.506   5.862  48.369  1.00  0.00     0.043 A 
HETATM   26  C18 UNL     1      24.088   5.128  49.351  1.00  0.00     0.017 A 
ENDBRANCH   1  20
TORSDOF 1
ENDMDL
MODEL 4
REMARK VINA RESULT:      -7.4      3.618      5.918
REMARK  1 active torsions:
REMARK  status: ('A' for Active; 'I' for Inactive)
REMARK    1  A    between atoms: C4_5  and  C5_6 
ROOT
HETATM    1  C5  UNL     1      22.307   4.192  51.001  1.00  0.00     0.085 A 
HETATM    2  C6  UNL     1      22.984   3.026  51.060  1.00  0.00     0.047 A 
HETATM    3  C7  UNL     1      24.328   3.106  50.529  1.00  0.00     0.095 A 
HETATM    4  C8  UNL     1      24.959   3.747  49.503  1.00  0.00     0.053 A 
HETATM    5  C9  UNL     1      26.297   3.447  49.498  1.00  0.00     0.139 A 
HETATM    6  N1  UNL     1      26.882   2.612  50.413  1.00  0.00    -0.075 NA
HETATM    7  C10 UNL     1      26.190   2.044  51.356  1.00  0.00     0.722 A 
HETATM    8  N2  UNL     1      24.886   2.303  51.409  1.00  0.00    -0.062 NA
HETATM    9  N3  UNL     1      25.718   1.324  52.417  1.00  0.00    -0.222 N 
HETATM   10  C11 UNL     1      25.135   0.672  53.510  1.00  0.00     0.139 C 
HETATM   11  C12 UNL     1      23.681   0.257  53.308  1.00  0.00     0.034 C 
HETATM   12  C13 UNL     1      22.663   1.308  53.313  1.00  0.00     0.040 C 
HETATM   13  C14 UNL     1      21.338   0.512  53.651  1.00  0.00     0.015 C 
HETATM   14  C15 UNL     1      21.148  -0.422  52.492  1.00  0.00     0.010 C 
HETATM   15  C16 UNL     1      21.520   0.272  51.193  1.00  0.00     0.065 C 
HETATM   16  S1  UNL     1      22.126   1.775  51.763  1.00  0.00    -0.180 SA
HETATM   17  C17 UNL     1      20.600   3.072  51.991  1.00  0.00     0.148 A 
HETATM   18  N4  UNL     1      20.987   4.180  51.524  1.00  0.00    -0.253 NA
HETATM   19  H5  UNL     1      26.616   0.759  52.184  1.00  0.00     0.177 HD
ENDROOT
BRANCH   1  20
HETATM   20  C4  UNL     1      22.630   5.555  50.514  1.00  0.00    -0.006 A 
HETATM   21  C3  UNL     1      22.152   6.032  49.283  1.00  0.00     0.017 A 
HETATM   22  C2  UNL     1      22.425   7.300  48.819  1.00  0.00     0.043 A 
HETATM   23  C1  UNL     1      23.199   8.150  49.579  1.00  0.00     0.116 A 
HETATM   24  F1  UNL     1      23.499   9.406  49.175  1.00  0.00    -0.206 F 
HETATM   25  C19 UNL     1      23.694   7.733  50.794  1.00  0.00     0.043 A 
HETATM   26  C18 UNL     1      23.393   6.475  51.201  1.00  0.00     0.017 A 
ENDBRANCH   1  20
TORSDOF 1
ENDMDL
MODEL 5
REMARK VINA RESULT:      -7.4      9.850     11.497
REMARK  1 active torsions:
REMARK  status: ('A' for Active; 'I' for Inactive)
REMARK    1  A    between atoms: C4_5  and  C5_6 
ROOT
HETATM    1  C5  UNL     1      32.108   4.968  47.426  1.00  0.00     0.085 A 
HETATM    2  C6  UNL     1      32.415   6.011  46.626  1.00  0.00     0.047 A 
HETATM    3  C7  UNL     1      32.907   5.619  45.323  1.00  0.00     0.095 A 
HETATM    4  C8  UNL     1      33.694   4.630  44.810  1.00  0.00     0.053 A 
HETATM    5  C9  UNL     1      33.802   4.758  43.449  1.00  0.00     0.139 A 
HETATM    6  N1  UNL     1      33.191   5.757  42.738  1.00  0.00    -0.075 NA
HETATM    7  C10 UNL     1      32.461   6.659  43.323  1.00  0.00     0.722 A 
HETATM    8  N2  UNL     1      32.320   6.581  44.644  1.00  0.00    -0.062 NA
HETATM    9  N3  UNL     1      31.667   7.717  43.669  1.00  0.00    -0.222 N 
HETATM   10  C11 UNL     1      30.820   8.731  44.130  1.00  0.00     0.139 C 
HETATM   11  C12 UNL     1      31.127   9.231  45.539  1.00  0.00     0.034 C 
HETATM   12  C13 UNL     1      30.792   8.355  46.663  1.00  0.00     0.040 C 
HETATM   13  C14 UNL     1      30.702   9.364  47.878  1.00  0.00     0.015 C 
HETATM   14  C15 UNL     1      32.089   9.918  48.017  1.00  0.00     0.010 C 
HETATM   15  C16 UNL     1      33.117   8.826  47.779  1.00  0.00     0.065 C 
HETATM   16  S1  UNL     1      32.120   7.506  47.314  1.00  0.00    -0.180 SA
HETATM   17  C17 UNL     1      31.493   6.525  48.958  1.00  0.00     0.148 A 
HETATM   18  N4  UNL     1      31.603   5.290  48.713  1.00  0.00    -0.253 NA
HETATM   19  H5  UNL     1      32.070   8.076  42.727  1.00  0.00     0.177 HD
ENDROOT
BRANCH   1  20
HETATM   20  C4  UNL     1      32.158   3.494  47.272  1.00  0.00    -0.006 A 
HETATM   21  C3  UNL     1      33.111   2.713  47.945  1.00  0.00     0.017 A 
HETATM   22  C2  UNL     1      33.165   1.341  47.831  1.00  0.00     0.043 A 
HETATM   23  C1  UNL     1      32.255   0.690  47.027  1.00  0.00     0.116 A 
HETATM   24  F1  UNL     1      32.260  -0.655  46.877  1.00  0.00    -0.206 F 
HETATM   25  C19 UNL     1      31.299   1.407  46.344  1.00  0.00     0.043 A 
HETATM   26  C18 UNL     1      31.293   2.755  46.495  1.00  0.00     0.017 A 
ENDBRANCH   1  20
TORSDOF 1
ENDMDL
MODEL 6
REMARK VINA RESULT:      -7.4      3.543      6.739
REMARK  1 active torsions:
REMARK  status: ('A' for Active; 'I' for Inactive)
REMARK    1  A    between atoms: C4_5  and  C5_6 
ROOT
HETATM    1  C5  UNL     1      23.744   3.539  50.004  1.00  0.00     0.085 A 
HETATM    2  C6  UNL     1      23.333   3.081  51.205  1.00  0.00     0.047 A 
HETATM    3  C7  UNL     1      21.921   3.277  51.452  1.00  0.00     0.095 A 
HETATM    4  C8  UNL     1      20.984   4.231  51.179  1.00  0.00     0.053 A 
HETATM    5  C9  UNL     1      19.758   3.852  51.661  1.00  0.00     0.139 A 
HETATM    6  N1  UNL     1      19.543   2.671  52.322  1.00  0.00    -0.075 NA
HETATM    7  C10 UNL     1      20.508   1.826  52.535  1.00  0.00     0.722 A 
HETATM    8  N2  UNL     1      21.720   2.143  52.086  1.00  0.00    -0.062 NA
HETATM    9  N3  UNL     1      21.316   0.785  52.899  1.00  0.00    -0.222 N 
HETATM   10  C11 UNL     1      22.222  -0.246  53.172  1.00  0.00     0.139 C 
HETATM   11  C12 UNL     1      23.659   0.211  53.411  1.00  0.00     0.034 C 
HETATM   12  C13 UNL     1      24.431   0.668  52.255  1.00  0.00     0.040 C 
HETATM   13  C14 UNL     1      25.926   0.502  52.744  1.00  0.00     0.015 C 
HETATM   14  C15 UNL     1      26.058   1.455  53.896  1.00  0.00     0.010 C 
HETATM   15  C16 UNL     1      25.304   2.740  53.602  1.00  0.00     0.065 C 
HETATM   16  S1  UNL     1      24.544   2.363  52.108  1.00  0.00    -0.180 SA
HETATM   17  C17 UNL     1      25.800   2.781  50.590  1.00  0.00     0.148 A 
HETATM   18  N4  UNL     1      25.118   3.359  49.697  1.00  0.00    -0.253 NA
HETATM   19  H5  UNL     1      20.517   0.675  53.626  1.00  0.00     0.177 HD
ENDROOT
BRANCH   1  20
HETATM   20  C4  UNL     1      23.069   4.204  48.862  1.00  0.00    -0.006 A 
HETATM   21  C3  UNL     1      22.387   3.471  47.878  1.00  0.00     0.017 A 
HETATM   22  C2  UNL     1      21.739   4.068  46.819  1.00  0.00     0.043 A 
HETATM   23  C1  UNL     1      21.749   5.440  46.703  1.00  0.00     0.116 A 
HETATM   24  F1  UNL     1      21.130   6.082  45.685  1.00  0.00    -0.206 F 
HETATM   25  C19 UNL     1      22.404   6.209  47.639  1.00  0.00     0.043 A 
HETATM   26  C18 UNL     1      23.025   5.567  48.661  1.00  0.00     0.017 A 
ENDBRANCH   1  20
TORSDOF 1
ENDMDL
MODEL 7
REMARK VINA RESULT:      -7.3      3.257      5.293
REMARK  1 active torsions:
REMARK  status: ('A' for Active; 'I' for Inactive)
REMARK    1  A    between atoms: C4_5  and  C5_6 
ROOT
HETATM    1  C5  UNL     1      23.036   2.600  52.244  1.00  0.00     0.085 A 
HETATM    2  C6  UNL     1      23.010   3.193  51.032  1.00  0.00     0.047 A 
HETATM    3  C7  UNL     1      22.189   2.499  50.062  1.00  0.00     0.095 A 
HETATM    4  C8  UNL     1      21.894   1.205  49.750  1.00  0.00     0.053 A 
HETATM    5  C9  UNL     1      21.005   1.152  48.707  1.00  0.00     0.139 A 
HETATM    6  N1  UNL     1      20.506   2.269  48.089  1.00  0.00    -0.075 NA
HETATM    7  C10 UNL     1      20.854   3.465  48.462  1.00  0.00     0.722 A 
HETATM    8  N2  UNL     1      21.714   3.574  49.471  1.00  0.00    -0.062 NA
HETATM    9  N3  UNL     1      21.048   4.807  48.633  1.00  0.00    -0.222 N 
HETATM   10  C11 UNL     1      21.280   6.154  48.932  1.00  0.00     0.139 C 
HETATM   11  C12 UNL     1      22.674   6.459  49.474  1.00  0.00     0.034 C 
HETATM   12  C13 UNL     1      22.983   6.038  50.841  1.00  0.00     0.040 C 
HETATM   13  C14 UNL     1      24.197   6.973  51.231  1.00  0.00     0.015 C 
HETATM   14  C15 UNL     1      25.295   6.588  50.283  1.00  0.00     0.010 C 
HETATM   15  C16 UNL     1      25.300   5.085  50.071  1.00  0.00     0.065 C 
HETATM   16  S1  UNL     1      23.902   4.605  50.946  1.00  0.00    -0.180 SA
HETATM   17  C17 UNL     1      24.387   4.309  52.879  1.00  0.00     0.148 A 
HETATM   18  N4  UNL     1      23.811   3.245  53.243  1.00  0.00    -0.253 NA
HETATM   19  H5  UNL     1      20.719   4.789  47.598  1.00  0.00     0.177 HD
ENDROOT
BRANCH   1  20
HETATM   20  C4  UNL     1      22.404   1.387  52.819  1.00  0.00    -0.006 A 
HETATM   21  C3  UNL     1      23.124   0.195  52.999  1.00  0.00     0.017 A 
HETATM   22  C2  UNL     1      22.563  -0.938  53.546  1.00  0.00     0.043 A 
HETATM   23  C1  UNL     1      21.243  -0.921  53.938  1.00  0.00     0.116 A 
HETATM   24  F1  UNL     1      20.639  -2.003  54.482  1.00  0.00    -0.206 F 
HETATM   25  C19 UNL     1      20.490   0.221  53.784  1.00  0.00     0.043 A 
HETATM   26  C18 UNL     1      21.095   1.307  53.240  1.00  0.00     0.017 A 
ENDBRANCH   1  20
TORSDOF 1
ENDMDL
MODEL 8
REMARK VINA RESULT:      -7.2      7.269      9.374
REMARK  1 active torsions:
REMARK  status: ('A' for Active; 'I' for Inactive)
REMARK    1  A    between atoms: C4_5  and  C5_6 
ROOT
HETATM    1  C5  UNL     1      29.432   6.447  48.354  1.00  0.00     0.085 A 
HETATM    2  C6  UNL     1      28.672   7.545  48.550  1.00  0.00     0.047 A 
HETATM    3  C7  UNL     1      29.414   8.786  48.487  1.00  0.00     0.095 A 
HETATM    4  C8  UNL     1      30.650   9.229  48.858  1.00  0.00     0.053 A 
HETATM    5  C9  UNL     1      30.812  10.546  48.514  1.00  0.00     0.139 A 
HETATM    6  N1  UNL     1      29.842  11.283  47.887  1.00  0.00    -0.075 NA
HETATM    7  C10 UNL     1      28.690  10.767  47.576  1.00  0.00     0.722 A 
HETATM    8  N2  UNL     1      28.480   9.490  47.885  1.00  0.00    -0.062 NA
HETATM    9  N3  UNL     1      27.420  10.494  47.153  1.00  0.00    -0.222 N 
HETATM   10  C11 UNL     1      26.155  10.087  46.713  1.00  0.00     0.139 C 
HETATM   11  C12 UNL     1      25.494   9.011  47.569  1.00  0.00     0.034 C 
HETATM   12  C13 UNL     1      26.027   7.650  47.488  1.00  0.00     0.040 C 
HETATM   13  C14 UNL     1      24.819   6.768  48.003  1.00  0.00     0.015 C 
HETATM   14  C15 UNL     1      24.621   7.189  49.429  1.00  0.00     0.010 C 
HETATM   15  C16 UNL     1      25.964   7.423  50.098  1.00  0.00     0.065 C 
HETATM   16  S1  UNL     1      27.049   7.216  48.783  1.00  0.00    -0.180 SA
HETATM   17  C17 UNL     1      27.510   5.264  48.592  1.00  0.00     0.148 A 
HETATM   18  N4  UNL     1      28.756   5.200  48.387  1.00  0.00    -0.253 NA
HETATM   19  H5  UNL     1      27.359  11.572  47.266  1.00  0.00     0.177 HD
ENDROOT
BRANCH   1  20
HETATM   20  C4  UNL     1      30.872   6.218  48.082  1.00  0.00    -0.006 A 
HETATM   21  C3  UNL     1      31.773   5.887  49.107  1.00  0.00     0.017 A 
HETATM   22  C2  UNL     1      33.111   5.654  48.875  1.00  0.00     0.043 A 
HETATM   23  C1  UNL     1      33.604   5.744  47.592  1.00  0.00     0.116 A 
HETATM   24  F1  UNL     1      34.908   5.526  47.304  1.00  0.00    -0.206 F 
HETATM   25  C19 UNL     1      32.764   6.066  46.550  1.00  0.00     0.043 A 
HETATM   26  C18 UNL     1      31.457   6.285  46.837  1.00  0.00     0.017 A 
ENDBRANCH   1  20
TORSDOF 1
ENDMDL
MODEL 9
REMARK VINA RESULT:      -7.1      3.167      4.218
REMARK  1 active torsions:
REMARK  status: ('A' for Active; 'I' for Inactive)
REMARK    1  A    between atoms: C4_5  and  C5_6 
ROOT
HETATM    1  C5  UNL     1      20.413   1.491  51.658  1.00  0.00     0.085 A 
HETATM    2  C6  UNL     1      20.805   2.596  50.988  1.00  0.00     0.047 A 
HETATM    3  C7  UNL     1      22.145   3.031  51.316  1.00  0.00     0.095 A 
HETATM    4  C8  UNL     1      22.933   3.081  52.429  1.00  0.00     0.053 A 
HETATM    5  C9  UNL     1      24.167   3.595  52.122  1.00  0.00     0.139 A 
HETATM    6  N1  UNL     1      24.521   3.993  50.859  1.00  0.00    -0.075 NA
HETATM    7  C10 UNL     1      23.692   3.907  49.861  1.00  0.00     0.722 A 
HETATM    8  N2  UNL     1      22.481   3.413  50.103  1.00  0.00    -0.062 NA
HETATM    9  N3  UNL     1      23.039   3.939  48.661  1.00  0.00    -0.222 N 
HETATM   10  C11 UNL     1      22.293   3.876  47.479  1.00  0.00     0.139 C 
HETATM   11  C12 UNL     1      20.788   4.054  47.660  1.00  0.00     0.034 C 
HETATM   12  C13 UNL     1      20.037   2.954  48.266  1.00  0.00     0.040 C 
HETATM   13  C14 UNL     1      18.557   3.230  47.781  1.00  0.00     0.015 C 
HETATM   14  C15 UNL     1      18.191   4.545  48.404  1.00  0.00     0.010 C 
HETATM   15  C16 UNL     1      18.747   4.629  49.815  1.00  0.00     0.065 C 
HETATM   16  S1  UNL     1      19.664   3.180  49.914  1.00  0.00    -0.180 SA
HETATM   17  C17 UNL     1      18.469   1.668  50.501  1.00  0.00     0.148 A 
HETATM   18  N4  UNL     1      19.112   1.006  51.365  1.00  0.00    -0.253 NA
HETATM   19  H5  UNL     1      23.790   4.705  48.494  1.00  0.00     0.177 HD
ENDROOT
BRANCH   1  20
HETATM   20  C4  UNL     1      21.052   0.607  52.663  1.00  0.00    -0.006 A 
HETATM   21  C3  UNL     1      22.049  -0.315  52.308  1.00  0.00     0.017 A 
HETATM   22  C2  UNL     1      22.668  -1.134  53.226  1.00  0.00     0.043 A 
HETATM   23  C1  UNL     1      22.308  -1.059  54.554  1.00  0.00     0.116 A 
HETATM   24  F1  UNL     1      22.882  -1.837  55.501  1.00  0.00    -0.206 F 
HETATM   25  C19 UNL     1      21.336  -0.172  54.958  1.00  0.00     0.043 A 
HETATM   26  C18 UNL     1      20.761   0.609  54.009  1.00  0.00     0.017 A 
ENDBRANCH   1  20
TORSDOF 1
ENDMDL
