MODEL 1
REMARK VINA RESULT:      -8.1      0.000      0.000
REMARK  5 active torsions:
REMARK  status: ('A' for Active; 'I' for Inactive)
REMARK    1  A    between atoms: C2_2  and  C3_3 
REMARK    2  A    between atoms: C3_3  and  N1_4 
REMARK    3  A    between atoms: C5_6  and  O1_7 
REMARK    4  A    between atoms: C10_14  and  N4_15 
REMARK    5  A    between atoms: N4_15  and  C11_16 
ROOT
HETATM    1  N1  UNL     1      22.421   0.552  52.269  1.00  0.00    -0.370 N 
HETATM    2  C4  UNL     1      21.027   0.647  51.854  1.00  0.00     0.187 A 
HETATM    3  C5  UNL     1      20.123  -0.093  52.743  1.00  0.00     0.066 A 
HETATM    4  C7  UNL     1      20.328  -0.804  53.817  1.00  0.00     0.068 A 
HETATM    5  C8  UNL     1      21.742  -0.870  54.202  1.00  0.00     0.091 A 
HETATM    6  N2  UNL     1      22.151  -1.548  55.293  1.00  0.00    -0.240 NA
HETATM    7  C9  UNL     1      23.428  -1.585  55.629  1.00  0.00     0.236 A 
HETATM    8  N3  UNL     1      24.321  -0.937  54.869  1.00  0.00    -0.222 NA
HETATM    9  C10 UNL     1      23.985  -0.228  53.752  1.00  0.00     0.158 A 
HETATM   10  C17 UNL     1      22.654  -0.210  53.429  1.00  0.00     0.106 A 
ENDROOT
BRANCH   9  11
HETATM   11  N4  UNL     1      25.154   0.344  53.196  1.00  0.00    -0.339 N 
HETATM   12  H15 UNL     1      24.663   1.101  52.675  1.00  0.00     0.167 HD
BRANCH  11  13
HETATM   13  C11 UNL     1      26.571   0.047  53.321  1.00  0.00     0.035 A 
HETATM   14  C12 UNL     1      27.065  -1.150  52.926  1.00  0.00     0.032 A 
HETATM   15  C13 UNL     1      28.427  -1.292  53.083  1.00  0.00     0.046 A 
HETATM   16  C14 UNL     1      29.266  -0.331  53.592  1.00  0.00     0.138 A 
HETATM   17  F1  UNL     1      30.611  -0.532  53.721  1.00  0.00    -0.204 F 
HETATM   18  C15 UNL     1      28.722   0.901  53.991  1.00  0.00     0.074 A 
HETATM   19 CL1  UNL     1      29.751   2.163  54.636  1.00  0.00    -0.081 Cl
HETATM   20  C16 UNL     1      27.358   1.043  53.835  1.00  0.00     0.056 A 
ENDBRANCH  11  13
ENDBRANCH   9  11
BRANCH   1  21
HETATM   21  C3  UNL     1      23.199   1.291  51.338  1.00  0.00     0.123 C 
BRANCH  21  22
HETATM   22  C2  UNL     1      22.865   2.806  51.435  1.00  0.00     0.015 C 
HETATM   23  C1  UNL     1      23.608   3.449  52.559  1.00  0.00     0.006 C 
ENDBRANCH  21  22
ENDBRANCH   1  21
BRANCH   3  24
HETATM   24  O1  UNL     1      18.788   0.033  52.295  1.00  0.00    -0.358 OA
HETATM   25  C6  UNL     1      17.804  -0.881  52.758  1.00  0.00     0.209 C 
ENDBRANCH   3  24
TORSDOF 5
ENDMDL
MODEL 2
REMARK VINA RESULT:      -7.7      1.543      2.025
REMARK  5 active torsions:
REMARK  status: ('A' for Active; 'I' for Inactive)
REMARK    1  A    between atoms: C2_2  and  C3_3 
REMARK    2  A    between atoms: C3_3  and  N1_4 
REMARK    3  A    between atoms: C5_6  and  O1_7 
REMARK    4  A    between atoms: C10_14  and  N4_15 
REMARK    5  A    between atoms: N4_15  and  C11_16 
ROOT
HETATM    1  N1  UNL     1      21.604   0.416  51.822  1.00  0.00    -0.370 N 
HETATM    2  C4  UNL     1      20.184   0.412  51.493  1.00  0.00     0.187 A 
HETATM    3  C5  UNL     1      19.378  -0.305  52.488  1.00  0.00     0.066 A 
HETATM    4  C7  UNL     1      19.686  -0.926  53.593  1.00  0.00     0.068 A 
HETATM    5  C8  UNL     1      21.122  -0.893  53.889  1.00  0.00     0.091 A 
HETATM    6  N2  UNL     1      21.634  -1.469  54.996  1.00  0.00    -0.240 NA
HETATM    7  C9  UNL     1      22.929  -1.418  55.250  1.00  0.00     0.236 A 
HETATM    8  N3  UNL     1      23.737  -0.783  54.391  1.00  0.00    -0.222 NA
HETATM    9  C10 UNL     1      23.296  -0.175  53.251  1.00  0.00     0.158 A 
HETATM   10  C17 UNL     1      21.949  -0.246  53.014  1.00  0.00     0.106 A 
ENDROOT
BRANCH   9  11
HETATM   11  N4  UNL     1      24.396   0.412  52.582  1.00  0.00    -0.339 N 
HETATM   12  H15 UNL     1      23.870   0.667  51.719  1.00  0.00     0.167 HD
BRANCH  11  13
HETATM   13  C11 UNL     1      25.782   0.647  52.949  1.00  0.00     0.035 A 
HETATM   14  C12 UNL     1      26.198   1.877  53.334  1.00  0.00     0.032 A 
HETATM   15  C13 UNL     1      27.532   1.954  53.673  1.00  0.00     0.046 A 
HETATM   16  C14 UNL     1      28.416   0.903  53.642  1.00  0.00     0.138 A 
HETATM   17  F1  UNL     1      29.728   1.043  53.991  1.00  0.00    -0.204 F 
HETATM   18  C15 UNL     1      27.951  -0.361  53.239  1.00  0.00     0.074 A 
HETATM   19 CL1  UNL     1      29.035  -1.735  53.194  1.00  0.00    -0.081 Cl
HETATM   20  C16 UNL     1      26.616  -0.439  52.899  1.00  0.00     0.056 A 
ENDBRANCH  11  13
ENDBRANCH   9  11
BRANCH   1  21
HETATM   21  C3  UNL     1      22.283   1.123  50.793  1.00  0.00     0.123 C 
BRANCH  21  22
HETATM   22  C2  UNL     1      21.287   1.543  49.676  1.00  0.00     0.015 C 
HETATM   23  C1  UNL     1      21.925   1.464  48.329  1.00  0.00     0.006 C 
ENDBRANCH  21  22
ENDBRANCH   1  21
BRANCH   3  24
HETATM   24  O1  UNL     1      18.013  -0.279  52.119  1.00  0.00    -0.358 OA
HETATM   25  C6  UNL     1      17.639   0.248  50.854  1.00  0.00     0.209 C 
ENDBRANCH   3  24
TORSDOF 5
ENDMDL
MODEL 3
REMARK VINA RESULT:      -7.7      2.197      4.047
REMARK  5 active torsions:
REMARK  status: ('A' for Active; 'I' for Inactive)
REMARK    1  A    between atoms: C2_2  and  C3_3 
REMARK    2  A    between atoms: C3_3  and  N1_4 
REMARK    3  A    between atoms: C5_6  and  O1_7 
REMARK    4  A    between atoms: C10_14  and  N4_15 
REMARK    5  A    between atoms: N4_15  and  C11_16 
ROOT
HETATM    1  N1  UNL     1      23.213   1.105  51.985  1.00  0.00    -0.370 N 
HETATM    2  C4  UNL     1      21.904   0.730  51.465  1.00  0.00     0.187 A 
HETATM    3  C5  UNL     1      21.608   1.365  50.176  1.00  0.00     0.066 A 
HETATM    4  C7  UNL     1      22.284   2.184  49.418  1.00  0.00     0.068 A 
HETATM    5  C8  UNL     1      23.596   2.530  49.976  1.00  0.00     0.091 A 
HETATM    6  N2  UNL     1      24.447   3.355  49.331  1.00  0.00    -0.240 NA
HETATM    7  C9  UNL     1      25.628   3.645  49.845  1.00  0.00     0.236 A 
HETATM    8  N3  UNL     1      25.977   3.109  51.022  1.00  0.00    -0.222 NA
HETATM    9  C10 UNL     1      25.173   2.266  51.733  1.00  0.00     0.158 A 
HETATM   10  C17 UNL     1      23.954   1.985  51.175  1.00  0.00     0.106 A 
ENDROOT
BRANCH   9  11
HETATM   11  N4  UNL     1      25.845   1.870  52.914  1.00  0.00    -0.339 N 
HETATM   12  H15 UNL     1      25.122   2.232  53.572  1.00  0.00     0.167 HD
BRANCH  11  13
HETATM   13  C11 UNL     1      27.085   1.159  53.170  1.00  0.00     0.035 A 
HETATM   14  C12 UNL     1      28.176   1.813  53.634  1.00  0.00     0.032 A 
HETATM   15  C13 UNL     1      29.279   1.015  53.850  1.00  0.00     0.046 A 
HETATM   16  C14 UNL     1      29.327  -0.340  53.631  1.00  0.00     0.138 A 
HETATM   17  F1  UNL     1      30.452  -1.077  53.866  1.00  0.00    -0.204 F 
HETATM   18  C15 UNL     1      28.177  -0.989  53.149  1.00  0.00     0.074 A 
HETATM   19 CL1  UNL     1      28.183  -2.716  52.864  1.00  0.00    -0.081 Cl
HETATM   20  C16 UNL     1      27.073  -0.190  52.932  1.00  0.00     0.056 A 
ENDBRANCH  11  13
ENDBRANCH   9  11
BRANCH   1  21
HETATM   21  C3  UNL     1      23.387   0.446  53.232  1.00  0.00     0.123 C 
BRANCH  21  22
HETATM   22  C2  UNL     1      22.356  -0.708  53.383  1.00  0.00     0.015 C 
HETATM   23  C1  UNL     1      22.061  -0.981  54.820  1.00  0.00     0.006 C 
ENDBRANCH  21  22
ENDBRANCH   1  21
BRANCH   3  24
HETATM   24  O1  UNL     1      20.329   0.967  49.720  1.00  0.00    -0.358 OA
HETATM   25  C6  UNL     1      19.186   1.237  50.517  1.00  0.00     0.209 C 
ENDBRANCH   3  24
TORSDOF 5
ENDMDL
MODEL 4
REMARK VINA RESULT:      -7.5      4.225      6.504
REMARK  5 active torsions:
REMARK  status: ('A' for Active; 'I' for Inactive)
REMARK    1  A    between atoms: C2_2  and  C3_3 
REMARK    2  A    between atoms: C3_3  and  N1_4 
REMARK    3  A    between atoms: C5_6  and  O1_7 
REMARK    4  A    between atoms: C10_14  and  N4_15 
REMARK    5  A    between atoms: N4_15  and  C11_16 
ROOT
HETATM    1  N1  UNL     1      25.149   1.537  52.758  1.00  0.00    -0.370 N 
HETATM    2  C4  UNL     1      26.409   1.071  53.323  1.00  0.00     0.187 A 
HETATM    3  C5  UNL     1      26.242  -0.117  54.168  1.00  0.00     0.066 A 
HETATM    4  C7  UNL     1      25.198  -0.824  54.501  1.00  0.00     0.068 A 
HETATM    5  C8  UNL     1      23.953  -0.324  53.907  1.00  0.00     0.091 A 
HETATM    6  N2  UNL     1      22.768  -0.931  54.123  1.00  0.00    -0.240 NA
HETATM    7  C9  UNL     1      21.661  -0.472  53.570  1.00  0.00     0.236 A 
HETATM    8  N3  UNL     1      21.725   0.611  52.784  1.00  0.00    -0.222 NA
HETATM    9  C10 UNL     1      22.885   1.279  52.516  1.00  0.00     0.158 A 
HETATM   10  C17 UNL     1      24.016   0.780  53.106  1.00  0.00     0.106 A 
ENDROOT
BRANCH   9  11
HETATM   11  N4  UNL     1      22.608   2.360  51.645  1.00  0.00    -0.339 N 
HETATM   12  H15 UNL     1      22.565   3.087  52.390  1.00  0.00     0.167 HD
BRANCH  11  13
HETATM   13  C11 UNL     1      22.472   2.474  50.203  1.00  0.00     0.035 A 
HETATM   14  C12 UNL     1      22.070   1.416  49.459  1.00  0.00     0.032 A 
HETATM   15  C13 UNL     1      21.966   1.668  48.108  1.00  0.00     0.046 A 
HETATM   16  C14 UNL     1      22.234   2.874  47.507  1.00  0.00     0.138 A 
HETATM   17  F1  UNL     1      22.111   3.061  46.161  1.00  0.00    -0.204 F 
HETATM   18  C15 UNL     1      22.649   3.951  48.308  1.00  0.00     0.074 A 
HETATM   19 CL1  UNL     1      22.993   5.512  47.593  1.00  0.00    -0.081 Cl
HETATM   20  C16 UNL     1      22.754   3.700  49.661  1.00  0.00     0.056 A 
ENDBRANCH  11  13
ENDBRANCH   9  11
BRANCH   1  21
HETATM   21  C3  UNL     1      25.429   2.688  51.972  1.00  0.00     0.123 C 
BRANCH  21  22
HETATM   22  C2  UNL     1      26.495   2.360  50.890  1.00  0.00     0.015 C 
HETATM   23  C1  UNL     1      26.522   3.406  49.827  1.00  0.00     0.006 C 
ENDBRANCH  21  22
ENDBRANCH   1  21
BRANCH   3  24
HETATM   24  O1  UNL     1      27.492  -0.524  54.689  1.00  0.00    -0.358 OA
HETATM   25  C6  UNL     1      28.574   0.396  54.716  1.00  0.00     0.209 C 
ENDBRANCH   3  24
TORSDOF 5
ENDMDL
MODEL 5
REMARK VINA RESULT:      -7.4      2.052      2.517
REMARK  5 active torsions:
REMARK  status: ('A' for Active; 'I' for Inactive)
REMARK    1  A    between atoms: C2_2  and  C3_3 
REMARK    2  A    between atoms: C3_3  and  N1_4 
REMARK    3  A    between atoms: C5_6  and  O1_7 
REMARK    4  A    between atoms: C10_14  and  N4_15 
REMARK    5  A    between atoms: N4_15  and  C11_16 
ROOT
HETATM    1  N1  UNL     1      22.749   2.446  51.639  1.00  0.00    -0.370 N 
HETATM    2  C4  UNL     1      21.567   3.286  51.490  1.00  0.00     0.187 A 
HETATM    3  C5  UNL     1      20.430   2.801  52.281  1.00  0.00     0.066 A 
HETATM    4  C7  UNL     1      20.281   1.780  53.080  1.00  0.00     0.068 A 
HETATM    5  C8  UNL     1      21.494   0.966  53.204  1.00  0.00     0.091 A 
HETATM    6  N2  UNL     1      21.541  -0.124  53.996  1.00  0.00    -0.240 NA
HETATM    7  C9  UNL     1      22.647  -0.837  54.103  1.00  0.00     0.236 A 
HETATM    8  N3  UNL     1      23.733  -0.464  53.413  1.00  0.00    -0.222 NA
HETATM    9  C10 UNL     1      23.765   0.626  52.593  1.00  0.00     0.158 A 
HETATM   10  C17 UNL     1      22.602   1.344  52.501  1.00  0.00     0.106 A 
ENDROOT
BRANCH   9  11
HETATM   11  N4  UNL     1      25.059   0.748  52.031  1.00  0.00    -0.339 N 
HETATM   12  H15 UNL     1      24.742   0.756  51.039  1.00  0.00     0.167 HD
BRANCH  11  13
HETATM   13  C11 UNL     1      26.389   0.872  52.601  1.00  0.00     0.035 A 
HETATM   14  C12 UNL     1      26.850   2.071  53.030  1.00  0.00     0.032 A 
HETATM   15  C13 UNL     1      28.121   2.042  53.564  1.00  0.00     0.046 A 
HETATM   16  C14 UNL     1      28.903   0.919  53.680  1.00  0.00     0.138 A 
HETATM   17  F1  UNL     1      30.155   0.955  54.222  1.00  0.00    -0.204 F 
HETATM   18  C15 UNL     1      28.394  -0.310  53.227  1.00  0.00     0.074 A 
HETATM   19 CL1  UNL     1      29.347  -1.772  53.362  1.00  0.00    -0.081 Cl
HETATM   20  C16 UNL     1      27.123  -0.282  52.690  1.00  0.00     0.056 A 
ENDBRANCH  11  13
ENDBRANCH   9  11
BRANCH   1  21
HETATM   21  C3  UNL     1      23.776   3.000  50.827  1.00  0.00     0.123 C 
BRANCH  21  22
HETATM   22  C2  UNL     1      23.185   4.058  49.853  1.00  0.00     0.015 C 
HETATM   23  C1  UNL     1      24.264   4.736  49.077  1.00  0.00     0.006 C 
ENDBRANCH  21  22
ENDBRANCH   1  21
BRANCH   3  24
HETATM   24  O1  UNL     1      19.313   3.650  52.100  1.00  0.00    -0.358 OA
HETATM   25  C6  UNL     1      18.126   3.131  51.519  1.00  0.00     0.209 C 
ENDBRANCH   3  24
TORSDOF 5
ENDMDL
MODEL 6
REMARK VINA RESULT:      -7.3      2.327      4.075
REMARK  5 active torsions:
REMARK  status: ('A' for Active; 'I' for Inactive)
REMARK    1  A    between atoms: C2_2  and  C3_3 
REMARK    2  A    between atoms: C3_3  and  N1_4 
REMARK    3  A    between atoms: C5_6  and  O1_7 
REMARK    4  A    between atoms: C10_14  and  N4_15 
REMARK    5  A    between atoms: N4_15  and  C11_16 
ROOT
HETATM    1  N1  UNL     1      21.512   1.702  52.097  1.00  0.00    -0.370 N 
HETATM    2  C4  UNL     1      20.098   1.983  52.306  1.00  0.00     0.187 A 
HETATM    3  C5  UNL     1      19.719   3.328  51.858  1.00  0.00     0.066 A 
HETATM    4  C7  UNL     1      20.396   4.301  51.314  1.00  0.00     0.068 A 
HETATM    5  C8  UNL     1      21.812   3.975  51.117  1.00  0.00     0.091 A 
HETATM    6  N2  UNL     1      22.672   4.850  50.556  1.00  0.00    -0.240 NA
HETATM    7  C9  UNL     1      23.941   4.532  50.377  1.00  0.00     0.236 A 
HETATM    8  N3  UNL     1      24.371   3.323  50.760  1.00  0.00    -0.222 NA
HETATM    9  C10 UNL     1      23.563   2.383  51.333  1.00  0.00     0.158 A 
HETATM   10  C17 UNL     1      22.253   2.743  51.507  1.00  0.00     0.106 A 
ENDROOT
BRANCH   9  11
HETATM   11  N4  UNL     1      24.322   1.219  51.600  1.00  0.00    -0.339 N 
HETATM   12  H15 UNL     1      23.946   0.663  50.803  1.00  0.00     0.167 HD
BRANCH  11  13
HETATM   13  C11 UNL     1      25.326   0.884  52.596  1.00  0.00     0.035 A 
HETATM   14  C12 UNL     1      25.191  -0.217  53.372  1.00  0.00     0.032 A 
HETATM   15  C13 UNL     1      26.224  -0.425  54.261  1.00  0.00     0.046 A 
HETATM   16  C14 UNL     1      27.326   0.384  54.394  1.00  0.00     0.138 A 
HETATM   17  F1  UNL     1      28.318   0.123  55.294  1.00  0.00    -0.204 F 
HETATM   18  C15 UNL     1      27.435   1.519  53.572  1.00  0.00     0.074 A 
HETATM   19 CL1  UNL     1      28.825   2.576  53.694  1.00  0.00    -0.081 Cl
HETATM   20  C16 UNL     1      26.401   1.729  52.683  1.00  0.00     0.056 A 
ENDBRANCH  11  13
ENDBRANCH   9  11
BRANCH   1  21
HETATM   21  C3  UNL     1      21.766   0.387  52.573  1.00  0.00     0.123 C 
BRANCH  21  22
HETATM   22  C2  UNL     1      21.428   0.285  54.087  1.00  0.00     0.015 C 
HETATM   23  C1  UNL     1      21.826  -1.044  54.638  1.00  0.00     0.006 C 
ENDBRANCH  21  22
ENDBRANCH   1  21
BRANCH   3  24
HETATM   24  O1  UNL     1      18.340   3.546  52.084  1.00  0.00    -0.358 OA
HETATM   25  C6  UNL     1      17.537   4.094  51.048  1.00  0.00     0.209 C 
ENDBRANCH   3  24
TORSDOF 5
ENDMDL
MODEL 7
REMARK VINA RESULT:      -7.2      4.579      7.339
REMARK  5 active torsions:
REMARK  status: ('A' for Active; 'I' for Inactive)
REMARK    1  A    between atoms: C2_2  and  C3_3 
REMARK    2  A    between atoms: C3_3  and  N1_4 
REMARK    3  A    between atoms: C5_6  and  O1_7 
REMARK    4  A    between atoms: C10_14  and  N4_15 
REMARK    5  A    between atoms: N4_15  and  C11_16 
ROOT
HETATM    1  N1  UNL     1      25.451   2.369  51.582  1.00  0.00    -0.370 N 
HETATM    2  C4  UNL     1      26.637   2.721  50.811  1.00  0.00     0.187 A 
HETATM    3  C5  UNL     1      26.344   3.671  49.732  1.00  0.00     0.066 A 
HETATM    4  C7  UNL     1      25.243   4.252  49.341  1.00  0.00     0.068 A 
HETATM    5  C8  UNL     1      24.077   3.874  50.146  1.00  0.00     0.091 A 
HETATM    6  N2  UNL     1      22.851   4.381  49.904  1.00  0.00    -0.240 NA
HETATM    7  C9  UNL     1      21.816   4.036  50.649  1.00  0.00     0.236 A 
HETATM    8  N3  UNL     1      21.997   3.171  51.655  1.00  0.00    -0.222 NA
HETATM    9  C10 UNL     1      23.205   2.617  51.964  1.00  0.00     0.158 A 
HETATM   10  C17 UNL     1      24.258   2.992  51.173  1.00  0.00     0.106 A 
ENDROOT
BRANCH   9  11
HETATM   11  N4  UNL     1      23.053   1.765  53.084  1.00  0.00    -0.339 N 
HETATM   12  H15 UNL     1      23.779   2.230  53.669  1.00  0.00     0.167 HD
BRANCH  11  13
HETATM   13  C11 UNL     1      22.170   0.650  53.382  1.00  0.00     0.035 A 
HETATM   14  C12 UNL     1      22.582  -0.368  54.174  1.00  0.00     0.032 A 
HETATM   15  C13 UNL     1      21.638  -1.349  54.389  1.00  0.00     0.046 A 
HETATM   16  C14 UNL     1      20.367  -1.349  53.869  1.00  0.00     0.138 A 
HETATM   17  F1  UNL     1      19.476  -2.352  54.120  1.00  0.00    -0.204 F 
HETATM   18  C15 UNL     1      19.971  -0.277  53.051  1.00  0.00     0.074 A 
HETATM   19 CL1  UNL     1      18.358  -0.224  52.372  1.00  0.00    -0.081 Cl
HETATM   20  C16 UNL     1      20.915   0.706  52.834  1.00  0.00     0.056 A 
ENDBRANCH  11  13
ENDBRANCH   9  11
BRANCH   1  21
HETATM   21  C3  UNL     1      25.849   1.443  52.585  1.00  0.00     0.123 C 
BRANCH  21  22
HETATM   22  C2  UNL     1      26.632   0.260  51.950  1.00  0.00     0.015 C 
HETATM   23  C1  UNL     1      26.388  -1.009  52.697  1.00  0.00     0.006 C 
ENDBRANCH  21  22
ENDBRANCH   1  21
BRANCH   3  24
HETATM   24  O1  UNL     1      27.526   3.976  49.018  1.00  0.00    -0.358 OA
HETATM   25  C6  UNL     1      27.750   5.305  48.569  1.00  0.00     0.209 C 
ENDBRANCH   3  24
TORSDOF 5
ENDMDL
MODEL 8
REMARK VINA RESULT:      -7.0      3.072      4.645
REMARK  5 active torsions:
REMARK  status: ('A' for Active; 'I' for Inactive)
REMARK    1  A    between atoms: C2_2  and  C3_3 
REMARK    2  A    between atoms: C3_3  and  N1_4 
REMARK    3  A    between atoms: C5_6  and  O1_7 
REMARK    4  A    between atoms: C10_14  and  N4_15 
REMARK    5  A    between atoms: N4_15  and  C11_16 
ROOT
HETATM    1  N1  UNL     1      23.201   3.701  50.305  1.00  0.00    -0.370 N 
HETATM    2  C4  UNL     1      22.934   4.969  49.639  1.00  0.00     0.187 A 
HETATM    3  C5  UNL     1      21.633   5.537  50.011  1.00  0.00     0.066 A 
HETATM    4  C7  UNL     1      20.689   5.131  50.814  1.00  0.00     0.068 A 
HETATM    5  C8  UNL     1      21.000   3.855  51.468  1.00  0.00     0.091 A 
HETATM    6  N2  UNL     1      20.152   3.279  52.344  1.00  0.00    -0.240 NA
HETATM    7  C9  UNL     1      20.457   2.136  52.930  1.00  0.00     0.236 A 
HETATM    8  N3  UNL     1      21.626   1.548  52.644  1.00  0.00    -0.222 NA
HETATM    9  C10 UNL     1      22.536   2.068  51.771  1.00  0.00     0.158 A 
HETATM   10  C17 UNL     1      22.192   3.253  51.178  1.00  0.00     0.106 A 
ENDROOT
BRANCH   9  11
HETATM   11  N4  UNL     1      23.663   1.213  51.710  1.00  0.00    -0.339 N 
HETATM   12  H15 UNL     1      23.532   0.937  50.714  1.00  0.00     0.167 HD
BRANCH  11  13
HETATM   13  C11 UNL     1      24.699   0.854  52.663  1.00  0.00     0.035 A 
HETATM   14  C12 UNL     1      24.566  -0.239  53.452  1.00  0.00     0.032 A 
HETATM   15  C13 UNL     1      25.631  -0.473  54.296  1.00  0.00     0.046 A 
HETATM   16  C14 UNL     1      26.762   0.303  54.374  1.00  0.00     0.138 A 
HETATM   17  F1  UNL     1      27.785   0.017  55.231  1.00  0.00    -0.204 F 
HETATM   18  C15 UNL     1      26.868   1.429  53.540  1.00  0.00     0.074 A 
HETATM   19 CL1  UNL     1      28.294   2.445  53.593  1.00  0.00    -0.081 Cl
HETATM   20  C16 UNL     1      25.803   1.665  52.696  1.00  0.00     0.056 A 
ENDBRANCH  11  13
ENDBRANCH   9  11
BRANCH   1  21
HETATM   21  C3  UNL     1      24.472   3.241  49.865  1.00  0.00     0.123 C 
BRANCH  21  22
HETATM   22  C2  UNL     1      25.445   4.439  49.678  1.00  0.00     0.015 C 
HETATM   23  C1  UNL     1      26.819   3.966  49.335  1.00  0.00     0.006 C 
ENDBRANCH  21  22
ENDBRANCH   1  21
BRANCH   3  24
HETATM   24  O1  UNL     1      21.426   6.763  49.336  1.00  0.00    -0.358 OA
HETATM   25  C6  UNL     1      20.470   7.686  49.837  1.00  0.00     0.209 C 
ENDBRANCH   3  24
TORSDOF 5
ENDMDL
MODEL 9
REMARK VINA RESULT:      -7.0      4.199      5.751
REMARK  5 active torsions:
REMARK  status: ('A' for Active; 'I' for Inactive)
REMARK    1  A    between atoms: C2_2  and  C3_3 
REMARK    2  A    between atoms: C3_3  and  N1_4 
REMARK    3  A    between atoms: C5_6  and  O1_7 
REMARK    4  A    between atoms: C10_14  and  N4_15 
REMARK    5  A    between atoms: N4_15  and  C11_16 
ROOT
HETATM    1  N1  UNL     1      23.330   1.888  51.247  1.00  0.00    -0.370 N 
HETATM    2  C4  UNL     1      22.318   1.153  51.995  1.00  0.00     0.187 A 
HETATM    3  C5  UNL     1      22.894   0.339  53.072  1.00  0.00     0.066 A 
HETATM    4  C7  UNL     1      24.118   0.154  53.481  1.00  0.00     0.068 A 
HETATM    5  C8  UNL     1      25.104   0.915  52.705  1.00  0.00     0.091 A 
HETATM    6  N2  UNL     1      26.422   0.865  52.986  1.00  0.00    -0.240 NA
HETATM    7  C9  UNL     1      27.292   1.567  52.283  1.00  0.00     0.236 A 
HETATM    8  N3  UNL     1      26.849   2.336  51.279  1.00  0.00    -0.222 NA
HETATM    9  C10 UNL     1      25.533   2.441  50.935  1.00  0.00     0.158 A 
HETATM   10  C17 UNL     1      24.655   1.700  51.682  1.00  0.00     0.106 A 
ENDROOT
BRANCH   9  11
HETATM   11  N4  UNL     1      25.406   3.343  49.851  1.00  0.00    -0.339 N 
HETATM   12  H15 UNL     1      24.889   2.686  49.229  1.00  0.00     0.167 HD
BRANCH  11  13
HETATM   13  C11 UNL     1      25.799   4.726  49.649  1.00  0.00     0.035 A 
HETATM   14  C12 UNL     1      25.091   5.736  50.208  1.00  0.00     0.032 A 
HETATM   15  C13 UNL     1      25.585   6.997  49.950  1.00  0.00     0.046 A 
HETATM   16  C14 UNL     1      26.700   7.269  49.196  1.00  0.00     0.138 A 
HETATM   17  F1  UNL     1      27.141   8.543  48.978  1.00  0.00    -0.204 F 
HETATM   18  C15 UNL     1      27.413   6.198  48.631  1.00  0.00     0.074 A 
HETATM   19 CL1  UNL     1      28.847   6.491  47.671  1.00  0.00    -0.081 Cl
HETATM   20  C16 UNL     1      26.919   4.935  48.887  1.00  0.00     0.056 A 
ENDBRANCH  11  13
ENDBRANCH   9  11
BRANCH   1  21
HETATM   21  C3  UNL     1      22.665   2.627  50.232  1.00  0.00     0.123 C 
BRANCH  21  22
HETATM   22  C2  UNL     1      22.132   1.672  49.128  1.00  0.00     0.015 C 
HETATM   23  C1  UNL     1      22.549   2.133  47.771  1.00  0.00     0.006 C 
ENDBRANCH  21  22
ENDBRANCH   1  21
BRANCH   3  24
HETATM   24  O1  UNL     1      21.869  -0.350  53.762  1.00  0.00    -0.358 OA
HETATM   25  C6  UNL     1      20.528  -0.252  53.305  1.00  0.00     0.209 C 
ENDBRANCH   3  24
TORSDOF 5
ENDMDL
