MODEL 1
REMARK VINA RESULT:      -9.4      0.000      0.000
REMARK  3 active torsions:
REMARK  status: ('A' for Active; 'I' for Inactive)
REMARK    1  A    between atoms: N1_1  and  C1_2 
REMARK    2  A    between atoms: C10_13  and  O1_14 
REMARK    3  A    between atoms: N4_17  and  C13_18 
ROOT
HETATM    1  C1  UNL     1      21.589  -0.622  53.896  1.00  0.00     0.137 A 
HETATM    2  N2  UNL     1      21.759  -1.391  54.997  1.00  0.00    -0.224 NA
HETATM    3  C2  UNL     1      23.000  -1.558  55.462  1.00  0.00     0.237 A 
HETATM    4  N3  UNL     1      24.086  -0.996  54.886  1.00  0.00    -0.223 NA
HETATM    5  C3  UNL     1      23.964  -0.214  53.778  1.00  0.00     0.146 A 
HETATM    6  C4  UNL     1      22.694  -0.045  53.304  1.00  0.00     0.068 A 
HETATM    7  C5  UNL     1      22.673   0.752  52.197  1.00  0.00     0.008 A 
HETATM    8  C6  UNL     1      21.694   1.265  51.270  1.00  0.00    -0.021 A 
HETATM    9  C7  UNL     1      20.717   0.604  50.562  1.00  0.00     0.012 A 
HETATM   10  C8  UNL     1      19.845   1.240  49.720  1.00  0.00     0.004 A 
HETATM   11  C9  UNL     1      19.903   2.606  49.533  1.00  0.00     0.036 A 
HETATM   12  C10 UNL     1      20.862   3.325  50.214  1.00  0.00     0.066 A 
HETATM   13  C11 UNL     1      21.718   2.647  51.052  1.00  0.00     0.049 A 
HETATM   14  C12 UNL     1      24.021   1.076  52.007  1.00  0.00     0.106 A 
HETATM   15  N4  UNL     1      24.780   0.485  52.967  1.00  0.00    -0.335 N 
ENDROOT
BRANCH  15  16
HETATM   16  C13 UNL     1      26.214   0.551  53.150  1.00  0.00     0.093 C 
HETATM   17  C14 UNL     1      26.813   1.782  52.491  1.00  0.00     0.027 C 
HETATM   18  C15 UNL     1      27.950   2.240  53.380  1.00  0.00     0.032 C 
HETATM   19  C16 UNL     1      29.022   1.189  53.383  1.00  0.00     0.273 C 
HETATM   20  N5  UNL     1      28.715   0.037  54.166  1.00  0.00     0.093 N 
HETATM   21  C17 UNL     1      29.890  -0.828  54.209  1.00  0.00     0.275 C 
HETATM   22  C19 UNL     1      28.037  -1.018  53.507  1.00  0.00     0.226 C 
HETATM   23  C18 UNL     1      29.325  -1.521  52.964  1.00  0.00     0.066 C 
HETATM   24  C20 UNL     1      26.946  -0.628  52.564  1.00  0.00     0.061 C 
ENDBRANCH  15  16
BRANCH   1  25
HETATM   25  N1  UNL     1      20.272  -0.448  53.425  1.00  0.00    -0.383 N 
HETATM   26  H1  UNL     1      20.072   0.371  52.789  1.00  0.00     0.157 HD
HETATM   27  H2  UNL     1      19.333  -0.873  53.478  1.00  0.00     0.157 HD
ENDBRANCH   1  25
BRANCH  12  28
HETATM   28  O1  UNL     1      20.934   4.691  50.040  1.00  0.00    -0.361 OA
HETATM   29  H7  UNL     1      21.683   5.223  50.500  1.00  0.00     0.217 HD
ENDBRANCH  12  28
TORSDOF 3
ENDMDL
MODEL 2
REMARK VINA RESULT:      -8.6      4.429      6.609
REMARK  3 active torsions:
REMARK  status: ('A' for Active; 'I' for Inactive)
REMARK    1  A    between atoms: N1_1  and  C1_2 
REMARK    2  A    between atoms: C10_13  and  O1_14 
REMARK    3  A    between atoms: N4_17  and  C13_18 
ROOT
HETATM    1  C1  UNL     1      21.707   1.282  49.677  1.00  0.00     0.137 A 
HETATM    2  N2  UNL     1      21.131   1.582  48.489  1.00  0.00    -0.224 NA
HETATM    3  C2  UNL     1      21.667   2.565  47.760  1.00  0.00     0.237 A 
HETATM    4  N3  UNL     1      22.752   3.269  48.153  1.00  0.00    -0.223 NA
HETATM    5  C3  UNL     1      23.364   3.003  49.340  1.00  0.00     0.146 A 
HETATM    6  C4  UNL     1      22.815   1.998  50.083  1.00  0.00     0.068 A 
HETATM    7  C5  UNL     1      23.497   1.805  51.250  1.00  0.00     0.008 A 
HETATM    8  C6  UNL     1      23.407   0.954  52.410  1.00  0.00    -0.021 A 
HETATM    9  C7  UNL     1      22.335   0.690  53.231  1.00  0.00     0.012 A 
HETATM   10  C8  UNL     1      22.404  -0.163  54.299  1.00  0.00     0.004 A 
HETATM   11  C9  UNL     1      23.579  -0.816  54.616  1.00  0.00     0.036 A 
HETATM   12  C10 UNL     1      24.690  -0.592  53.831  1.00  0.00     0.066 A 
HETATM   13  C11 UNL     1      24.577   0.272  52.766  1.00  0.00     0.049 A 
HETATM   14  C12 UNL     1      24.518   2.761  51.188  1.00  0.00     0.106 A 
HETATM   15  N4  UNL     1      24.420   3.470  50.033  1.00  0.00    -0.335 N 
ENDROOT
BRANCH  15  16
HETATM   16  C13 UNL     1      25.264   4.547  49.563  1.00  0.00     0.093 C 
HETATM   17  C14 UNL     1      26.738   4.246  49.775  1.00  0.00     0.027 C 
HETATM   18  C15 UNL     1      27.477   4.847  48.597  1.00  0.00     0.032 C 
HETATM   19  C16 UNL     1      27.332   6.340  48.640  1.00  0.00     0.273 C 
HETATM   20  N5  UNL     1      26.052   6.820  48.233  1.00  0.00     0.093 N 
HETATM   21  C17 UNL     1      26.095   8.278  48.172  1.00  0.00     0.275 C 
HETATM   22  C19 UNL     1      25.071   6.951  49.247  1.00  0.00     0.226 C 
HETATM   23  C18 UNL     1      25.632   8.271  49.633  1.00  0.00     0.066 C 
HETATM   24  C20 UNL     1      25.006   5.857  50.263  1.00  0.00     0.061 C 
ENDBRANCH  15  16
BRANCH   1  25
HETATM   25  N1  UNL     1      21.135   0.236  50.428  1.00  0.00    -0.383 N 
HETATM   26  H1  UNL     1      21.781  -0.466  50.881  1.00  0.00     0.157 HD
HETATM   27  H2  UNL     1      20.221  -0.134  50.730  1.00  0.00     0.157 HD
ENDBRANCH   1  25
BRANCH  12  28
HETATM   28  O1  UNL     1      25.871  -1.236  54.131  1.00  0.00    -0.361 OA
HETATM   29  H7  UNL     1      26.602  -1.318  53.414  1.00  0.00     0.217 HD
ENDBRANCH  12  28
TORSDOF 3
ENDMDL
MODEL 3
REMARK VINA RESULT:      -8.5      5.007      6.721
REMARK  3 active torsions:
REMARK  status: ('A' for Active; 'I' for Inactive)
REMARK    1  A    between atoms: N1_1  and  C1_2 
REMARK    2  A    between atoms: C10_13  and  O1_14 
REMARK    3  A    between atoms: N4_17  and  C13_18 
ROOT
HETATM    1  C1  UNL     1      23.133   5.436  47.920  1.00  0.00     0.137 A 
HETATM    2  N2  UNL     1      22.036   4.705  47.612  1.00  0.00    -0.224 NA
HETATM    3  C2  UNL     1      21.839   3.560  48.271  1.00  0.00     0.237 A 
HETATM    4  N3  UNL     1      22.679   3.102  49.226  1.00  0.00    -0.223 NA
HETATM    5  C3  UNL     1      23.794   3.803  49.569  1.00  0.00     0.146 A 
HETATM    6  C4  UNL     1      23.995   4.973  48.894  1.00  0.00     0.068 A 
HETATM    7  C5  UNL     1      25.133   5.604  49.307  1.00  0.00     0.008 A 
HETATM    8  C6  UNL     1      25.866   6.803  48.985  1.00  0.00    -0.021 A 
HETATM    9  C7  UNL     1      26.289   7.278  47.765  1.00  0.00     0.012 A 
HETATM   10  C8  UNL     1      26.972   8.456  47.618  1.00  0.00     0.004 A 
HETATM   11  C9  UNL     1      27.278   9.243  48.710  1.00  0.00     0.036 A 
HETATM   12  C10 UNL     1      26.881   8.820  49.961  1.00  0.00     0.066 A 
HETATM   13  C11 UNL     1      26.196   7.631  50.064  1.00  0.00     0.049 A 
HETATM   14  C12 UNL     1      25.635   4.747  50.293  1.00  0.00     0.106 A 
HETATM   15  N4  UNL     1      24.817   3.671  50.435  1.00  0.00    -0.335 N 
ENDROOT
BRANCH  15  16
HETATM   16  C13 UNL     1      24.954   2.547  51.334  1.00  0.00     0.093 C 
HETATM   17  C14 UNL     1      24.114   2.720  52.589  1.00  0.00     0.027 C 
HETATM   18  C15 UNL     1      23.614   1.341  52.970  1.00  0.00     0.032 C 
HETATM   19  C16 UNL     1      24.786   0.485  53.351  1.00  0.00     0.273 C 
HETATM   20  N5  UNL     1      25.566   0.027  52.247  1.00  0.00     0.093 N 
HETATM   21  C17 UNL     1      26.569  -0.912  52.738  1.00  0.00     0.275 C 
HETATM   22  C19 UNL     1      26.634   0.861  51.834  1.00  0.00     0.226 C 
HETATM   23  C18 UNL     1      27.500   0.295  52.900  1.00  0.00     0.066 C 
HETATM   24  C20 UNL     1      26.367   2.331  51.811  1.00  0.00     0.061 C 
ENDBRANCH  15  16
BRANCH   1  25
HETATM   25  N1  UNL     1      23.322   6.646  47.222  1.00  0.00    -0.383 N 
HETATM   26  H1  UNL     1      23.297   6.624  46.167  1.00  0.00     0.157 HD
HETATM   27  H2  UNL     1      23.492   7.651  47.381  1.00  0.00     0.157 HD
ENDBRANCH   1  25
BRANCH  12  28
HETATM   28  O1  UNL     1      27.178   9.594  51.062  1.00  0.00    -0.361 OA
HETATM   29  H7  UNL     1      26.436  10.146  51.510  1.00  0.00     0.217 HD
ENDBRANCH  12  28
TORSDOF 3
ENDMDL
MODEL 4
REMARK VINA RESULT:      -8.4      3.166      7.886
REMARK  3 active torsions:
REMARK  status: ('A' for Active; 'I' for Inactive)
REMARK    1  A    between atoms: N1_1  and  C1_2 
REMARK    2  A    between atoms: C10_13  and  O1_14 
REMARK    3  A    between atoms: N4_17  and  C13_18 
ROOT
HETATM    1  C1  UNL     1      25.294   3.546  50.760  1.00  0.00     0.137 A 
HETATM    2  N2  UNL     1      25.064   4.684  50.063  1.00  0.00    -0.224 NA
HETATM    3  C2  UNL     1      23.799   4.993  49.763  1.00  0.00     0.237 A 
HETATM    4  N3  UNL     1      22.746   4.226  50.123  1.00  0.00    -0.223 NA
HETATM    5  C3  UNL     1      22.928   3.074  50.825  1.00  0.00     0.146 A 
HETATM    6  C4  UNL     1      24.222   2.759  51.130  1.00  0.00     0.068 A 
HETATM    7  C5  UNL     1      24.303   1.593  51.834  1.00  0.00     0.008 A 
HETATM    8  C6  UNL     1      25.333   0.759  52.402  1.00  0.00    -0.021 A 
HETATM    9  C7  UNL     1      26.478   0.255  51.829  1.00  0.00     0.012 A 
HETATM   10  C8  UNL     1      27.376  -0.521  52.511  1.00  0.00     0.004 A 
HETATM   11  C9  UNL     1      27.174  -0.845  53.838  1.00  0.00     0.036 A 
HETATM   12  C10 UNL     1      26.044  -0.371  54.469  1.00  0.00     0.066 A 
HETATM   13  C11 UNL     1      25.168   0.407  53.747  1.00  0.00     0.049 A 
HETATM   14  C12 UNL     1      22.966   1.195  51.953  1.00  0.00     0.106 A 
HETATM   15  N4  UNL     1      22.157   2.098  51.339  1.00  0.00    -0.335 N 
ENDROOT
BRANCH  15  16
HETATM   16  C13 UNL     1      20.715   2.081  51.221  1.00  0.00     0.093 C 
HETATM   17  C14 UNL     1      20.063   3.139  52.094  1.00  0.00     0.027 C 
HETATM   18  C15 UNL     1      18.854   3.644  51.333  1.00  0.00     0.032 C 
HETATM   19  C16 UNL     1      17.861   2.528  51.196  1.00  0.00     0.273 C 
HETATM   20  N5  UNL     1      18.211   1.544  50.224  1.00  0.00     0.093 N 
HETATM   21  C17 UNL     1      17.099   0.610  50.081  1.00  0.00     0.275 C 
HETATM   22  C19 UNL     1      18.993   0.453  50.676  1.00  0.00     0.226 C 
HETATM   23  C18 UNL     1      17.771  -0.229  51.175  1.00  0.00     0.066 C 
HETATM   24  C20 UNL     1      20.097   0.769  51.632  1.00  0.00     0.061 C 
ENDBRANCH  15  16
BRANCH   1  25
HETATM   25  N1  UNL     1      26.632   3.240  51.076  1.00  0.00    -0.383 N 
HETATM   26  H1  UNL     1      27.396   3.832  50.648  1.00  0.00     0.157 HD
HETATM   27  H2  UNL     1      27.200   2.581  51.630  1.00  0.00     0.157 HD
ENDBRANCH   1  25
BRANCH  12  28
HETATM   28  O1  UNL     1      25.827  -0.684  55.794  1.00  0.00    -0.361 OA
HETATM   29  H7  UNL     1      26.228  -1.545  56.185  1.00  0.00     0.217 HD
ENDBRANCH  12  28
TORSDOF 3
ENDMDL
MODEL 5
REMARK VINA RESULT:      -8.3      3.147      7.932
REMARK  3 active torsions:
REMARK  status: ('A' for Active; 'I' for Inactive)
REMARK    1  A    between atoms: N1_1  and  C1_2 
REMARK    2  A    between atoms: C10_13  and  O1_14 
REMARK    3  A    between atoms: N4_17  and  C13_18 
ROOT
HETATM    1  C1  UNL     1      23.167   4.049  51.832  1.00  0.00     0.137 A 
HETATM    2  N2  UNL     1      22.348   5.081  51.522  1.00  0.00    -0.224 NA
HETATM    3  C2  UNL     1      21.040   4.833  51.408  1.00  0.00     0.237 A 
HETATM    4  N3  UNL     1      20.502   3.607  51.589  1.00  0.00    -0.223 NA
HETATM    5  C3  UNL     1      21.286   2.539  51.903  1.00  0.00     0.146 A 
HETATM    6  C4  UNL     1      22.622   2.794  52.018  1.00  0.00     0.068 A 
HETATM    7  C5  UNL     1      23.324   1.667  52.336  1.00  0.00     0.008 A 
HETATM    8  C6  UNL     1      24.698   1.293  52.563  1.00  0.00    -0.021 A 
HETATM    9  C7  UNL     1      25.815   1.526  51.795  1.00  0.00     0.012 A 
HETATM   10  C8  UNL     1      27.069   1.114  52.157  1.00  0.00     0.004 A 
HETATM   11  C9  UNL     1      27.282   0.429  53.337  1.00  0.00     0.036 A 
HETATM   12  C10 UNL     1      26.201   0.165  54.150  1.00  0.00     0.066 A 
HETATM   13  C11 UNL     1      24.958   0.597  53.750  1.00  0.00     0.049 A 
HETATM   14  C12 UNL     1      22.332   0.682  52.415  1.00  0.00     0.106 A 
HETATM   15  N4  UNL     1      21.115   1.227  52.151  1.00  0.00    -0.335 N 
ENDROOT
BRANCH  15  16
HETATM   16  C13 UNL     1      19.823   0.576  52.124  1.00  0.00     0.093 C 
HETATM   17  C14 UNL     1      19.872  -0.807  52.752  1.00  0.00     0.027 C 
HETATM   18  C15 UNL     1      18.548  -1.009  53.458  1.00  0.00     0.032 C 
HETATM   19  C16 UNL     1      17.449  -1.039  52.437  1.00  0.00     0.273 C 
HETATM   20  N5  UNL     1      17.104   0.238  51.904  1.00  0.00     0.093 N 
HETATM   21  C17 UNL     1      15.931   0.089  51.049  1.00  0.00     0.275 C 
HETATM   22  C19 UNL     1      17.816   0.660  50.754  1.00  0.00     0.226 C 
HETATM   23  C18 UNL     1      16.907  -0.135  49.888  1.00  0.00     0.066 C 
HETATM   24  C20 UNL     1      19.283   0.378  50.731  1.00  0.00     0.061 C 
ENDBRANCH  15  16
BRANCH   1  25
HETATM   25  N1  UNL     1      24.542   4.328  51.957  1.00  0.00    -0.383 N 
HETATM   26  H1  UNL     1      25.199   3.528  52.169  1.00  0.00     0.157 HD
HETATM   27  H2  UNL     1      25.215   5.110  51.913  1.00  0.00     0.157 HD
ENDBRANCH   1  25
BRANCH  12  28
HETATM   28  O1  UNL     1      26.395  -0.517  55.332  1.00  0.00    -0.361 OA
HETATM   29  H7  UNL     1      27.237  -0.336  55.892  1.00  0.00     0.217 HD
ENDBRANCH  12  28
TORSDOF 3
ENDMDL
MODEL 6
REMARK VINA RESULT:      -8.2      2.594      4.278
REMARK  3 active torsions:
REMARK  status: ('A' for Active; 'I' for Inactive)
REMARK    1  A    between atoms: N1_1  and  C1_2 
REMARK    2  A    between atoms: C10_13  and  O1_14 
REMARK    3  A    between atoms: N4_17  and  C13_18 
ROOT
HETATM    1  C1  UNL     1      24.350   4.286  49.667  1.00  0.00     0.137 A 
HETATM    2  N2  UNL     1      25.479   4.778  49.107  1.00  0.00    -0.224 NA
HETATM    3  C2  UNL     1      26.642   4.200  49.423  1.00  0.00     0.237 A 
HETATM    4  N3  UNL     1      26.739   3.151  50.270  1.00  0.00    -0.223 NA
HETATM    5  C3  UNL     1      25.630   2.622  50.856  1.00  0.00     0.146 A 
HETATM    6  C4  UNL     1      24.443   3.215  50.533  1.00  0.00     0.068 A 
HETATM    7  C5  UNL     1      23.393   2.616  51.166  1.00  0.00     0.008 A 
HETATM    8  C6  UNL     1      21.963   2.782  51.251  1.00  0.00    -0.021 A 
HETATM    9  C7  UNL     1      21.219   3.907  51.519  1.00  0.00     0.012 A 
HETATM   10  C8  UNL     1      19.850   3.907  51.552  1.00  0.00     0.004 A 
HETATM   11  C9  UNL     1      19.131   2.753  51.314  1.00  0.00     0.036 A 
HETATM   12  C10 UNL     1      19.820   1.591  51.040  1.00  0.00     0.066 A 
HETATM   13  C11 UNL     1      21.196   1.635  51.015  1.00  0.00     0.049 A 
HETATM   14  C12 UNL     1      24.003   1.600  51.911  1.00  0.00     0.106 A 
HETATM   15  N4  UNL     1      25.347   1.622  51.712  1.00  0.00    -0.335 N 
ENDROOT
BRANCH  15  16
HETATM   16  C13 UNL     1      26.356   0.755  52.281  1.00  0.00     0.093 C 
HETATM   17  C14 UNL     1      25.767  -0.558  52.767  1.00  0.00     0.027 C 
HETATM   18  C15 UNL     1      26.807  -1.626  52.501  1.00  0.00     0.032 C 
HETATM   19  C16 UNL     1      28.014  -1.355  53.351  1.00  0.00     0.273 C 
HETATM   20  N5  UNL     1      28.829  -0.278  52.892  1.00  0.00     0.093 N 
HETATM   21  C17 UNL     1      30.037  -0.222  53.709  1.00  0.00     0.275 C 
HETATM   22  C19 UNL     1      28.511   1.013  53.379  1.00  0.00     0.226 C 
HETATM   23  C18 UNL     1      29.274   0.742  54.624  1.00  0.00     0.066 C 
HETATM   24  C20 UNL     1      27.059   1.357  53.470  1.00  0.00     0.061 C 
ENDBRANCH  15  16
BRANCH   1  25
HETATM   25  N1  UNL     1      23.132   4.901  49.316  1.00  0.00    -0.383 N 
HETATM   26  H1  UNL     1      22.559   5.350  50.082  1.00  0.00     0.157 HD
HETATM   27  H2  UNL     1      22.531   5.096  48.500  1.00  0.00     0.157 HD
ENDBRANCH   1  25
BRANCH  12  28
HETATM   28  O1  UNL     1      19.119   0.429  50.799  1.00  0.00    -0.361 OA
HETATM   29  H7  UNL     1      19.373  -0.432  51.299  1.00  0.00     0.217 HD
ENDBRANCH  12  28
TORSDOF 3
ENDMDL
MODEL 7
REMARK VINA RESULT:      -8.0      2.469      7.363
REMARK  3 active torsions:
REMARK  status: ('A' for Active; 'I' for Inactive)
REMARK    1  A    between atoms: N1_1  and  C1_2 
REMARK    2  A    between atoms: C10_13  and  O1_14 
REMARK    3  A    between atoms: N4_17  and  C13_18 
ROOT
HETATM    1  C1  UNL     1      23.049  -0.843  54.299  1.00  0.00     0.137 A 
HETATM    2  N2  UNL     1      22.225  -1.775  54.832  1.00  0.00    -0.224 NA
HETATM    3  C2  UNL     1      20.924  -1.710  54.533  1.00  0.00     0.237 A 
HETATM    4  N3  UNL     1      20.398  -0.761  53.727  1.00  0.00    -0.223 NA
HETATM    5  C3  UNL     1      21.188   0.197  53.168  1.00  0.00     0.146 A 
HETATM    6  C4  UNL     1      22.517   0.129  53.475  1.00  0.00     0.068 A 
HETATM    7  C5  UNL     1      23.225   1.125  52.869  1.00  0.00     0.008 A 
HETATM    8  C6  UNL     1      24.591   1.583  52.815  1.00  0.00    -0.021 A 
HETATM    9  C7  UNL     1      25.471   1.857  53.836  1.00  0.00     0.012 A 
HETATM   10  C8  UNL     1      26.757   2.277  53.622  1.00  0.00     0.004 A 
HETATM   11  C9  UNL     1      27.246   2.451  52.343  1.00  0.00     0.036 A 
HETATM   12  C10 UNL     1      26.411   2.194  51.276  1.00  0.00     0.066 A 
HETATM   13  C11 UNL     1      25.127   1.772  51.536  1.00  0.00     0.049 A 
HETATM   14  C12 UNL     1      22.246   1.827  52.155  1.00  0.00     0.106 A 
HETATM   15  N4  UNL     1      21.030   1.253  52.349  1.00  0.00    -0.335 N 
ENDROOT
BRANCH  15  16
HETATM   16  C13 UNL     1      19.750   1.650  51.805  1.00  0.00     0.093 C 
HETATM   17  C14 UNL     1      19.230   0.646  50.789  1.00  0.00     0.027 C 
HETATM   18  C15 UNL     1      17.725   0.606  50.951  1.00  0.00     0.032 C 
HETATM   19  C16 UNL     1      17.156   1.940  50.566  1.00  0.00     0.273 C 
HETATM   20  N5  UNL     1      17.351   2.966  51.537  1.00  0.00     0.093 N 
HETATM   21  C17 UNL     1      16.624   4.158  51.114  1.00  0.00     0.275 C 
HETATM   22  C19 UNL     1      18.542   3.727  51.428  1.00  0.00     0.226 C 
HETATM   23  C18 UNL     1      17.908   4.588  50.397  1.00  0.00     0.066 C 
HETATM   24  C20 UNL     1      19.789   2.976  51.090  1.00  0.00     0.061 C 
ENDBRANCH  15  16
BRANCH   1  25
HETATM   25  N1  UNL     1      24.419  -0.932  54.616  1.00  0.00    -0.383 N 
HETATM   26  H1  UNL     1      25.014  -0.066  54.513  1.00  0.00     0.157 HD
HETATM   27  H2  UNL     1      25.129  -1.604  54.948  1.00  0.00     0.157 HD
ENDBRANCH   1  25
BRANCH  12  28
HETATM   28  O1  UNL     1      26.883   2.361  49.992  1.00  0.00    -0.361 OA
HETATM   29  H7  UNL     1      27.625   1.744  49.638  1.00  0.00     0.217 HD
ENDBRANCH  12  28
TORSDOF 3
ENDMDL
MODEL 8
REMARK VINA RESULT:      -7.7      3.171      6.350
REMARK  3 active torsions:
REMARK  status: ('A' for Active; 'I' for Inactive)
REMARK    1  A    between atoms: N1_1  and  C1_2 
REMARK    2  A    between atoms: C10_13  and  O1_14 
REMARK    3  A    between atoms: N4_17  and  C13_18 
ROOT
HETATM    1  C1  UNL     1      26.186   3.572  50.244  1.00  0.00     0.137 A 
HETATM    2  N2  UNL     1      27.060   2.765  50.890  1.00  0.00    -0.224 NA
HETATM    3  C2  UNL     1      26.568   1.765  51.625  1.00  0.00     0.237 A 
HETATM    4  N3  UNL     1      25.245   1.522  51.751  1.00  0.00    -0.223 NA
HETATM    5  C3  UNL     1      24.328   2.306  51.120  1.00  0.00     0.146 A 
HETATM    6  C4  UNL     1      24.833   3.329  50.370  1.00  0.00     0.068 A 
HETATM    7  C5  UNL     1      23.841   4.056  49.776  1.00  0.00     0.008 A 
HETATM    8  C6  UNL     1      23.730   5.212  48.922  1.00  0.00    -0.021 A 
HETATM    9  C7  UNL     1      24.288   6.462  49.051  1.00  0.00     0.012 A 
HETATM   10  C8  UNL     1      24.097   7.464  48.138  1.00  0.00     0.004 A 
HETATM   11  C9  UNL     1      23.317   7.266  47.016  1.00  0.00     0.036 A 
HETATM   12  C10 UNL     1      22.729   6.034  46.831  1.00  0.00     0.066 A 
HETATM   13  C11 UNL     1      22.947   5.054  47.772  1.00  0.00     0.049 A 
HETATM   14  C12 UNL     1      22.673   3.415  50.206  1.00  0.00     0.106 A 
HETATM   15  N4  UNL     1      22.987   2.368  51.013  1.00  0.00    -0.335 N 
ENDROOT
BRANCH  15  16
HETATM   16  C13 UNL     1      22.095   1.439  51.673  1.00  0.00     0.093 C 
HETATM   17  C14 UNL     1      20.636   1.754  51.386  1.00  0.00     0.027 C 
HETATM   18  C15 UNL     1      19.914   0.426  51.304  1.00  0.00     0.032 C 
HETATM   19  C16 UNL     1      19.955  -0.237  52.650  1.00  0.00     0.273 C 
HETATM   20  N5  UNL     1      21.217  -0.809  52.987  1.00  0.00     0.093 N 
HETATM   21  C17 UNL     1      21.078  -1.549  54.238  1.00  0.00     0.275 C 
HETATM   22  C19 UNL     1      22.139   0.033  53.656  1.00  0.00     0.226 C 
HETATM   23  C18 UNL     1      21.473  -0.252  54.953  1.00  0.00     0.066 C 
HETATM   24  C20 UNL     1      22.231   1.444  53.174  1.00  0.00     0.061 C 
ENDBRANCH  15  16
BRANCH   1  25
HETATM   25  N1  UNL     1      26.722   4.617  49.465  1.00  0.00    -0.383 N 
HETATM   26  H1  UNL     1      26.055   5.229  48.922  1.00  0.00     0.157 HD
HETATM   27  H2  UNL     1      27.622   5.049  49.204  1.00  0.00     0.157 HD
ENDBRANCH   1  25
BRANCH  12  28
HETATM   28  O1  UNL     1      21.947   5.818  45.716  1.00  0.00    -0.361 OA
HETATM   29  H7  UNL     1      21.878   4.874  45.318  1.00  0.00     0.217 HD
ENDBRANCH  12  28
TORSDOF 3
ENDMDL
MODEL 9
REMARK VINA RESULT:      -7.7      8.306     11.905
REMARK  3 active torsions:
REMARK  status: ('A' for Active; 'I' for Inactive)
REMARK    1  A    between atoms: N1_1  and  C1_2 
REMARK    2  A    between atoms: C10_13  and  O1_14 
REMARK    3  A    between atoms: N4_17  and  C13_18 
ROOT
HETATM    1  C1  UNL     1      31.929   8.483  47.882  1.00  0.00     0.137 A 
HETATM    2  N2  UNL     1      31.647   9.764  48.216  1.00  0.00    -0.224 NA
HETATM    3  C2  UNL     1      30.399  10.056  48.593  1.00  0.00     0.237 A 
HETATM    4  N3  UNL     1      29.412   9.135  48.658  1.00  0.00    -0.223 NA
HETATM    5  C3  UNL     1      29.649   7.834  48.333  1.00  0.00     0.146 A 
HETATM    6  C4  UNL     1      30.925   7.538  47.946  1.00  0.00     0.068 A 
HETATM    7  C5  UNL     1      31.065   6.214  47.644  1.00  0.00     0.008 A 
HETATM    8  C6  UNL     1      32.104   5.330  47.179  1.00  0.00    -0.021 A 
HETATM    9  C7  UNL     1      32.956   5.456  46.106  1.00  0.00     0.012 A 
HETATM   10  C8  UNL     1      33.911   4.525  45.798  1.00  0.00     0.004 A 
HETATM   11  C9  UNL     1      34.072   3.388  46.564  1.00  0.00     0.036 A 
HETATM   12  C10 UNL     1      33.247   3.204  47.653  1.00  0.00     0.066 A 
HETATM   13  C11 UNL     1      32.301   4.164  47.928  1.00  0.00     0.049 A 
HETATM   14  C12 UNL     1      29.784   5.696  47.869  1.00  0.00     0.106 A 
HETATM   15  N4  UNL     1      28.949   6.685  48.281  1.00  0.00    -0.335 N 
ENDROOT
BRANCH  15  16
HETATM   16  C13 UNL     1      27.546   6.596  48.624  1.00  0.00     0.093 C 
HETATM   17  C14 UNL     1      27.061   5.156  48.656  1.00  0.00     0.027 C 
HETATM   18  C15 UNL     1      26.039   5.067  49.769  1.00  0.00     0.032 C 
HETATM   19  C16 UNL     1      24.852   5.912  49.412  1.00  0.00     0.273 C 
HETATM   20  N5  UNL     1      25.063   7.315  49.557  1.00  0.00     0.093 N 
HETATM   21  C17 UNL     1      23.797   8.006  49.330  1.00  0.00     0.275 C 
HETATM   22  C19 UNL     1      25.572   8.002  48.427  1.00  0.00     0.226 C 
HETATM   23  C18 UNL     1      24.204   8.095  47.855  1.00  0.00     0.066 C 
HETATM   24  C20 UNL     1      26.646   7.312  47.650  1.00  0.00     0.061 C 
ENDBRANCH  15  16
BRANCH   1  25
HETATM   25  N1  UNL     1      33.252   8.191  47.496  1.00  0.00    -0.383 N 
HETATM   26  H1  UNL     1      33.478   7.206  47.188  1.00  0.00     0.157 HD
HETATM   27  H2  UNL     1      34.179   8.633  47.391  1.00  0.00     0.157 HD
ENDBRANCH   1  25
BRANCH  12  28
HETATM   28  O1  UNL     1      33.394   2.074  48.429  1.00  0.00    -0.361 OA
HETATM   29  H7  UNL     1      32.688   1.852  49.142  1.00  0.00     0.217 HD
ENDBRANCH  12  28
TORSDOF 3
ENDMDL
