MODEL 1
REMARK VINA RESULT:      -8.4      0.000      0.000
REMARK  5 active torsions:
REMARK  status: ('A' for Active; 'I' for Inactive)
REMARK    1  A    between atoms: C1_2  and  O2_3 
REMARK    2  A    between atoms: C1_2  and  C2_4 
REMARK    3  A    between atoms: C2_4  and  P1_5 
REMARK    4  A    between atoms: C7_11  and  N2_12 
REMARK    5  A    between atoms: N2_12  and  C8_13 
ROOT
HETATM    1  P1  UNL     1      26.889   0.258  52.683  1.00  0.00    -0.076 P 
HETATM    2  C3  UNL     1      26.330   0.633  52.481  1.00  0.00     0.116 C 
HETATM    3  C4  UNL     1      25.680   1.839  51.536  1.00  0.00     0.006 C 
HETATM    4  C5  UNL     1      26.221   2.966  50.365  1.00  0.00     0.129 C 
HETATM    5  N1  UNL     1      25.578   4.141  50.839  1.00  0.00    -0.383 N 
HETATM    6  C6  UNL     1      24.281   4.700  50.916  1.00  0.00     0.128 A 
HETATM    7  C7  UNL     1      24.361   6.067  50.974  1.00  0.00     0.160 A 
HETATM    8  N3  UNL     1      23.190   6.706  51.103  1.00  0.00    -0.222 NA
HETATM    9  C14 UNL     1      22.022   6.050  51.168  1.00  0.00     0.238 A 
HETATM   10  N4  UNL     1      21.989   4.672  51.103  1.00  0.00    -0.216 NA
HETATM   11  C15 UNL     1      23.076   3.987  50.981  1.00  0.00     0.197 A 
HETATM   12  O3  UNL     1      22.985   2.557  50.931  1.00  0.00    -0.320 OA
HETATM   13  C16 UNL     1      24.062   1.747  51.626  1.00  0.00     0.084 A 
HETATM   14  C17 UNL     1      24.007   0.679  52.524  1.00  0.00     0.036 A 
HETATM   15  C18 UNL     1      24.913   1.452  52.060  1.00  0.00     0.117 A 
HETATM   16  H5  UNL     1      26.331   4.752  51.278  1.00  0.00     0.159 HD
ENDROOT
BRANCH   7  17
HETATM   17  N2  UNL     1      25.574   6.788  50.912  1.00  0.00    -0.339 N 
HETATM   18  H6  UNL     1      26.324   6.964  51.603  1.00  0.00     0.167 HD
BRANCH  17  19
HETATM   19  C8  UNL     1      26.062   7.458  49.760  1.00  0.00     0.035 A 
HETATM   20  C9  UNL     1      26.768   6.771  48.802  1.00  0.00     0.029 A 
HETATM   21  C10 UNL     1      27.231   7.361  47.672  1.00  0.00     0.004 A 
HETATM   22  C11 UNL     1      27.037   8.699  47.383  1.00  0.00     0.019 A 
HETATM   23  C12 UNL     1      26.334   9.438  48.312  1.00  0.00     0.013 A 
HETATM   24 BR1  UNL     1      25.951  11.291  48.123  1.00  0.00    -0.051 Br
HETATM   25  C13 UNL     1      25.871   8.816  49.457  1.00  0.00     0.048 A 
ENDBRANCH  17  19
ENDBRANCH   7  17
BRANCH   1  26
HETATM   26  C2  UNL     1      28.072  -0.496  53.087  1.00  0.00    -0.057 C 
BRANCH  26  27
HETATM   27  C1  UNL     1      29.198  -1.222  53.447  1.00  0.00     0.216 C 
HETATM   28  O1  UNL     1      30.102  -0.417  53.654  1.00  0.00    -0.640 OA
BRANCH  27  29
HETATM   29  O2  UNL     1      28.824  -2.583  53.420  1.00  0.00    -0.767 OA
HETATM   30  H1  UNL     1      28.157  -2.866  54.171  1.00  0.00     0.168 HD
ENDBRANCH  27  29
ENDBRANCH  26  27
ENDBRANCH   1  26
TORSDOF 5
ENDMDL
MODEL 2
REMARK VINA RESULT:      -8.1      4.272      7.406
REMARK  5 active torsions:
REMARK  status: ('A' for Active; 'I' for Inactive)
REMARK    1  A    between atoms: C1_2  and  O2_3 
REMARK    2  A    between atoms: C1_2  and  C2_4 
REMARK    3  A    between atoms: C2_4  and  P1_5 
REMARK    4  A    between atoms: C7_11  and  N2_12 
REMARK    5  A    between atoms: N2_12  and  C8_13 
ROOT
HETATM    1  P1  UNL     1      25.547   7.135  49.698  1.00  0.00    -0.076 P 
HETATM    2  C3  UNL     1      25.032   6.659  49.656  1.00  0.00     0.116 C 
HETATM    3  C4  UNL     1      23.941   5.659  50.418  1.00  0.00     0.006 C 
HETATM    4  C5  UNL     1      23.493   5.255  52.022  1.00  0.00     0.129 C 
HETATM    5  N1  UNL     1      23.444   3.839  51.914  1.00  0.00    -0.383 N 
HETATM    6  C6  UNL     1      22.639   2.832  51.334  1.00  0.00     0.128 A 
HETATM    7  C7  UNL     1      22.785   1.658  52.025  1.00  0.00     0.160 A 
HETATM    8  N3  UNL     1      22.105   0.613  51.533  1.00  0.00    -0.222 NA
HETATM    9  C14 UNL     1      21.334   0.715  50.439  1.00  0.00     0.238 A 
HETATM   10  N4  UNL     1      21.215   1.918  49.777  1.00  0.00    -0.216 NA
HETATM   11  C15 UNL     1      21.841   2.968  50.190  1.00  0.00     0.197 A 
HETATM   12  O3  UNL     1      21.691   4.191  49.456  1.00  0.00    -0.320 OA
HETATM   13  C16 UNL     1      22.903   5.090  49.308  1.00  0.00     0.084 A 
HETATM   14  C17 UNL     1      23.485   5.714  48.203  1.00  0.00     0.036 A 
HETATM   15  C18 UNL     1      23.789   5.536  49.431  1.00  0.00     0.117 A 
HETATM   16  H5  UNL     1      24.300   3.460  52.422  1.00  0.00     0.159 HD
ENDROOT
BRANCH   7  17
HETATM   17  N2  UNL     1      23.590   1.516  53.177  1.00  0.00    -0.339 N 
HETATM   18  H6  UNL     1      23.429   1.725  54.178  1.00  0.00     0.167 HD
BRANCH  17  19
HETATM   19  C8  UNL     1      24.903   0.977  53.188  1.00  0.00     0.035 A 
HETATM   20  C9  UNL     1      25.109  -0.358  52.932  1.00  0.00     0.029 A 
HETATM   21  C10 UNL     1      26.346  -0.914  52.905  1.00  0.00     0.004 A 
HETATM   22  C11 UNL     1      27.505  -0.194  53.132  1.00  0.00     0.019 A 
HETATM   23  C12 UNL     1      27.355   1.153  53.394  1.00  0.00     0.013 A 
HETATM   24 BR1  UNL     1      28.808   2.333  53.735  1.00  0.00    -0.051 Br
HETATM   25  C13 UNL     1      26.086   1.698  53.416  1.00  0.00     0.048 A 
ENDBRANCH  17  19
ENDBRANCH   7  17
BRANCH   1  26
HETATM   26  C2  UNL     1      26.621   8.117  49.819  1.00  0.00    -0.057 C 
BRANCH  26  27
HETATM   27  C1  UNL     1      27.626   9.068  49.922  1.00  0.00     0.216 C 
HETATM   28  O1  UNL     1      28.154   9.163  48.818  1.00  0.00    -0.640 OA
BRANCH  27  29
HETATM   29  O2  UNL     1      27.615   9.521  51.259  1.00  0.00    -0.767 OA
HETATM   30  H1  UNL     1      27.883  10.522  51.382  1.00  0.00     0.168 HD
ENDBRANCH  27  29
ENDBRANCH  26  27
ENDBRANCH   1  26
TORSDOF 5
ENDMDL
MODEL 3
REMARK VINA RESULT:      -7.9      4.171      6.565
REMARK  5 active torsions:
REMARK  status: ('A' for Active; 'I' for Inactive)
REMARK    1  A    between atoms: C1_2  and  O2_3 
REMARK    2  A    between atoms: C1_2  and  C2_4 
REMARK    3  A    between atoms: C2_4  and  P1_5 
REMARK    4  A    between atoms: C7_11  and  N2_12 
REMARK    5  A    between atoms: N2_12  and  C8_13 
ROOT
HETATM    1  P1  UNL     1      26.981   1.764  52.316  1.00  0.00    -0.076 P 
HETATM    2  C3  UNL     1      26.553   2.138  51.902  1.00  0.00     0.116 C 
HETATM    3  C4  UNL     1      25.249   3.158  51.740  1.00  0.00     0.006 C 
HETATM    4  C5  UNL     1      24.099   3.922  52.754  1.00  0.00     0.129 C 
HETATM    5  N1  UNL     1      22.908   3.643  52.031  1.00  0.00    -0.383 N 
HETATM    6  C6  UNL     1      22.258   4.037  50.838  1.00  0.00     0.128 A 
HETATM    7  C7  UNL     1      20.907   3.838  50.952  1.00  0.00     0.160 A 
HETATM    8  N3  UNL     1      20.190   4.128  49.858  1.00  0.00    -0.222 NA
HETATM    9  C14 UNL     1      20.758   4.584  48.731  1.00  0.00     0.238 A 
HETATM   10  N4  UNL     1      22.123   4.772  48.663  1.00  0.00    -0.216 NA
HETATM   11  C15 UNL     1      22.880   4.512  49.675  1.00  0.00     0.197 A 
HETATM   12  O3  UNL     1      24.294   4.714  49.546  1.00  0.00    -0.320 OA
HETATM   13  C16 UNL     1      25.222   3.721  50.218  1.00  0.00     0.084 A 
HETATM   14  C17 UNL     1      26.334   3.011  49.760  1.00  0.00     0.036 A 
HETATM   15  C18 UNL     1      25.606   3.013  50.810  1.00  0.00     0.117 A 
HETATM   16  H5  UNL     1      22.383   2.894  52.574  1.00  0.00     0.159 HD
ENDROOT
BRANCH   7  17
HETATM   17  N2  UNL     1      20.278   3.357  52.120  1.00  0.00    -0.339 N 
HETATM   18  H6  UNL     1      19.954   3.820  52.987  1.00  0.00     0.167 HD
BRANCH  17  19
HETATM   19  C8  UNL     1      19.901   2.006  52.342  1.00  0.00     0.035 A 
HETATM   20  C9  UNL     1      18.782   1.487  51.738  1.00  0.00     0.029 A 
HETATM   21  C10 UNL     1      18.396   0.197  51.897  1.00  0.00     0.004 A 
HETATM   22  C11 UNL     1      19.090  -0.709  52.679  1.00  0.00     0.019 A 
HETATM   23  C12 UNL     1      20.224  -0.241  53.310  1.00  0.00     0.013 A 
HETATM   24 BR1  UNL     1      21.330  -1.307  54.432  1.00  0.00    -0.051 Br
HETATM   25  C13 UNL     1      20.598   1.078  53.133  1.00  0.00     0.048 A 
ENDBRANCH  17  19
ENDBRANCH   7  17
BRANCH   1  26
HETATM   26  C2  UNL     1      27.844   0.991  53.204  1.00  0.00    -0.057 C 
BRANCH  26  27
HETATM   27  C1  UNL     1      28.685   0.273  54.042  1.00  0.00     0.216 C 
HETATM   28  O1  UNL     1      27.978  -0.291  54.873  1.00  0.00    -0.640 OA
BRANCH  27  29
HETATM   29  O2  UNL     1      30.000   0.499  53.582  1.00  0.00    -0.767 OA
HETATM   30  H1  UNL     1      30.744   0.354  54.300  1.00  0.00     0.168 HD
ENDBRANCH  27  29
ENDBRANCH  26  27
ENDBRANCH   1  26
TORSDOF 5
ENDMDL
MODEL 4
REMARK VINA RESULT:      -7.8      4.844      7.467
REMARK  5 active torsions:
REMARK  status: ('A' for Active; 'I' for Inactive)
REMARK    1  A    between atoms: C1_2  and  O2_3 
REMARK    2  A    between atoms: C1_2  and  C2_4 
REMARK    3  A    between atoms: C2_4  and  P1_5 
REMARK    4  A    between atoms: C7_11  and  N2_12 
REMARK    5  A    between atoms: N2_12  and  C8_13 
ROOT
HETATM    1  P1  UNL     1      27.048  -0.170  52.935  1.00  0.00    -0.076 P 
HETATM    2  C3  UNL     1      26.561   0.333  52.862  1.00  0.00     0.116 C 
HETATM    3  C4  UNL     1      24.983   0.833  53.033  1.00  0.00     0.006 C 
HETATM    4  C5  UNL     1      23.499   0.186  53.591  1.00  0.00     0.129 C 
HETATM    5  N1  UNL     1      22.638   0.602  52.539  1.00  0.00    -0.383 N 
HETATM    6  C6  UNL     1      22.045   1.785  52.041  1.00  0.00     0.128 A 
HETATM    7  C7  UNL     1      20.898   1.482  51.355  1.00  0.00     0.160 A 
HETATM    8  N3  UNL     1      20.274   2.525  50.789  1.00  0.00    -0.222 NA
HETATM    9  C14 UNL     1      20.742   3.778  50.892  1.00  0.00     0.238 A 
HETATM   10  N4  UNL     1      21.900   4.036  51.595  1.00  0.00    -0.216 NA
HETATM   11  C15 UNL     1      22.557   3.084  52.165  1.00  0.00     0.197 A 
HETATM   12  O3  UNL     1      23.762   3.407  52.873  1.00  0.00    -0.320 OA
HETATM   13  C16 UNL     1      24.923   2.436  52.789  1.00  0.00     0.084 A 
HETATM   14  C17 UNL     1      26.279   2.611  52.503  1.00  0.00     0.036 A 
HETATM   15  C18 UNL     1      25.486   1.620  52.659  1.00  0.00     0.117 A 
HETATM   16  H5  UNL     1      22.407  -0.264  51.966  1.00  0.00     0.159 HD
ENDROOT
BRANCH   7  17
HETATM   17  N2  UNL     1      20.380   0.175  51.225  1.00  0.00    -0.339 N 
HETATM   18  H6  UNL     1      20.775  -0.704  50.849  1.00  0.00     0.167 HD
BRANCH  17  19
HETATM   19  C8  UNL     1      19.091  -0.235  51.656  1.00  0.00     0.035 A 
HETATM   20  C9  UNL     1      18.921  -0.807  52.894  1.00  0.00     0.029 A 
HETATM   21  C10 UNL     1      17.707  -1.190  53.361  1.00  0.00     0.004 A 
HETATM   22  C11 UNL     1      16.536  -1.041  52.640  1.00  0.00     0.019 A 
HETATM   23  C12 UNL     1      16.650  -0.471  51.388  1.00  0.00     0.013 A 
HETATM   24 BR1  UNL     1      15.176  -0.171  50.223  1.00  0.00    -0.051 Br
HETATM   25  C13 UNL     1      17.897  -0.088  50.932  1.00  0.00     0.048 A 
ENDBRANCH  17  19
ENDBRANCH   7  17
BRANCH   1  26
HETATM   26  C2  UNL     1      28.032  -1.237  53.092  1.00  0.00    -0.057 C 
BRANCH  26  27
HETATM   27  C1  UNL     1      28.963  -2.258  53.216  1.00  0.00     0.216 C 
HETATM   28  O1  UNL     1      30.013  -1.751  53.600  1.00  0.00    -0.640 OA
BRANCH  27  29
HETATM   29  O2  UNL     1      28.303  -3.450  52.845  1.00  0.00    -0.767 OA
HETATM   30  H1  UNL     1      27.588  -3.783  53.528  1.00  0.00     0.168 HD
ENDBRANCH  27  29
ENDBRANCH  26  27
ENDBRANCH   1  26
TORSDOF 5
ENDMDL
MODEL 5
REMARK VINA RESULT:      -7.8      4.800      6.958
REMARK  5 active torsions:
REMARK  status: ('A' for Active; 'I' for Inactive)
REMARK    1  A    between atoms: C1_2  and  O2_3 
REMARK    2  A    between atoms: C1_2  and  C2_4 
REMARK    3  A    between atoms: C2_4  and  P1_5 
REMARK    4  A    between atoms: C7_11  and  N2_12 
REMARK    5  A    between atoms: N2_12  and  C8_13 
ROOT
HETATM    1  P1  UNL     1      25.122   4.245  50.018  1.00  0.00    -0.076 P 
HETATM    2  C3  UNL     1      25.380   4.804  49.678  1.00  0.00     0.116 C 
HETATM    3  C4  UNL     1      26.644   5.540  48.886  1.00  0.00     0.006 C 
HETATM    4  C5  UNL     1      28.260   5.171  48.453  1.00  0.00     0.129 C 
HETATM    5  N1  UNL     1      28.903   6.375  48.848  1.00  0.00    -0.383 N 
HETATM    6  C6  UNL     1      29.001   7.725  48.439  1.00  0.00     0.128 A 
HETATM    7  C7  UNL     1      30.181   8.264  48.879  1.00  0.00     0.160 A 
HETATM    8  N3  UNL     1      30.363   9.561  48.594  1.00  0.00    -0.222 NA
HETATM    9  C14 UNL     1      29.450  10.278  47.921  1.00  0.00     0.238 A 
HETATM   10  N4  UNL     1      28.276   9.693  47.495  1.00  0.00    -0.216 NA
HETATM   11  C15 UNL     1      28.030   8.449  47.734  1.00  0.00     0.197 A 
HETATM   12  O3  UNL     1      26.788   7.894  47.278  1.00  0.00    -0.320 OA
HETATM   13  C16 UNL     1      26.088   6.884  48.166  1.00  0.00     0.084 A 
HETATM   14  C17 UNL     1      24.770   6.780  48.618  1.00  0.00     0.036 A 
HETATM   15  C18 UNL     1      25.881   6.195  48.860  1.00  0.00     0.117 A 
HETATM   16  H5  UNL     1      29.451   6.158  49.734  1.00  0.00     0.159 HD
ENDROOT
BRANCH   7  17
HETATM   17  N2  UNL     1      31.161   7.539  49.592  1.00  0.00    -0.339 N 
HETATM   18  H6  UNL     1      31.265   7.293  50.592  1.00  0.00     0.167 HD
BRANCH  17  19
HETATM   19  C8  UNL     1      32.298   6.920  49.009  1.00  0.00     0.035 A 
HETATM   20  C9  UNL     1      33.452   7.636  48.804  1.00  0.00     0.029 A 
HETATM   21  C10 UNL     1      34.571   7.082  48.275  1.00  0.00     0.004 A 
HETATM   22  C11 UNL     1      34.652   5.755  47.896  1.00  0.00     0.019 A 
HETATM   23  C12 UNL     1      33.519   4.988  48.079  1.00  0.00     0.013 A 
HETATM   24 BR1  UNL     1      33.403   3.144  47.628  1.00  0.00    -0.051 Br
HETATM   25  C13 UNL     1      32.390   5.574  48.620  1.00  0.00     0.048 A 
ENDBRANCH  17  19
ENDBRANCH   7  17
BRANCH   1  26
HETATM   26  C2  UNL     1      24.621   3.072  50.727  1.00  0.00    -0.057 C 
BRANCH  26  27
HETATM   27  C1  UNL     1      24.126   1.953  51.382  1.00  0.00     0.216 C 
HETATM   28  O1  UNL     1      25.090   1.319  51.802  1.00  0.00    -0.640 OA
BRANCH  27  29
HETATM   29  O2  UNL     1      22.719   2.019  51.284  1.00  0.00    -0.767 OA
HETATM   30  H1  UNL     1      22.350   2.012  50.307  1.00  0.00     0.168 HD
ENDBRANCH  27  29
ENDBRANCH  26  27
ENDBRANCH   1  26
TORSDOF 5
ENDMDL
MODEL 6
REMARK VINA RESULT:      -7.7      3.432      5.917
REMARK  5 active torsions:
REMARK  status: ('A' for Active; 'I' for Inactive)
REMARK    1  A    between atoms: C1_2  and  O2_3 
REMARK    2  A    between atoms: C1_2  and  C2_4 
REMARK    3  A    between atoms: C2_4  and  P1_5 
REMARK    4  A    between atoms: C7_11  and  N2_12 
REMARK    5  A    between atoms: N2_12  and  C8_13 
ROOT
HETATM    1  P1  UNL     1      19.880   0.382  51.738  1.00  0.00    -0.076 P 
HETATM    2  C3  UNL     1      20.525   0.487  51.999  1.00  0.00     0.116 C 
HETATM    3  C4  UNL     1      21.844   1.483  52.197  1.00  0.00     0.006 C 
HETATM    4  C5  UNL     1      22.324   3.062  51.740  1.00  0.00     0.129 C 
HETATM    5  N1  UNL     1      23.644   2.797  51.286  1.00  0.00    -0.383 N 
HETATM    6  C6  UNL     1      24.913   2.460  51.809  1.00  0.00     0.128 A 
HETATM    7  C7  UNL     1      25.899   2.873  50.951  1.00  0.00     0.160 A 
HETATM    8  N3  UNL     1      27.149   2.560  51.319  1.00  0.00    -0.222 NA
HETATM    9  C14 UNL     1      27.413   1.890  52.451  1.00  0.00     0.238 A 
HETATM   10  N4  UNL     1      26.388   1.496  53.286  1.00  0.00    -0.216 NA
HETATM   11  C15 UNL     1      25.159   1.759  52.998  1.00  0.00     0.197 A 
HETATM   12  O3  UNL     1      24.132   1.316  53.895  1.00  0.00    -0.320 OA
HETATM   13  C16 UNL     1      22.830   0.816  53.300  1.00  0.00     0.084 A 
HETATM   14  C17 UNL     1      22.073  -0.337  53.522  1.00  0.00     0.036 A 
HETATM   15  C18 UNL     1      22.061   0.632  52.689  1.00  0.00     0.117 A 
HETATM   16  H5  UNL     1      23.625   2.865  50.224  1.00  0.00     0.159 HD
ENDROOT
BRANCH   7  17
HETATM   17  N2  UNL     1      25.656   3.576  49.751  1.00  0.00    -0.339 N 
HETATM   18  H6  UNL     1      25.019   3.406  48.953  1.00  0.00     0.167 HD
BRANCH  17  19
HETATM   19  C8  UNL     1      26.283   4.796  49.383  1.00  0.00     0.035 A 
HETATM   20  C9  UNL     1      27.467   4.786  48.686  1.00  0.00     0.029 A 
HETATM   21  C10 UNL     1      28.091   5.923  48.289  1.00  0.00     0.004 A 
HETATM   22  C11 UNL     1      27.595   7.188  48.548  1.00  0.00     0.019 A 
HETATM   23  C12 UNL     1      26.407   7.256  49.247  1.00  0.00     0.013 A 
HETATM   24 BR1  UNL     1      25.544   8.885  49.715  1.00  0.00    -0.051 Br
HETATM   25  C13 UNL     1      25.789   6.084  49.641  1.00  0.00     0.048 A 
ENDBRANCH  17  19
ENDBRANCH   7  17
BRANCH   1  26
HETATM   26  C2  UNL     1      18.546   0.193  51.177  1.00  0.00    -0.057 C 
BRANCH  26  27
HETATM   27  C1  UNL     1      17.280   0.036  50.632  1.00  0.00     0.216 C 
HETATM   28  O1  UNL     1      16.542  -0.362  51.529  1.00  0.00    -0.640 OA
BRANCH  27  29
HETATM   29  O2  UNL     1      17.381   0.400  49.271  1.00  0.00    -0.767 OA
HETATM   30  H1  UNL     1      18.277   0.867  49.011  1.00  0.00     0.168 HD
ENDBRANCH  27  29
ENDBRANCH  26  27
ENDBRANCH   1  26
TORSDOF 5
ENDMDL
MODEL 7
REMARK VINA RESULT:      -7.7      2.292      2.812
REMARK  5 active torsions:
REMARK  status: ('A' for Active; 'I' for Inactive)
REMARK    1  A    between atoms: C1_2  and  O2_3 
REMARK    2  A    between atoms: C1_2  and  C2_4 
REMARK    3  A    between atoms: C2_4  and  P1_5 
REMARK    4  A    between atoms: C7_11  and  N2_12 
REMARK    5  A    between atoms: N2_12  and  C8_13 
ROOT
HETATM    1  P1  UNL     1      25.476   1.650  53.239  1.00  0.00    -0.076 P 
HETATM    2  C3  UNL     1      25.198   2.107  52.783  1.00  0.00     0.116 C 
HETATM    3  C4  UNL     1      25.327   2.982  51.374  1.00  0.00     0.006 C 
HETATM    4  C5  UNL     1      26.472   3.208  50.120  1.00  0.00     0.129 C 
HETATM    5  N1  UNL     1      26.443   4.625  50.012  1.00  0.00    -0.383 N 
HETATM    6  C6  UNL     1      25.588   5.650  49.547  1.00  0.00     0.128 A 
HETATM    7  C7  UNL     1      26.323   6.756  49.207  1.00  0.00     0.160 A 
HETATM    8  N3  UNL     1      25.611   7.816  48.799  1.00  0.00    -0.222 NA
HETATM    9  C14 UNL     1      24.272   7.791  48.727  1.00  0.00     0.238 A 
HETATM   10  N4  UNL     1      23.573   6.654  49.077  1.00  0.00    -0.216 NA
HETATM   11  C15 UNL     1      24.189   5.595  49.481  1.00  0.00     0.197 A 
HETATM   12  O3  UNL     1      23.413   4.444  49.843  1.00  0.00    -0.320 OA
HETATM   13  C16 UNL     1      23.874   3.615  51.026  1.00  0.00     0.084 A 
HETATM   14  C17 UNL     1      23.208   3.126  52.151  1.00  0.00     0.036 A 
HETATM   15  C18 UNL     1      24.419   3.195  51.751  1.00  0.00     0.117 A 
HETATM   16  H5  UNL     1      27.349   4.987  50.439  1.00  0.00     0.159 HD
ENDROOT
BRANCH   7  17
HETATM   17  N2  UNL     1      27.732   6.817  49.275  1.00  0.00    -0.339 N 
HETATM   18  H6  UNL     1      28.431   6.313  49.848  1.00  0.00     0.167 HD
BRANCH  17  19
HETATM   19  C8  UNL     1      28.549   7.649  48.464  1.00  0.00     0.035 A 
HETATM   20  C9  UNL     1      28.790   7.320  47.152  1.00  0.00     0.029 A 
HETATM   21  C10 UNL     1      29.541   8.096  46.331  1.00  0.00     0.004 A 
HETATM   22  C11 UNL     1      30.129   9.279  46.737  1.00  0.00     0.019 A 
HETATM   23  C12 UNL     1      29.919   9.657  48.048  1.00  0.00     0.013 A 
HETATM   24 BR1  UNL     1      30.632  11.243  48.820  1.00  0.00    -0.051 Br
HETATM   25  C13 UNL     1      29.150   8.852  48.867  1.00  0.00     0.048 A 
ENDBRANCH  17  19
ENDBRANCH   7  17
BRANCH   1  26
HETATM   26  C2  UNL     1      26.086   0.705  54.170  1.00  0.00    -0.057 C 
BRANCH  26  27
HETATM   27  C1  UNL     1      26.688  -0.180  55.052  1.00  0.00     0.216 C 
HETATM   28  O1  UNL     1      27.902  -0.083  54.897  1.00  0.00    -0.640 OA
BRANCH  27  29
HETATM   29  O2  UNL     1      25.644  -0.820  55.755  1.00  0.00    -0.767 OA
HETATM   30  H1  UNL     1      25.676  -1.863  55.728  1.00  0.00     0.168 HD
ENDBRANCH  27  29
ENDBRANCH  26  27
ENDBRANCH   1  26
TORSDOF 5
ENDMDL
MODEL 8
REMARK VINA RESULT:      -7.7      4.849      8.105
REMARK  5 active torsions:
REMARK  status: ('A' for Active; 'I' for Inactive)
REMARK    1  A    between atoms: C1_2  and  O2_3 
REMARK    2  A    between atoms: C1_2  and  C2_4 
REMARK    3  A    between atoms: C2_4  and  P1_5 
REMARK    4  A    between atoms: C7_11  and  N2_12 
REMARK    5  A    between atoms: N2_12  and  C8_13 
ROOT
HETATM    1  P1  UNL     1      27.786   8.836  48.665  1.00  0.00    -0.076 P 
HETATM    2  C3  UNL     1      27.220   8.433  48.555  1.00  0.00     0.116 C 
HETATM    3  C4  UNL     1      25.968   7.524  49.168  1.00  0.00     0.006 C 
HETATM    4  C5  UNL     1      25.368   7.060  50.703  1.00  0.00     0.129 C 
HETATM    5  N1  UNL     1      25.155   5.673  50.476  1.00  0.00    -0.383 N 
HETATM    6  C6  UNL     1      24.274   4.823  49.769  1.00  0.00     0.128 A 
HETATM    7  C7  UNL     1      24.230   3.591  50.367  1.00  0.00     0.160 A 
HETATM    8  N3  UNL     1      23.463   2.680  49.751  1.00  0.00    -0.222 NA
HETATM    9  C14 UNL     1      22.785   2.961  48.628  1.00  0.00     0.238 A 
HETATM   10  N4  UNL     1      22.857   4.217  48.062  1.00  0.00    -0.216 NA
HETATM   11  C15 UNL     1      23.577   5.145  48.596  1.00  0.00     0.197 A 
HETATM   12  O3  UNL     1      23.625   6.429  47.960  1.00  0.00    -0.320 OA
HETATM   13  C16 UNL     1      24.945   7.176  47.957  1.00  0.00     0.084 A 
HETATM   14  C17 UNL     1      25.671   7.804  46.942  1.00  0.00     0.036 A 
HETATM   15  C18 UNL     1      25.869   7.496  48.167  1.00  0.00     0.117 A 
HETATM   16  H5  UNL     1      25.923   5.152  50.998  1.00  0.00     0.159 HD
ENDROOT
BRANCH   7  17
HETATM   17  N2  UNL     1      24.933   3.262  51.546  1.00  0.00    -0.339 N 
HETATM   18  H6  UNL     1      25.405   3.835  52.268  1.00  0.00     0.167 HD
BRANCH  17  19
HETATM   19  C8  UNL     1      25.125   1.943  52.036  1.00  0.00     0.035 A 
HETATM   20  C9  UNL     1      26.293   1.268  51.776  1.00  0.00     0.029 A 
HETATM   21  C10 UNL     1      26.535   0.018  52.243  1.00  0.00     0.004 A 
HETATM   22  C11 UNL     1      25.632  -0.687  53.019  1.00  0.00     0.019 A 
HETATM   23  C12 UNL     1      24.441  -0.055  53.311  1.00  0.00     0.013 A 
HETATM   24 BR1  UNL     1      23.056  -0.834  54.357  1.00  0.00    -0.051 Br
HETATM   25  C13 UNL     1      24.216   1.219  52.823  1.00  0.00     0.048 A 
ENDBRANCH  17  19
ENDBRANCH   7  17
BRANCH   1  26
HETATM   26  C2  UNL     1      28.960   9.662  48.929  1.00  0.00    -0.057 C 
BRANCH  26  27
HETATM   27  C1  UNL     1      30.088  10.436  49.160  1.00  0.00     0.216 C 
HETATM   28  O1  UNL     1      30.153  11.267  48.259  1.00  0.00    -0.640 OA
BRANCH  27  29
HETATM   29  O2  UNL     1      30.685   9.934  50.337  1.00  0.00    -0.767 OA
HETATM   30  H1  UNL     1      30.056   9.915  51.170  1.00  0.00     0.168 HD
ENDBRANCH  27  29
ENDBRANCH  26  27
ENDBRANCH   1  26
TORSDOF 5
ENDMDL
MODEL 9
REMARK VINA RESULT:      -7.6      5.839      7.935
REMARK  5 active torsions:
REMARK  status: ('A' for Active; 'I' for Inactive)
REMARK    1  A    between atoms: C1_2  and  O2_3 
REMARK    2  A    between atoms: C1_2  and  C2_4 
REMARK    3  A    between atoms: C2_4  and  P1_5 
REMARK    4  A    between atoms: C7_11  and  N2_12 
REMARK    5  A    between atoms: N2_12  and  C8_13 
ROOT
HETATM    1  P1  UNL     1      32.134   3.568  46.814  1.00  0.00    -0.076 P 
HETATM    2  C3  UNL     1      32.237   4.260  46.887  1.00  0.00     0.116 C 
HETATM    3  C4  UNL     1      32.135   5.631  47.825  1.00  0.00     0.006 C 
HETATM    4  C5  UNL     1      31.602   6.059  49.395  1.00  0.00     0.129 C 
HETATM    5  N1  UNL     1      30.846   7.223  49.090  1.00  0.00    -0.383 N 
HETATM    6  C6  UNL     1      31.051   8.564  48.691  1.00  0.00     0.128 A 
HETATM    7  C7  UNL     1      29.992   9.339  49.086  1.00  0.00     0.160 A 
HETATM    8  N3  UNL     1      30.052  10.626  48.715  1.00  0.00    -0.222 NA
HETATM    9  C14 UNL     1      31.081  11.117  48.008  1.00  0.00     0.238 A 
HETATM   10  N4  UNL     1      32.127  10.300  47.634  1.00  0.00    -0.216 NA
HETATM   11  C15 UNL     1      32.139   9.050  47.952  1.00  0.00     0.197 A 
HETATM   12  O3  UNL     1      33.246   8.243  47.528  1.00  0.00    -0.320 OA
HETATM   13  C16 UNL     1      32.966   6.817  47.093  1.00  0.00     0.084 A 
HETATM   14  C17 UNL     1      33.343   6.084  45.966  1.00  0.00     0.036 A 
HETATM   15  C18 UNL     1      32.550   5.919  46.955  1.00  0.00     0.117 A 
HETATM   16  H5  UNL     1      29.819   6.960  49.185  1.00  0.00     0.159 HD
ENDROOT
BRANCH   7  17
HETATM   17  N2  UNL     1      28.893   8.853  49.827  1.00  0.00    -0.339 N 
HETATM   18  H6  UNL     1      28.744   8.689  50.838  1.00  0.00     0.167 HD
BRANCH  17  19
HETATM   19  C8  UNL     1      27.640   8.482  49.273  1.00  0.00     0.035 A 
HETATM   20  C9  UNL     1      27.527   8.205  47.932  1.00  0.00     0.029 A 
HETATM   21  C10 UNL     1      26.359   7.821  47.360  1.00  0.00     0.004 A 
HETATM   22  C11 UNL     1      25.181   7.675  48.071  1.00  0.00     0.019 A 
HETATM   23  C12 UNL     1      25.238   7.942  49.424  1.00  0.00     0.013 A 
HETATM   24 BR1  UNL     1      23.743   7.808  50.593  1.00  0.00    -0.051 Br
HETATM   25  C13 UNL     1      26.440   8.331  49.985  1.00  0.00     0.048 A 
ENDBRANCH  17  19
ENDBRANCH   7  17
BRANCH   1  26
HETATM   26  C2  UNL     1      31.899   2.133  46.690  1.00  0.00    -0.057 C 
BRANCH  26  27
HETATM   27  C1  UNL     1      31.655   0.773  46.558  1.00  0.00     0.216 C 
HETATM   28  O1  UNL     1      32.415   0.189  47.326  1.00  0.00    -0.640 OA
BRANCH  27  29
HETATM   29  O2  UNL     1      30.634   0.641  45.592  1.00  0.00    -0.767 OA
HETATM   30  H1  UNL     1      29.967   1.442  45.551  1.00  0.00     0.168 HD
ENDBRANCH  27  29
ENDBRANCH  26  27
ENDBRANCH   1  26
TORSDOF 5
ENDMDL
