MODEL 1
REMARK VINA RESULT:      -7.9      0.000      0.000
REMARK  6 active torsions:
REMARK  status: ('A' for Active; 'I' for Inactive)
REMARK    1  A    between atoms: O1_2  and  C2_3 
REMARK    2  A    between atoms: C8_11  and  N3_12 
REMARK    3  A    between atoms: N3_12  and  C9_13 
REMARK    4  A    between atoms: C16_23  and  C17_24 
REMARK    5  A    between atoms: C17_24  and  N5_25 
REMARK    6  A    between atoms: N5_25  and  C19_27 
ROOT
HETATM    1  C2  UNL     1      22.203   4.482  51.149  1.00  0.00     0.098 C 
HETATM    2  C3  UNL     1      21.677   4.084  49.912  1.00  0.00     0.066 C 
HETATM    3  C4  UNL     1      22.189   2.753  49.348  1.00  0.00     0.039 C 
HETATM    4  N1  UNL     1      21.477   1.631  49.584  1.00  0.00    -0.264 NA
HETATM    5  C5  UNL     1      21.501   0.837  50.879  1.00  0.00     0.142 C 
HETATM    6  C6  UNL     1      22.178   1.101  52.084  1.00  0.00     0.091 C 
HETATM    7  C7  UNL     1      22.114   0.457  53.257  1.00  0.00     0.103 C 
HETATM    8  N2  UNL     1      22.069  -0.052  54.219  1.00  0.00    -0.191 NA
HETATM    9  C8  UNL     1      23.219   2.243  52.127  1.00  0.00     0.084 C 
HETATM   10  C15 UNL     1      23.261   3.419  51.397  1.00  0.00     0.091 C 
HETATM   11  N4  UNL     1      24.626   3.137  50.886  1.00  0.00    -0.379 N 
HETATM   12  C16 UNL     1      24.681   3.339  49.395  1.00  0.00     0.105 C 
HETATM   13  C20 UNL     1      23.534   2.726  48.617  1.00  0.00     0.086 C 
HETATM   14  H10 UNL     1      25.031   2.876  51.787  1.00  0.00     0.160 HD
ENDROOT
BRANCH   9  15
HETATM   15  N3  UNL     1      24.341   2.079  52.944  1.00  0.00    -0.353 N 
HETATM   16  H6  UNL     1      24.513   2.680  53.821  1.00  0.00     0.166 HD
BRANCH  15  17
HETATM   17  C9  UNL     1      25.547   1.283  53.013  1.00  0.00     0.034 A 
HETATM   18  C10 UNL     1      25.737  -0.014  52.607  1.00  0.00     0.032 A 
HETATM   19  C11 UNL     1      26.937  -0.631  52.743  1.00  0.00     0.046 A 
HETATM   20  C12 UNL     1      27.995   0.032  53.294  1.00  0.00     0.138 A 
HETATM   21  F1  UNL     1      29.143  -0.690  53.377  1.00  0.00    -0.204 F 
HETATM   22  C13 UNL     1      27.850   1.342  53.719  1.00  0.00     0.074 A 
HETATM   23 CL1  UNL     1      29.308   2.032  54.399  1.00  0.00    -0.081 Cl
HETATM   24  C14 UNL     1      26.606   1.967  53.573  1.00  0.00     0.056 A 
ENDBRANCH  15  17
ENDBRANCH   9  15
BRANCH   1  25
HETATM   25  O1  UNL     1      21.586   5.618  51.627  1.00  0.00    -0.354 OA
HETATM   26  C1  UNL     1      21.508   6.885  51.097  1.00  0.00     0.210 C 
ENDBRANCH   1  25
BRANCH  12  27
HETATM   27  C17 UNL     1      24.720   4.811  49.165  1.00  0.00     0.150 C 
BRANCH  27  28
HETATM   28  N5  UNL     1      26.079   5.316  49.099  1.00  0.00    -0.362 N 
HETATM   29  C18 UNL     1      26.286   6.761  49.241  1.00  0.00     0.152 C 
BRANCH  28  30
HETATM   30  C19 UNL     1      27.251   4.542  48.884  1.00  0.00     0.350 C 
HETATM   31  O2  UNL     1      28.399   4.857  48.511  1.00  0.00    -0.284 OA
ENDBRANCH  28  30
ENDBRANCH  27  28
ENDBRANCH  12  27
TORSDOF 6
ENDMDL
MODEL 2
REMARK VINA RESULT:      -7.8      2.272      3.231
REMARK  6 active torsions:
REMARK  status: ('A' for Active; 'I' for Inactive)
REMARK    1  A    between atoms: O1_2  and  C2_3 
REMARK    2  A    between atoms: C8_11  and  N3_12 
REMARK    3  A    between atoms: N3_12  and  C9_13 
REMARK    4  A    between atoms: C16_23  and  C17_24 
REMARK    5  A    between atoms: C17_24  and  N5_25 
REMARK    6  A    between atoms: N5_25  and  C19_27 
ROOT
HETATM    1  C2  UNL     1      21.063   2.828  52.310  1.00  0.00     0.098 C 
HETATM    2  C3  UNL     1      19.745   2.484  51.979  1.00  0.00     0.066 C 
HETATM    3  C4  UNL     1      19.498   1.024  51.579  1.00  0.00     0.039 C 
HETATM    4  N1  UNL     1      19.087   0.152  52.523  1.00  0.00    -0.264 NA
HETATM    5  C5  UNL     1      19.988  -0.513  53.549  1.00  0.00     0.142 C 
HETATM    6  C6  UNL     1      21.364  -0.341  53.785  1.00  0.00     0.091 C 
HETATM    7  C7  UNL     1      22.134  -0.848  54.758  1.00  0.00     0.103 C 
HETATM    8  N2  UNL     1      22.771  -1.249  55.545  1.00  0.00    -0.191 NA
HETATM    9  C8  UNL     1      22.202   0.486  52.783  1.00  0.00     0.084 C 
HETATM   10  C15 UNL     1      21.813   1.548  51.982  1.00  0.00     0.091 C 
HETATM   11  N4  UNL     1      22.279   0.875  50.743  1.00  0.00    -0.379 N 
HETATM   12  C16 UNL     1      21.214   0.935  49.680  1.00  0.00     0.105 C 
HETATM   13  C20 UNL     1      19.815   0.586  50.146  1.00  0.00     0.086 C 
HETATM   14  H10 UNL     1      23.191   0.590  51.107  1.00  0.00     0.160 HD
ENDROOT
BRANCH   9  15
HETATM   15  N3  UNL     1      23.524   0.098  52.554  1.00  0.00    -0.353 N 
HETATM   16  H6  UNL     1      23.781  -0.771  51.970  1.00  0.00     0.166 HD
BRANCH  15  17
HETATM   17  C9  UNL     1      24.868   0.502  52.905  1.00  0.00     0.034 A 
HETATM   18  C10 UNL     1      25.317   1.747  53.264  1.00  0.00     0.032 A 
HETATM   19  C11 UNL     1      26.621   1.972  53.564  1.00  0.00     0.046 A 
HETATM   20  C12 UNL     1      27.526   0.951  53.515  1.00  0.00     0.138 A 
HETATM   21  F1  UNL     1      28.799   1.299  53.836  1.00  0.00    -0.204 F 
HETATM   22  C13 UNL     1      27.118  -0.323  53.157  1.00  0.00     0.074 A 
HETATM   23 CL1  UNL     1      28.410  -1.504  53.146  1.00  0.00    -0.081 Cl
HETATM   24  C14 UNL     1      25.770  -0.540  52.850  1.00  0.00     0.056 A 
ENDBRANCH  15  17
ENDBRANCH   9  15
BRANCH   1  25
HETATM   25  O1  UNL     1      21.154   4.120  52.778  1.00  0.00    -0.354 OA
HETATM   26  C1  UNL     1      21.912   5.181  52.339  1.00  0.00     0.210 C 
ENDBRANCH   1  25
BRANCH  12  27
HETATM   27  C17 UNL     1      21.234   2.321  49.133  1.00  0.00     0.150 C 
BRANCH  27  28
HETATM   28  N5  UNL     1      22.516   2.653  48.538  1.00  0.00    -0.362 N 
HETATM   29  C18 UNL     1      22.806   2.139  47.195  1.00  0.00     0.152 C 
BRANCH  28  30
HETATM   30  C19 UNL     1      23.548   3.418  49.142  1.00  0.00     0.350 C 
HETATM   31  O2  UNL     1      24.234   3.229  50.168  1.00  0.00    -0.284 OA
ENDBRANCH  28  30
ENDBRANCH  27  28
ENDBRANCH  12  27
TORSDOF 6
ENDMDL
MODEL 3
REMARK VINA RESULT:      -7.7      3.171      5.147
REMARK  6 active torsions:
REMARK  status: ('A' for Active; 'I' for Inactive)
REMARK    1  A    between atoms: O1_2  and  C2_3 
REMARK    2  A    between atoms: C8_11  and  N3_12 
REMARK    3  A    between atoms: N3_12  and  C9_13 
REMARK    4  A    between atoms: C16_23  and  C17_24 
REMARK    5  A    between atoms: C17_24  and  N5_25 
REMARK    6  A    between atoms: N5_25  and  C19_27 
ROOT
HETATM    1  C2  UNL     1      22.378   4.019  51.135  1.00  0.00     0.098 C 
HETATM    2  C3  UNL     1      21.594   2.912  51.489  1.00  0.00     0.066 C 
HETATM    3  C4  UNL     1      22.098   1.540  51.022  1.00  0.00     0.039 C 
HETATM    4  N1  UNL     1      22.848   0.802  51.868  1.00  0.00    -0.264 NA
HETATM    5  C5  UNL     1      24.330   1.011  52.129  1.00  0.00     0.142 C 
HETATM    6  C6  UNL     1      25.202   1.999  51.635  1.00  0.00     0.091 C 
HETATM    7  C7  UNL     1      26.481   2.244  51.950  1.00  0.00     0.103 C 
HETATM    8  N2  UNL     1      27.519   2.458  52.199  1.00  0.00    -0.191 NA
HETATM    9  C8  UNL     1      24.712   2.939  50.510  1.00  0.00     0.084 C 
HETATM   10  C15 UNL     1      23.429   3.386  50.238  1.00  0.00     0.091 C 
HETATM   11  N4  UNL     1      23.474   2.884  48.842  1.00  0.00    -0.379 N 
HETATM   12  C16 UNL     1      22.230   2.096  48.526  1.00  0.00     0.105 C 
HETATM   13  C20 UNL     1      21.813   1.095  49.586  1.00  0.00     0.086 C 
HETATM   14  H10 UNL     1      24.394   3.266  48.615  1.00  0.00     0.160 HD
ENDROOT
BRANCH   9  15
HETATM   15  N3  UNL     1      25.641   3.363  49.556  1.00  0.00    -0.353 N 
HETATM   16  H6  UNL     1      26.146   2.678  48.895  1.00  0.00     0.166 HD
BRANCH  15  17
HETATM   17  C9  UNL     1      26.275   4.579  49.100  1.00  0.00     0.034 A 
HETATM   18  C10 UNL     1      25.716   5.820  48.928  1.00  0.00     0.032 A 
HETATM   19  C11 UNL     1      26.446   6.873  48.485  1.00  0.00     0.046 A 
HETATM   20  C12 UNL     1      27.772   6.720  48.196  1.00  0.00     0.138 A 
HETATM   21  F1  UNL     1      28.397   7.845  47.761  1.00  0.00    -0.204 F 
HETATM   22  C13 UNL     1      28.379   5.485  48.353  1.00  0.00     0.074 A 
HETATM   23 CL1  UNL     1      30.080   5.474  47.936  1.00  0.00    -0.081 Cl
HETATM   24  C14 UNL     1      27.613   4.407  48.812  1.00  0.00     0.056 A 
ENDBRANCH  15  17
ENDBRANCH   9  15
BRANCH   1  25
HETATM   25  O1  UNL     1      21.911   5.181  51.709  1.00  0.00    -0.354 OA
HETATM   26  C1  UNL     1      21.615   6.402  51.147  1.00  0.00     0.210 C 
ENDBRANCH   1  25
BRANCH  12  27
HETATM   27  C17 UNL     1      21.140   3.088  48.310  1.00  0.00     0.150 C 
BRANCH  27  28
HETATM   28  N5  UNL     1      21.417   3.965  47.186  1.00  0.00    -0.362 N 
HETATM   29  C18 UNL     1      21.253   5.409  47.381  1.00  0.00     0.152 C 
BRANCH  28  30
HETATM   30  C19 UNL     1      21.815   3.559  45.885  1.00  0.00     0.350 C 
HETATM   31  O2  UNL     1      21.851   4.169  44.797  1.00  0.00    -0.284 OA
ENDBRANCH  28  30
ENDBRANCH  27  28
ENDBRANCH  12  27
TORSDOF 6
ENDMDL
MODEL 4
REMARK VINA RESULT:      -7.6      3.418      6.045
REMARK  6 active torsions:
REMARK  status: ('A' for Active; 'I' for Inactive)
REMARK    1  A    between atoms: O1_2  and  C2_3 
REMARK    2  A    between atoms: C8_11  and  N3_12 
REMARK    3  A    between atoms: N3_12  and  C9_13 
REMARK    4  A    between atoms: C16_23  and  C17_24 
REMARK    5  A    between atoms: C17_24  and  N5_25 
REMARK    6  A    between atoms: N5_25  and  C19_27 
ROOT
HETATM    1  C2  UNL     1      23.421   2.843  49.609  1.00  0.00     0.098 C 
HETATM    2  C3  UNL     1      22.513   2.214  50.473  1.00  0.00     0.066 C 
HETATM    3  C4  UNL     1      22.387   2.807  51.882  1.00  0.00     0.039 C 
HETATM    4  N1  UNL     1      21.410   3.707  52.123  1.00  0.00    -0.264 NA
HETATM    5  C5  UNL     1      21.466   5.178  51.749  1.00  0.00     0.142 C 
HETATM    6  C6  UNL     1      22.457   5.892  51.051  1.00  0.00     0.091 C 
HETATM    7  C7  UNL     1      22.455   7.165  50.630  1.00  0.00     0.103 C 
HETATM    8  N2  UNL     1      22.467   8.195  50.278  1.00  0.00    -0.191 NA
HETATM    9  C8  UNL     1      23.806   5.203  50.744  1.00  0.00     0.084 C 
HETATM   10  C15 UNL     1      24.075   3.860  50.528  1.00  0.00     0.091 C 
HETATM   11  N4  UNL     1      25.098   3.821  51.604  1.00  0.00    -0.379 N 
HETATM   12  C16 UNL     1      24.865   2.639  52.507  1.00  0.00     0.105 C 
HETATM   13  C20 UNL     1      23.427   2.430  52.940  1.00  0.00     0.086 C 
HETATM   14  H10 UNL     1      25.590   4.671  51.322  1.00  0.00     0.160 HD
ENDROOT
BRANCH   9  15
HETATM   15  N3  UNL     1      24.963   5.987  50.753  1.00  0.00    -0.353 N 
HETATM   16  H6  UNL     1      25.330   6.469  51.645  1.00  0.00     0.166 HD
BRANCH  15  17
HETATM   17  C9  UNL     1      25.972   6.472  49.838  1.00  0.00     0.034 A 
HETATM   18  C10 UNL     1      26.649   5.778  48.868  1.00  0.00     0.032 A 
HETATM   19  C11 UNL     1      27.580   6.376  48.085  1.00  0.00     0.046 A 
HETATM   20  C12 UNL     1      27.868   7.702  48.246  1.00  0.00     0.138 A 
HETATM   21  F1  UNL     1      28.816   8.188  47.404  1.00  0.00    -0.204 F 
HETATM   22  C13 UNL     1      27.211   8.443  49.214  1.00  0.00     0.074 A 
HETATM   23 CL1  UNL     1      27.707  10.120  49.279  1.00  0.00    -0.081 Cl
HETATM   24  C14 UNL     1      26.252   7.811  50.015  1.00  0.00     0.056 A 
ENDBRANCH  15  17
ENDBRANCH   9  15
BRANCH   1  25
HETATM   25  O1  UNL     1      23.364   2.319  48.336  1.00  0.00    -0.354 OA
HETATM   26  C1  UNL     1      22.316   2.236  47.448  1.00  0.00     0.210 C 
ENDBRANCH   1  25
BRANCH  12  27
HETATM   27  C17 UNL     1      25.351   1.437  51.772  1.00  0.00     0.150 C 
BRANCH  27  28
HETATM   28  N5  UNL     1      26.564   0.895  52.357  1.00  0.00    -0.362 N 
HETATM   29  C18 UNL     1      26.780  -0.553  52.279  1.00  0.00     0.152 C 
BRANCH  28  30
HETATM   30  C19 UNL     1      27.572   1.634  53.032  1.00  0.00     0.350 C 
HETATM   31  O2  UNL     1      28.396   2.480  52.628  1.00  0.00    -0.284 OA
ENDBRANCH  28  30
ENDBRANCH  27  28
ENDBRANCH  12  27
TORSDOF 6
ENDMDL
MODEL 5
REMARK VINA RESULT:      -7.5      2.175      4.862
REMARK  6 active torsions:
REMARK  status: ('A' for Active; 'I' for Inactive)
REMARK    1  A    between atoms: O1_2  and  C2_3 
REMARK    2  A    between atoms: C8_11  and  N3_12 
REMARK    3  A    between atoms: N3_12  and  C9_13 
REMARK    4  A    between atoms: C16_23  and  C17_24 
REMARK    5  A    between atoms: C17_24  and  N5_25 
REMARK    6  A    between atoms: N5_25  and  C19_27 
ROOT
HETATM    1  C2  UNL     1      22.662   3.483  49.265  1.00  0.00     0.098 C 
HETATM    2  C3  UNL     1      22.144   4.662  49.818  1.00  0.00     0.066 C 
HETATM    3  C4  UNL     1      22.952   5.295  50.958  1.00  0.00     0.039 C 
HETATM    4  N1  UNL     1      23.837   6.271  50.664  1.00  0.00    -0.264 NA
HETATM    5  C5  UNL     1      25.229   6.045  50.100  1.00  0.00     0.142 C 
HETATM    6  C6  UNL     1      25.862   4.849  49.715  1.00  0.00     0.091 C 
HETATM    7  C7  UNL     1      27.048   4.664  49.120  1.00  0.00     0.103 C 
HETATM    8  N2  UNL     1      28.008   4.498  48.632  1.00  0.00    -0.191 NA
HETATM    9  C8  UNL     1      25.189   3.499  50.053  1.00  0.00     0.084 C 
HETATM   10  C15 UNL     1      23.842   3.199  50.180  1.00  0.00     0.091 C 
HETATM   11  N4  UNL     1      24.019   2.657  51.550  1.00  0.00    -0.379 N 
HETATM   12  C16 UNL     1      22.990   3.238  52.483  1.00  0.00     0.105 C 
HETATM   13  C20 UNL     1      22.794   4.738  52.375  1.00  0.00     0.086 C 
HETATM   14  H10 UNL     1      24.833   2.076  51.336  1.00  0.00     0.160 HD
ENDROOT
BRANCH   9  15
HETATM   15  N3  UNL     1      26.011   2.414  50.364  1.00  0.00    -0.353 N 
HETATM   16  H6  UNL     1      26.292   1.671  49.635  1.00  0.00     0.166 HD
BRANCH  15  17
HETATM   17  C9  UNL     1      26.694   1.839  51.502  1.00  0.00     0.034 A 
HETATM   18  C10 UNL     1      27.407   2.481  52.482  1.00  0.00     0.032 A 
HETATM   19  C11 UNL     1      28.000   1.798  53.493  1.00  0.00     0.046 A 
HETATM   20  C12 UNL     1      27.900   0.437  53.557  1.00  0.00     0.138 A 
HETATM   21  F1  UNL     1      28.535  -0.134  54.613  1.00  0.00    -0.204 F 
HETATM   22  C13 UNL     1      27.192  -0.254  52.588  1.00  0.00     0.074 A 
HETATM   23 CL1  UNL     1      27.171  -1.988  52.828  1.00  0.00    -0.081 Cl
HETATM   24  C14 UNL     1      26.585   0.465  51.551  1.00  0.00     0.056 A 
ENDBRANCH  15  17
ENDBRANCH   9  15
BRANCH   1  25
HETATM   25  O1  UNL     1      21.938   3.070  48.168  1.00  0.00    -0.354 OA
HETATM   26  C1  UNL     1      20.605   3.228  47.864  1.00  0.00     0.210 C 
ENDBRANCH   1  25
BRANCH  12  27
HETATM   27  C17 UNL     1      21.707   2.538  52.193  1.00  0.00     0.150 C 
BRANCH  27  28
HETATM   28  N5  UNL     1      21.857   1.094  52.215  1.00  0.00    -0.362 N 
HETATM   29  C18 UNL     1      21.305   0.325  51.096  1.00  0.00     0.152 C 
BRANCH  28  30
HETATM   30  C19 UNL     1      22.476   0.332  53.242  1.00  0.00     0.350 C 
HETATM   31  O2  UNL     1      23.675   0.139  53.528  1.00  0.00    -0.284 OA
ENDBRANCH  28  30
ENDBRANCH  27  28
ENDBRANCH  12  27
TORSDOF 6
ENDMDL
MODEL 6
REMARK VINA RESULT:      -7.5      4.781      8.782
REMARK  6 active torsions:
REMARK  status: ('A' for Active; 'I' for Inactive)
REMARK    1  A    between atoms: O1_2  and  C2_3 
REMARK    2  A    between atoms: C8_11  and  N3_12 
REMARK    3  A    between atoms: N3_12  and  C9_13 
REMARK    4  A    between atoms: C16_23  and  C17_24 
REMARK    5  A    between atoms: C17_24  and  N5_25 
REMARK    6  A    between atoms: N5_25  and  C19_27 
ROOT
HETATM    1  C2  UNL     1      27.110   8.469  46.874  1.00  0.00     0.098 C 
HETATM    2  C3  UNL     1      25.968   9.218  47.187  1.00  0.00     0.066 C 
HETATM    3  C4  UNL     1      25.905   9.812  48.600  1.00  0.00     0.039 C 
HETATM    4  N1  UNL     1      26.327  11.080  48.792  1.00  0.00    -0.264 NA
HETATM    5  C5  UNL     1      27.779  11.508  48.916  1.00  0.00     0.142 C 
HETATM    6  C6  UNL     1      28.956  10.744  48.803  1.00  0.00     0.091 C 
HETATM    7  C7  UNL     1      30.235  11.142  48.808  1.00  0.00     0.103 C 
HETATM    8  N2  UNL     1      31.280  11.451  48.804  1.00  0.00    -0.191 NA
HETATM    9  C8  UNL     1      28.849   9.204  48.729  1.00  0.00     0.084 C 
HETATM   10  C15 UNL     1      27.830   8.420  48.211  1.00  0.00     0.091 C 
HETATM   11  N4  UNL     1      27.664   7.672  49.483  1.00  0.00    -0.379 N 
HETATM   12  C16 UNL     1      26.211   7.609  49.870  1.00  0.00     0.105 C 
HETATM   13  C20 UNL     1      25.455   8.919  49.760  1.00  0.00     0.086 C 
HETATM   14  H10 UNL     1      28.658   7.489  49.636  1.00  0.00     0.160 HD
ENDROOT
BRANCH   9  15
HETATM   15  N3  UNL     1      29.858   8.445  49.328  1.00  0.00    -0.353 N 
HETATM   16  H6  UNL     1      29.912   8.290  50.393  1.00  0.00     0.166 HD
BRANCH  15  17
HETATM   17  C9  UNL     1      31.049   7.711  48.961  1.00  0.00     0.034 A 
HETATM   18  C10 UNL     1      32.360   8.080  49.120  1.00  0.00     0.032 A 
HETATM   19  C11 UNL     1      33.377   7.277  48.719  1.00  0.00     0.046 A 
HETATM   20  C12 UNL     1      33.114   6.068  48.140  1.00  0.00     0.138 A 
HETATM   21  F1  UNL     1      34.214   5.356  47.780  1.00  0.00    -0.204 F 
HETATM   22  C13 UNL     1      31.805   5.655  47.958  1.00  0.00     0.074 A 
HETATM   23 CL1  UNL     1      31.658   4.083  47.201  1.00  0.00    -0.081 Cl
HETATM   24  C14 UNL     1      30.766   6.493  48.377  1.00  0.00     0.056 A 
ENDBRANCH  15  17
ENDBRANCH   9  15
BRANCH   1  25
HETATM   25  O1  UNL     1      27.129   8.092  45.549  1.00  0.00    -0.354 OA
HETATM   26  C1  UNL     1      26.692   8.753  44.424  1.00  0.00     0.210 C 
ENDBRANCH   1  25
BRANCH  12  27
HETATM   27  C17 UNL     1      25.579   6.584  48.992  1.00  0.00     0.150 C 
BRANCH  27  28
HETATM   28  N5  UNL     1      25.759   5.239  49.507  1.00  0.00    -0.362 N 
HETATM   29  C18 UNL     1      24.775   4.730  50.468  1.00  0.00     0.152 C 
BRANCH  28  30
HETATM   30  C19 UNL     1      26.825   4.356  49.189  1.00  0.00     0.350 C 
HETATM   31  O2  UNL     1      27.934   4.550  48.650  1.00  0.00    -0.284 OA
ENDBRANCH  28  30
ENDBRANCH  27  28
ENDBRANCH  12  27
TORSDOF 6
ENDMDL
MODEL 7
REMARK VINA RESULT:      -7.3      3.469      5.105
REMARK  6 active torsions:
REMARK  status: ('A' for Active; 'I' for Inactive)
REMARK    1  A    between atoms: O1_2  and  C2_3 
REMARK    2  A    between atoms: C8_11  and  N3_12 
REMARK    3  A    between atoms: N3_12  and  C9_13 
REMARK    4  A    between atoms: C16_23  and  C17_24 
REMARK    5  A    between atoms: C17_24  and  N5_25 
REMARK    6  A    between atoms: N5_25  and  C19_27 
ROOT
HETATM    1  C2  UNL     1      23.050   2.569  49.449  1.00  0.00     0.098 C 
HETATM    2  C3  UNL     1      23.889   3.582  48.966  1.00  0.00     0.066 C 
HETATM    3  C4  UNL     1      24.778   4.286  49.999  1.00  0.00     0.039 C 
HETATM    4  N1  UNL     1      26.042   3.846  50.176  1.00  0.00    -0.264 NA
HETATM    5  C5  UNL     1      26.436   2.627  50.993  1.00  0.00     0.142 C 
HETATM    6  C6  UNL     1      25.626   1.692  51.663  1.00  0.00     0.091 C 
HETATM    7  C7  UNL     1      25.971   0.561  52.293  1.00  0.00     0.103 C 
HETATM    8  N2  UNL     1      26.235  -0.364  52.804  1.00  0.00    -0.191 NA
HETATM    9  C8  UNL     1      24.112   1.969  51.798  1.00  0.00     0.084 C 
HETATM   10  C15 UNL     1      23.269   2.669  50.950  1.00  0.00     0.091 C 
HETATM   11  N4  UNL     1      22.822   3.582  52.032  1.00  0.00    -0.379 N 
HETATM   12  C16 UNL     1      22.896   5.015  51.575  1.00  0.00     0.105 C 
HETATM   13  C20 UNL     1      24.175   5.400  50.859  1.00  0.00     0.086 C 
HETATM   14  H10 UNL     1      22.643   2.853  52.726  1.00  0.00     0.160 HD
ENDROOT
BRANCH   9  15
HETATM   15  N3  UNL     1      23.467   1.544  52.963  1.00  0.00    -0.353 N 
HETATM   16  H6  UNL     1      23.571   2.059  53.904  1.00  0.00     0.166 HD
BRANCH  15  17
HETATM   17  C9  UNL     1      22.603   0.477  53.418  1.00  0.00     0.034 A 
HETATM   18  C10 UNL     1      22.904  -0.562  54.262  1.00  0.00     0.032 A 
HETATM   19  C11 UNL     1      21.979  -1.496  54.595  1.00  0.00     0.046 A 
HETATM   20  C12 UNL     1      20.711  -1.421  54.092  1.00  0.00     0.138 A 
HETATM   21  F1  UNL     1      19.876  -2.413  54.498  1.00  0.00    -0.204 F 
HETATM   22  C13 UNL     1      20.363  -0.391  53.235  1.00  0.00     0.074 A 
HETATM   23 CL1  UNL     1      18.701  -0.455  52.689  1.00  0.00    -0.081 Cl
HETATM   24  C14 UNL     1      21.328   0.566  52.900  1.00  0.00     0.056 A 
ENDBRANCH  15  17
ENDBRANCH   9  15
BRANCH   1  25
HETATM   25  O1  UNL     1      22.394   1.916  48.429  1.00  0.00    -0.354 OA
HETATM   26  C1  UNL     1      21.173   2.166  47.844  1.00  0.00     0.210 C 
ENDBRANCH   1  25
BRANCH  12  27
HETATM   27  C17 UNL     1      21.727   5.237  50.678  1.00  0.00     0.150 C 
BRANCH  27  28
HETATM   28  N5  UNL     1      21.782   6.532  50.024  1.00  0.00    -0.362 N 
HETATM   29  C18 UNL     1      21.559   7.728  50.842  1.00  0.00     0.152 C 
BRANCH  28  30
HETATM   30  C19 UNL     1      22.010   6.763  48.641  1.00  0.00     0.350 C 
HETATM   31  O2  UNL     1      21.757   6.077  47.629  1.00  0.00    -0.284 OA
ENDBRANCH  28  30
ENDBRANCH  27  28
ENDBRANCH  12  27
TORSDOF 6
ENDMDL
MODEL 8
REMARK VINA RESULT:      -7.2      2.497      2.854
REMARK  6 active torsions:
REMARK  status: ('A' for Active; 'I' for Inactive)
REMARK    1  A    between atoms: O1_2  and  C2_3 
REMARK    2  A    between atoms: C8_11  and  N3_12 
REMARK    3  A    between atoms: N3_12  and  C9_13 
REMARK    4  A    between atoms: C16_23  and  C17_24 
REMARK    5  A    between atoms: C17_24  and  N5_25 
REMARK    6  A    between atoms: N5_25  and  C19_27 
ROOT
HETATM    1  C2  UNL     1      22.422   3.747  52.225  1.00  0.00     0.098 C 
HETATM    2  C3  UNL     1      21.090   3.577  51.822  1.00  0.00     0.066 C 
HETATM    3  C4  UNL     1      20.750   2.252  51.127  1.00  0.00     0.039 C 
HETATM    4  N1  UNL     1      20.258   1.237  51.868  1.00  0.00    -0.264 NA
HETATM    5  C5  UNL     1      21.087   0.311  52.740  1.00  0.00     0.142 C 
HETATM    6  C6  UNL     1      22.467   0.329  53.016  1.00  0.00     0.091 C 
HETATM    7  C7  UNL     1      23.177  -0.423  53.868  1.00  0.00     0.103 C 
HETATM    8  N2  UNL     1      23.768  -1.023  54.559  1.00  0.00    -0.191 NA
HETATM    9  C8  UNL     1      23.382   1.280  52.212  1.00  0.00     0.084 C 
HETATM   10  C15 UNL     1      23.086   2.510  51.645  1.00  0.00     0.091 C 
HETATM   11  N4  UNL     1      23.531   2.074  50.297  1.00  0.00    -0.379 N 
HETATM   12  C16 UNL     1      22.496   2.429  49.262  1.00  0.00     0.105 C 
HETATM   13  C20 UNL     1      21.066   2.095  49.637  1.00  0.00     0.086 C 
HETATM   14  H10 UNL     1      24.412   1.654  50.600  1.00  0.00     0.160 HD
ENDROOT
BRANCH   9  15
HETATM   15  N3  UNL     1      24.679   0.852  51.916  1.00  0.00    -0.353 N 
HETATM   16  H6  UNL     1      24.903   0.222  51.070  1.00  0.00     0.166 HD
BRANCH  15  17
HETATM   17  C9  UNL     1      26.020   0.950  52.448  1.00  0.00     0.034 A 
HETATM   18  C10 UNL     1      26.694   2.072  52.858  1.00  0.00     0.032 A 
HETATM   19  C11 UNL     1      27.962   2.004  53.335  1.00  0.00     0.046 A 
HETATM   20  C12 UNL     1      28.604   0.801  53.417  1.00  0.00     0.138 A 
HETATM   21  F1  UNL     1      29.869   0.860  53.909  1.00  0.00    -0.204 F 
HETATM   22  C13 UNL     1      27.963  -0.358  53.012  1.00  0.00     0.074 A 
HETATM   23 CL1  UNL     1      28.936  -1.803  53.188  1.00  0.00    -0.081 Cl
HETATM   24  C14 UNL     1      26.655  -0.273  52.523  1.00  0.00     0.056 A 
ENDBRANCH  15  17
ENDBRANCH   9  15
BRANCH   1  25
HETATM   25  O1  UNL     1      22.594   4.905  52.951  1.00  0.00    -0.354 OA
HETATM   26  C1  UNL     1      23.719   5.436  53.538  1.00  0.00     0.210 C 
ENDBRANCH   1  25
BRANCH  12  27
HETATM   27  C17 UNL     1      22.626   3.893  49.014  1.00  0.00     0.150 C 
BRANCH  27  28
HETATM   28  N5  UNL     1      22.462   4.223  47.610  1.00  0.00    -0.362 N 
HETATM   29  C18 UNL     1      22.691   5.612  47.196  1.00  0.00     0.152 C 
BRANCH  28  30
HETATM   30  C19 UNL     1      22.072   3.328  46.578  1.00  0.00     0.350 C 
HETATM   31  O2  UNL     1      22.132   3.413  45.335  1.00  0.00    -0.284 OA
ENDBRANCH  28  30
ENDBRANCH  27  28
ENDBRANCH  12  27
TORSDOF 6
ENDMDL
MODEL 9
REMARK VINA RESULT:      -7.1      2.846      5.695
REMARK  6 active torsions:
REMARK  status: ('A' for Active; 'I' for Inactive)
REMARK    1  A    between atoms: O1_2  and  C2_3 
REMARK    2  A    between atoms: C8_11  and  N3_12 
REMARK    3  A    between atoms: N3_12  and  C9_13 
REMARK    4  A    between atoms: C16_23  and  C17_24 
REMARK    5  A    between atoms: C17_24  and  N5_25 
REMARK    6  A    between atoms: N5_25  and  C19_27 
ROOT
HETATM    1  C2  UNL     1      21.354   2.280  49.457  1.00  0.00     0.098 C 
HETATM    2  C3  UNL     1      20.059   2.808  49.356  1.00  0.00     0.066 C 
HETATM    3  C4  UNL     1      19.591   3.697  50.515  1.00  0.00     0.039 C 
HETATM    4  N1  UNL     1      19.736   5.034  50.408  1.00  0.00    -0.264 NA
HETATM    5  C5  UNL     1      21.031   5.794  50.640  1.00  0.00     0.142 C 
HETATM    6  C6  UNL     1      22.318   5.310  50.940  1.00  0.00     0.091 C 
HETATM    7  C7  UNL     1      23.478   5.973  51.040  1.00  0.00     0.103 C 
HETATM    8  N2  UNL     1      24.429   6.497  51.120  1.00  0.00    -0.191 NA
HETATM    9  C8  UNL     1      22.496   3.814  51.287  1.00  0.00     0.084 C 
HETATM   10  C15 UNL     1      21.765   2.720  50.852  1.00  0.00     0.091 C 
HETATM   11  N4  UNL     1      21.459   2.285  52.239  1.00  0.00    -0.379 N 
HETATM   12  C16 UNL     1      19.989   1.994  52.386  1.00  0.00     0.105 C 
HETATM   13  C20 UNL     1      19.062   3.034  51.790  1.00  0.00     0.086 C 
HETATM   14  H10 UNL     1      22.413   2.372  52.596  1.00  0.00     0.160 HD
ENDROOT
BRANCH   9  15
HETATM   15  N3  UNL     1      23.468   3.469  52.230  1.00  0.00    -0.353 N 
HETATM   16  H6  UNL     1      23.377   3.720  53.275  1.00  0.00     0.166 HD
BRANCH  15  17
HETATM   17  C9  UNL     1      24.758   2.821  52.297  1.00  0.00     0.034 A 
HETATM   18  C10 UNL     1      25.783   2.866  51.386  1.00  0.00     0.032 A 
HETATM   19  C11 UNL     1      26.944   2.195  51.589  1.00  0.00     0.046 A 
HETATM   20  C12 UNL     1      27.120   1.448  52.719  1.00  0.00     0.138 A 
HETATM   21  F1  UNL     1      28.323   0.822  52.809  1.00  0.00    -0.204 F 
HETATM   22  C13 UNL     1      26.112   1.371  53.665  1.00  0.00     0.074 A 
HETATM   23 CL1  UNL     1      26.511   0.370  55.045  1.00  0.00    -0.081 Cl
HETATM   24  C14 UNL     1      24.920   2.070  53.443  1.00  0.00     0.056 A 
ENDBRANCH  15  17
ENDBRANCH   9  15
BRANCH   1  25
HETATM   25  O1  UNL     1      21.724   1.608  48.313  1.00  0.00    -0.354 OA
HETATM   26  C1  UNL     1      22.533   1.994  47.269  1.00  0.00     0.210 C 
ENDBRANCH   1  25
BRANCH  12  27
HETATM   27  C17 UNL     1      19.749   0.672  51.741  1.00  0.00     0.150 C 
BRANCH  27  28
HETATM   28  N5  UNL     1      19.354  -0.339  52.705  1.00  0.00    -0.362 N 
HETATM   29  C18 UNL     1      20.331  -0.744  53.720  1.00  0.00     0.152 C 
BRANCH  28  30
HETATM   30  C19 UNL     1      18.102  -1.008  52.751  1.00  0.00     0.350 C 
HETATM   31  O2  UNL     1      17.199  -1.027  53.613  1.00  0.00    -0.284 OA
ENDBRANCH  28  30
ENDBRANCH  27  28
ENDBRANCH  12  27
TORSDOF 6
ENDMDL
