MODEL 1
REMARK VINA RESULT:      -8.0      0.000      0.000
REMARK  4 active torsions:
REMARK  status: ('A' for Active; 'I' for Inactive)
REMARK    1  A    between atoms: C2_2  and  O1_3 
REMARK    2  A    between atoms: O1_3  and  C3_4 
REMARK    3  A    between atoms: C7_10  and  C8_11 
REMARK    4  A    between atoms: C18_23  and  O3_24 
ROOT
HETATM    1  C3  UNL     1      26.980   0.283  53.730  1.00  0.00     0.104 A 
HETATM    2  C4  UNL     1      27.418   1.182  52.782  1.00  0.00     0.072 A 
HETATM    3  C5  UNL     1      26.516   1.786  51.932  1.00  0.00     0.073 A 
HETATM    4  N1  UNL     1      26.893   2.689  50.992  1.00  0.00    -0.241 NA
HETATM    5  C6  UNL     1      25.998   3.277  50.183  1.00  0.00     0.234 A 
HETATM    6  N2  UNL     1      24.674   2.994  50.269  1.00  0.00    -0.240 NA
HETATM    7  C7  UNL     1      24.218   2.105  51.177  1.00  0.00     0.083 A 
HETATM    8  C16 UNL     1      25.167   1.541  51.970  1.00  0.00     0.025 A 
HETATM    9  C17 UNL     1      24.768   0.640  52.931  1.00  0.00     0.055 A 
HETATM   10  C18 UNL     1      25.612   0.001  53.812  1.00  0.00     0.102 A 
ENDROOT
BRANCH   7  11
HETATM   11  C8  UNL     1      22.800   1.852  51.207  1.00  0.00     0.024 C 
HETATM   12  C9  UNL     1      22.288   2.942  51.800  1.00  0.00     0.087 C 
HETATM   13  C10 UNL     1      20.984   2.916  52.605  1.00  0.00     0.338 C 
HETATM   14  O2  UNL     1      22.771   4.263  51.822  1.00  0.00    -0.351 OA
HETATM   15  N3  UNL     1      20.078   3.186  51.488  1.00  0.00     0.100 NA
HETATM   16  C11 UNL     1      19.750   2.075  50.707  1.00  0.00     0.300 C 
HETATM   17  C14 UNL     1      20.642   4.342  50.814  1.00  0.00     0.299 C 
HETATM   18  C12 UNL     1      20.583   0.849  50.696  1.00  0.00     0.004 C 
HETATM   19  C13 UNL     1      21.942   0.741  50.681  1.00  0.00     0.014 C 
HETATM   20  C15 UNL     1      21.621   5.172  51.643  1.00  0.00     0.205 C 
ENDBRANCH   7  11
BRANCH  10  21
HETATM   21  O3  UNL     1      25.246  -0.908  54.786  1.00  0.00    -0.353 OA
HETATM   22  C19 UNL     1      23.920  -1.236  55.127  1.00  0.00     0.210 C 
ENDBRANCH  10  21
BRANCH   1  23
HETATM   23  O1  UNL     1      27.877  -0.335  54.594  1.00  0.00    -0.349 OA
BRANCH  23  24
HETATM   24  C2  UNL     1      29.241  -0.384  54.228  1.00  0.00     0.171 C 
HETATM   25  C1  UNL     1      29.421  -1.657  53.424  1.00  0.00     0.034 C 
ENDBRANCH  23  24
ENDBRANCH   1  23
TORSDOF 4
ENDMDL
MODEL 2
REMARK VINA RESULT:      -7.9      2.098      3.511
REMARK  4 active torsions:
REMARK  status: ('A' for Active; 'I' for Inactive)
REMARK    1  A    between atoms: C2_2  and  O1_3 
REMARK    2  A    between atoms: O1_3  and  C3_4 
REMARK    3  A    between atoms: C7_10  and  C8_11 
REMARK    4  A    between atoms: C18_23  and  O3_24 
ROOT
HETATM    1  C3  UNL     1      26.664  -0.118  53.874  1.00  0.00     0.104 A 
HETATM    2  C4  UNL     1      25.467  -0.718  54.203  1.00  0.00     0.072 A 
HETATM    3  C5  UNL     1      24.276  -0.150  53.806  1.00  0.00     0.073 A 
HETATM    4  N1  UNL     1      23.072  -0.707  54.091  1.00  0.00    -0.241 NA
HETATM    5  C6  UNL     1      21.923  -0.146  53.683  1.00  0.00     0.234 A 
HETATM    6  N2  UNL     1      21.914   1.006  52.967  1.00  0.00    -0.240 NA
HETATM    7  C7  UNL     1      23.070   1.624  52.644  1.00  0.00     0.083 A 
HETATM    8  C16 UNL     1      24.202   1.013  53.081  1.00  0.00     0.025 A 
HETATM    9  C17 UNL     1      25.416   1.580  52.770  1.00  0.00     0.055 A 
HETATM   10  C18 UNL     1      26.642   1.068  53.132  1.00  0.00     0.102 A 
ENDROOT
BRANCH   7  11
HETATM   11  C8  UNL     1      22.982   2.846  51.886  1.00  0.00     0.024 C 
HETATM   12  C9  UNL     1      22.912   2.433  50.610  1.00  0.00     0.087 C 
HETATM   13  C10 UNL     1      23.413   3.278  49.434  1.00  0.00     0.338 C 
HETATM   14  O2  UNL     1      22.400   1.234  50.082  1.00  0.00    -0.351 OA
HETATM   15  N3  UNL     1      22.167   4.005  49.191  1.00  0.00     0.100 NA
HETATM   16  C11 UNL     1      21.946   5.101  50.029  1.00  0.00     0.300 C 
HETATM   17  C14 UNL     1      21.138   2.983  49.130  1.00  0.00     0.299 C 
HETATM   18  C12 UNL     1      22.639   5.246  51.332  1.00  0.00     0.004 C 
HETATM   19  C13 UNL     1      22.896   4.292  52.271  1.00  0.00     0.014 C 
HETATM   20  C15 UNL     1      21.637   1.564  48.861  1.00  0.00     0.205 C 
ENDBRANCH   7  11
BRANCH  10  21
HETATM   21  O3  UNL     1      27.878   1.611  52.838  1.00  0.00    -0.353 OA
HETATM   22  C19 UNL     1      28.572   2.528  53.651  1.00  0.00     0.210 C 
ENDBRANCH  10  21
BRANCH   1  23
HETATM   23  O1  UNL     1      27.874  -0.679  54.268  1.00  0.00    -0.349 OA
BRANCH  23  24
HETATM   24  C2  UNL     1      28.608  -1.432  53.323  1.00  0.00     0.171 C 
HETATM   25  C1  UNL     1      30.061  -1.033  53.497  1.00  0.00     0.034 C 
ENDBRANCH  23  24
ENDBRANCH   1  23
TORSDOF 4
ENDMDL
MODEL 3
REMARK VINA RESULT:      -7.8      2.085      3.429
REMARK  4 active torsions:
REMARK  status: ('A' for Active; 'I' for Inactive)
REMARK    1  A    between atoms: C2_2  and  O1_3 
REMARK    2  A    between atoms: O1_3  and  C3_4 
REMARK    3  A    between atoms: C7_10  and  C8_11 
REMARK    4  A    between atoms: C18_23  and  O3_24 
ROOT
HETATM    1  C3  UNL     1      25.464  -0.375  53.716  1.00  0.00     0.104 A 
HETATM    2  C4  UNL     1      24.348  -0.768  54.421  1.00  0.00     0.072 A 
HETATM    3  C5  UNL     1      23.088  -0.483  53.938  1.00  0.00     0.073 A 
HETATM    4  N1  UNL     1      21.957  -0.861  54.586  1.00  0.00    -0.241 NA
HETATM    5  C6  UNL     1      20.739  -0.587  54.092  1.00  0.00     0.234 A 
HETATM    6  N2  UNL     1      20.585   0.083  52.923  1.00  0.00    -0.240 NA
HETATM    7  C7  UNL     1      21.661   0.494  52.218  1.00  0.00     0.083 A 
HETATM    8  C16 UNL     1      22.868   0.189  52.763  1.00  0.00     0.025 A 
HETATM    9  C17 UNL     1      24.006   0.563  52.087  1.00  0.00     0.055 A 
HETATM   10  C18 UNL     1      25.293   0.312  52.509  1.00  0.00     0.102 A 
ENDROOT
BRANCH   7  11
HETATM   11  C8  UNL     1      21.419   1.203  50.988  1.00  0.00     0.024 C 
HETATM   12  C9  UNL     1      21.137   2.455  51.386  1.00  0.00     0.087 C 
HETATM   13  C10 UNL     1      20.240   3.401  50.580  1.00  0.00     0.338 C 
HETATM   14  O2  UNL     1      21.562   3.151  52.531  1.00  0.00    -0.351 OA
HETATM   15  N3  UNL     1      21.293   3.980  49.745  1.00  0.00     0.100 NA
HETATM   16  C11 UNL     1      21.666   3.210  48.639  1.00  0.00     0.300 C 
HETATM   17  C14 UNL     1      22.336   4.377  50.673  1.00  0.00     0.299 C 
HETATM   18  C12 UNL     1      21.385   1.757  48.564  1.00  0.00     0.004 C 
HETATM   19  C13 UNL     1      21.498   0.815  49.543  1.00  0.00     0.014 C 
HETATM   20  C15 UNL     1      21.896   4.532  52.128  1.00  0.00     0.205 C 
ENDBRANCH   7  11
BRANCH  10  21
HETATM   21  O3  UNL     1      26.456   0.674  51.856  1.00  0.00    -0.353 OA
HETATM   22  C19 UNL     1      26.841   1.997  51.566  1.00  0.00     0.210 C 
ENDBRANCH  10  21
BRANCH   1  23
HETATM   23  O1  UNL     1      26.742  -0.653  54.189  1.00  0.00    -0.349 OA
BRANCH  23  24
HETATM   24  C2  UNL     1      27.411   0.335  54.946  1.00  0.00     0.171 C 
HETATM   25  C1  UNL     1      28.858   0.310  54.493  1.00  0.00     0.034 C 
ENDBRANCH  23  24
ENDBRANCH   1  23
TORSDOF 4
ENDMDL
MODEL 4
REMARK VINA RESULT:      -7.3      2.732      5.047
REMARK  4 active torsions:
REMARK  status: ('A' for Active; 'I' for Inactive)
REMARK    1  A    between atoms: C2_2  and  O1_3 
REMARK    2  A    between atoms: O1_3  and  C3_4 
REMARK    3  A    between atoms: C7_10  and  C8_11 
REMARK    4  A    between atoms: C18_23  and  O3_24 
ROOT
HETATM    1  C3  UNL     1      23.382   1.163  52.582  1.00  0.00     0.104 A 
HETATM    2  C4  UNL     1      22.547   0.935  51.510  1.00  0.00     0.072 A 
HETATM    3  C5  UNL     1      22.599   1.759  50.405  1.00  0.00     0.073 A 
HETATM    4  N1  UNL     1      21.810   1.570  49.318  1.00  0.00    -0.241 NA
HETATM    5  C6  UNL     1      21.885   2.374  48.246  1.00  0.00     0.234 A 
HETATM    6  N2  UNL     1      22.754   3.415  48.203  1.00  0.00    -0.240 NA
HETATM    7  C7  UNL     1      23.572   3.672  49.245  1.00  0.00     0.083 A 
HETATM    8  C16 UNL     1      23.455   2.826  50.303  1.00  0.00     0.025 A 
HETATM    9  C17 UNL     1      24.273   3.020  51.392  1.00  0.00     0.055 A 
HETATM   10  C18 UNL     1      24.276   2.238  52.525  1.00  0.00     0.102 A 
ENDROOT
BRANCH   7  11
HETATM   11  C8  UNL     1      24.465   4.797  49.129  1.00  0.00     0.024 C 
HETATM   12  C9  UNL     1      23.655   5.864  49.232  1.00  0.00     0.087 C 
HETATM   13  C10 UNL     1      23.975   7.215  48.582  1.00  0.00     0.338 C 
HETATM   14  O2  UNL     1      22.430   6.000  49.908  1.00  0.00    -0.351 OA
HETATM   15  N3  UNL     1      24.738   7.776  49.698  1.00  0.00     0.100 NA
HETATM   16  C11 UNL     1      26.072   7.368  49.769  1.00  0.00     0.300 C 
HETATM   17  C14 UNL     1      23.905   7.568  50.868  1.00  0.00     0.299 C 
HETATM   18  C12 UNL     1      26.556   6.141  49.092  1.00  0.00     0.004 C 
HETATM   19  C13 UNL     1      25.953   4.922  49.003  1.00  0.00     0.014 C 
HETATM   20  C15 UNL     1      22.425   7.313  50.584  1.00  0.00     0.205 C 
ENDBRANCH   7  11
BRANCH  10  21
HETATM   21  O3  UNL     1      25.082   2.404  53.635  1.00  0.00    -0.353 OA
HETATM   22  C19 UNL     1      26.424   1.989  53.728  1.00  0.00     0.210 C 
ENDBRANCH  10  21
BRANCH   1  23
HETATM   23  O1  UNL     1      23.341   0.342  53.704  1.00  0.00    -0.349 OA
BRANCH  23  24
HETATM   24  C2  UNL     1      22.643  -0.884  53.617  1.00  0.00     0.171 C 
HETATM   25  C1  UNL     1      21.602  -0.860  54.719  1.00  0.00     0.034 C 
ENDBRANCH  23  24
ENDBRANCH   1  23
TORSDOF 4
ENDMDL
MODEL 5
REMARK VINA RESULT:      -7.2      1.618      1.900
REMARK  4 active torsions:
REMARK  status: ('A' for Active; 'I' for Inactive)
REMARK    1  A    between atoms: C2_2  and  O1_3 
REMARK    2  A    between atoms: O1_3  and  C3_4 
REMARK    3  A    between atoms: C7_10  and  C8_11 
REMARK    4  A    between atoms: C18_23  and  O3_24 
ROOT
HETATM    1  C3  UNL     1      26.000   0.837  52.768  1.00  0.00     0.104 A 
HETATM    2  C4  UNL     1      26.734   1.698  51.981  1.00  0.00     0.072 A 
HETATM    3  C5  UNL     1      26.097   2.524  51.080  1.00  0.00     0.073 A 
HETATM    4  N1  UNL     1      26.771   3.401  50.293  1.00  0.00    -0.241 NA
HETATM    5  C6  UNL     1      26.132   4.207  49.431  1.00  0.00     0.234 A 
HETATM    6  N2  UNL     1      24.782   4.181  49.307  1.00  0.00    -0.240 NA
HETATM    7  C7  UNL     1      24.039   3.336  50.053  1.00  0.00     0.083 A 
HETATM    8  C16 UNL     1      24.736   2.544  50.909  1.00  0.00     0.025 A 
HETATM    9  C17 UNL     1      24.039   1.673  51.713  1.00  0.00     0.055 A 
HETATM   10  C18 UNL     1      24.607   0.822  52.634  1.00  0.00     0.102 A 
ENDROOT
BRANCH   7  11
HETATM   11  C8  UNL     1      22.611   3.362  49.863  1.00  0.00     0.024 C 
HETATM   12  C9  UNL     1      22.197   4.366  50.652  1.00  0.00     0.087 C 
HETATM   13  C10 UNL     1      20.798   4.410  51.277  1.00  0.00     0.338 C 
HETATM   14  O2  UNL     1      22.877   5.528  51.058  1.00  0.00    -0.351 OA
HETATM   15  N3  UNL     1      20.128   5.097  50.173  1.00  0.00     0.100 NA
HETATM   16  C11 UNL     1      19.749   4.278  49.106  1.00  0.00     0.300 C 
HETATM   17  C14 UNL     1      20.967   6.244  49.877  1.00  0.00     0.299 C 
HETATM   18  C12 UNL     1      20.365   2.949  48.879  1.00  0.00     0.004 C 
HETATM   19  C13 UNL     1      21.675   2.587  48.985  1.00  0.00     0.014 C 
HETATM   20  C15 UNL     1      21.929   6.659  50.990  1.00  0.00     0.205 C 
ENDBRANCH   7  11
BRANCH  10  21
HETATM   21  O3  UNL     1      23.938  -0.065  53.455  1.00  0.00    -0.353 OA
HETATM   22  C19 UNL     1      22.705  -0.674  53.152  1.00  0.00     0.210 C 
ENDBRANCH  10  21
BRANCH   1  23
HETATM   23  O1  UNL     1      26.627  -0.003  53.682  1.00  0.00    -0.349 OA
BRANCH  23  24
HETATM   24  C2  UNL     1      28.029  -0.162  53.600  1.00  0.00     0.171 C 
HETATM   25  C1  UNL     1      28.590   0.323  54.923  1.00  0.00     0.034 C 
ENDBRANCH  23  24
ENDBRANCH   1  23
TORSDOF 4
ENDMDL
MODEL 6
REMARK VINA RESULT:      -6.8      8.726     11.263
REMARK  4 active torsions:
REMARK  status: ('A' for Active; 'I' for Inactive)
REMARK    1  A    between atoms: C2_2  and  O1_3 
REMARK    2  A    between atoms: O1_3  and  C3_4 
REMARK    3  A    between atoms: C7_10  and  C8_11 
REMARK    4  A    between atoms: C18_23  and  O3_24 
ROOT
HETATM    1  C3  UNL     1      33.444   5.069  47.929  1.00  0.00     0.104 A 
HETATM    2  C4  UNL     1      32.139   4.628  47.988  1.00  0.00     0.072 A 
HETATM    3  C5  UNL     1      31.106   5.536  48.081  1.00  0.00     0.073 A 
HETATM    4  N1  UNL     1      29.804   5.155  48.127  1.00  0.00    -0.241 NA
HETATM    5  C6  UNL     1      28.811   6.055  48.203  1.00  0.00     0.234 A 
HETATM    6  N2  UNL     1      29.065   7.387  48.238  1.00  0.00    -0.240 NA
HETATM    7  C7  UNL     1      30.333   7.847  48.198  1.00  0.00     0.083 A 
HETATM    8  C16 UNL     1      31.299   6.894  48.120  1.00  0.00     0.025 A 
HETATM    9  C17 UNL     1      32.613   7.294  48.057  1.00  0.00     0.055 A 
HETATM   10  C18 UNL     1      33.693   6.445  47.963  1.00  0.00     0.102 A 
ENDROOT
BRANCH   7  11
HETATM   11  C8  UNL     1      30.525   9.274  48.244  1.00  0.00     0.024 C 
HETATM   12  C9  UNL     1      30.516   9.644  46.953  1.00  0.00     0.087 C 
HETATM   13  C10 UNL     1      31.265  10.877  46.436  1.00  0.00     0.338 C 
HETATM   14  O2  UNL     1      29.867   9.053  45.854  1.00  0.00    -0.351 OA
HETATM   15  N3  UNL     1      30.188  11.845  46.647  1.00  0.00     0.100 NA
HETATM   16  C11 UNL     1      30.069  12.325  47.954  1.00  0.00     0.300 C 
HETATM   17  C14 UNL     1      29.015  11.242  46.040  1.00  0.00     0.299 C 
HETATM   18  C12 UNL     1      30.643  11.600  49.113  1.00  0.00     0.004 C 
HETATM   19  C13 UNL     1      30.643  10.261  49.365  1.00  0.00     0.014 C 
HETATM   20  C15 UNL     1      29.296  10.134  45.026  1.00  0.00     0.205 C 
ENDBRANCH   7  11
BRANCH  10  21
HETATM   21  O3  UNL     1      35.023   6.813  47.898  1.00  0.00    -0.353 OA
HETATM   22  C19 UNL     1      35.531   8.075  48.261  1.00  0.00     0.210 C 
ENDBRANCH  10  21
BRANCH   1  23
HETATM   23  O1  UNL     1      34.497   4.166  47.836  1.00  0.00    -0.349 OA
BRANCH  23  24
HETATM   24  C2  UNL     1      34.460   3.189  46.816  1.00  0.00     0.171 C 
HETATM   25  C1  UNL     1      35.084   3.828  45.591  1.00  0.00     0.034 C 
ENDBRANCH  23  24
ENDBRANCH   1  23
TORSDOF 4
ENDMDL
MODEL 7
REMARK VINA RESULT:      -6.7      7.181     10.422
REMARK  4 active torsions:
REMARK  status: ('A' for Active; 'I' for Inactive)
REMARK    1  A    between atoms: C2_2  and  O1_3 
REMARK    2  A    between atoms: O1_3  and  C3_4 
REMARK    3  A    between atoms: C7_10  and  C8_11 
REMARK    4  A    between atoms: C18_23  and  O3_24 
ROOT
HETATM    1  C3  UNL     1      26.841   5.919  48.663  1.00  0.00     0.104 A 
HETATM    2  C4  UNL     1      27.980   5.168  48.466  1.00  0.00     0.072 A 
HETATM    3  C5  UNL     1      29.200   5.790  48.310  1.00  0.00     0.073 A 
HETATM    4  N1  UNL     1      30.353   5.097  48.128  1.00  0.00    -0.241 NA
HETATM    5  C6  UNL     1      31.534   5.720  47.992  1.00  0.00     0.234 A 
HETATM    6  N2  UNL     1      31.628   7.073  48.029  1.00  0.00    -0.240 NA
HETATM    7  C7  UNL     1      30.527   7.834  48.205  1.00  0.00     0.083 A 
HETATM    8  C16 UNL     1      29.359   7.152  48.338  1.00  0.00     0.025 A 
HETATM    9  C17 UNL     1      28.201   7.867  48.539  1.00  0.00     0.055 A 
HETATM   10  C18 UNL     1      26.951   7.313  48.703  1.00  0.00     0.102 A 
ENDROOT
BRANCH   7  11
HETATM   11  C8  UNL     1      30.704   9.264  48.229  1.00  0.00     0.024 C 
HETATM   12  C9  UNL     1      30.865   9.592  46.936  1.00  0.00     0.087 C 
HETATM   13  C10 UNL     1      31.670  10.815  46.483  1.00  0.00     0.338 C 
HETATM   14  O2  UNL     1      30.372   8.959  45.781  1.00  0.00    -0.351 OA
HETATM   15  N3  UNL     1      30.569  11.778  46.517  1.00  0.00     0.100 NA
HETATM   16  C11 UNL     1      30.274  12.300  47.779  1.00  0.00     0.300 C 
HETATM   17  C14 UNL     1      29.490  11.145  45.779  1.00  0.00     0.299 C 
HETATM   18  C12 UNL     1      30.692  11.618  49.027  1.00  0.00     0.004 C 
HETATM   19  C13 UNL     1      30.666  10.288  49.323  1.00  0.00     0.014 C 
HETATM   20  C15 UNL     1      29.910  10.007  44.850  1.00  0.00     0.205 C 
ENDBRANCH   7  11
BRANCH  10  21
HETATM   21  O3  UNL     1      25.769   8.000  48.906  1.00  0.00    -0.353 OA
HETATM   22  C19 UNL     1      25.476   8.789  50.035  1.00  0.00     0.210 C 
ENDBRANCH  10  21
BRANCH   1  23
HETATM   23  O1  UNL     1      25.603   5.307  48.822  1.00  0.00    -0.349 OA
BRANCH  23  24
HETATM   24  C2  UNL     1      25.322   4.659  50.046  1.00  0.00     0.171 C 
HETATM   25  C1  UNL     1      24.747   3.303  49.687  1.00  0.00     0.034 C 
ENDBRANCH  23  24
ENDBRANCH   1  23
TORSDOF 4
ENDMDL
MODEL 8
REMARK VINA RESULT:      -6.6      2.963      4.806
REMARK  4 active torsions:
REMARK  status: ('A' for Active; 'I' for Inactive)
REMARK    1  A    between atoms: C2_2  and  O1_3 
REMARK    2  A    between atoms: O1_3  and  C3_4 
REMARK    3  A    between atoms: C7_10  and  C8_11 
REMARK    4  A    between atoms: C18_23  and  O3_24 
ROOT
HETATM    1  C3  UNL     1      22.815   1.225  52.909  1.00  0.00     0.104 A 
HETATM    2  C4  UNL     1      24.162   1.146  52.627  1.00  0.00     0.072 A 
HETATM    3  C5  UNL     1      24.715   1.961  51.663  1.00  0.00     0.073 A 
HETATM    4  N1  UNL     1      26.037   1.935  51.358  1.00  0.00    -0.241 NA
HETATM    5  C6  UNL     1      26.560   2.746  50.425  1.00  0.00     0.234 A 
HETATM    6  N2  UNL     1      25.789   3.630  49.744  1.00  0.00    -0.240 NA
HETATM    7  C7  UNL     1      24.464   3.718  49.988  1.00  0.00     0.083 A 
HETATM    8  C16 UNL     1      23.988   2.875  50.942  1.00  0.00     0.025 A 
HETATM    9  C17 UNL     1      22.649   2.925  51.253  1.00  0.00     0.055 A 
HETATM   10  C18 UNL     1      22.030   2.143  52.203  1.00  0.00     0.102 A 
ENDROOT
BRANCH   7  11
HETATM   11  C8  UNL     1      23.708   4.676  49.223  1.00  0.00     0.024 C 
HETATM   12  C9  UNL     1      23.938   5.843  49.847  1.00  0.00     0.087 C 
HETATM   13  C10 UNL     1      22.938   7.005  49.833  1.00  0.00     0.338 C 
HETATM   14  O2  UNL     1      25.055   6.257  50.594  1.00  0.00    -0.351 OA
HETATM   15  N3  UNL     1      23.424   7.645  48.610  1.00  0.00     0.100 NA
HETATM   16  C11 UNL     1      22.957   7.082  47.419  1.00  0.00     0.300 C 
HETATM   17  C14 UNL     1      24.860   7.758  48.787  1.00  0.00     0.299 C 
HETATM   18  C12 UNL     1      22.419   5.702  47.361  1.00  0.00     0.004 C 
HETATM   19  C13 UNL     1      22.886   4.578  47.974  1.00  0.00     0.014 C 
HETATM   20  C15 UNL     1      25.354   7.657  50.230  1.00  0.00     0.205 C 
ENDBRANCH   7  11
BRANCH  10  21
HETATM   21  O3  UNL     1      20.690   2.167  52.539  1.00  0.00    -0.353 OA
HETATM   22  C19 UNL     1      19.729   3.023  51.969  1.00  0.00     0.210 C 
ENDBRANCH  10  21
BRANCH   1  23
HETATM   23  O1  UNL     1      22.241   0.410  53.878  1.00  0.00    -0.349 OA
BRANCH  23  24
HETATM   24  C2  UNL     1      22.390  -0.991  53.756  1.00  0.00     0.171 C 
HETATM   25  C1  UNL     1      21.122  -1.604  54.319  1.00  0.00     0.034 C 
ENDBRANCH  23  24
ENDBRANCH   1  23
TORSDOF 4
ENDMDL
MODEL 9
REMARK VINA RESULT:      -6.5      5.988      8.947
REMARK  4 active torsions:
REMARK  status: ('A' for Active; 'I' for Inactive)
REMARK    1  A    between atoms: C2_2  and  O1_3 
REMARK    2  A    between atoms: O1_3  and  C3_4 
REMARK    3  A    between atoms: C7_10  and  C8_11 
REMARK    4  A    between atoms: C18_23  and  O3_24 
ROOT
HETATM    1  C3  UNL     1      25.720   4.692  49.402  1.00  0.00     0.104 A 
HETATM    2  C4  UNL     1      26.998   4.257  49.122  1.00  0.00     0.072 A 
HETATM    3  C5  UNL     1      27.920   5.125  48.578  1.00  0.00     0.073 A 
HETATM    4  N1  UNL     1      29.194   4.753  48.298  1.00  0.00    -0.241 NA
HETATM    5  C6  UNL     1      30.083   5.617  47.782  1.00  0.00     0.234 A 
HETATM    6  N2  UNL     1      29.745   6.903  47.517  1.00  0.00    -0.240 NA
HETATM    7  C7  UNL     1      28.497   7.352  47.766  1.00  0.00     0.083 A 
HETATM    8  C16 UNL     1      27.639   6.437  48.289  1.00  0.00     0.025 A 
HETATM    9  C17 UNL     1      26.356   6.833  48.584  1.00  0.00     0.055 A 
HETATM   10  C18 UNL     1      25.384   6.022  49.127  1.00  0.00     0.102 A 
ENDROOT
BRANCH   7  11
HETATM   11  C8  UNL     1      28.210   8.729  47.454  1.00  0.00     0.024 C 
HETATM   12  C9  UNL     1      28.715   9.410  48.497  1.00  0.00     0.087 C 
HETATM   13  C10 UNL     1      28.159  10.763  48.954  1.00  0.00     0.338 C 
HETATM   14  O2  UNL     1      29.787   9.085  49.347  1.00  0.00    -0.351 OA
HETATM   15  N3  UNL     1      28.995  11.601  48.094  1.00  0.00     0.100 NA
HETATM   16  C11 UNL     1      28.546  11.735  46.778  1.00  0.00     0.300 C 
HETATM   17  C14 UNL     1      30.349  11.121  48.301  1.00  0.00     0.299 C 
HETATM   18  C12 UNL     1      27.603  10.768  46.168  1.00  0.00     0.004 C 
HETATM   19  C13 UNL     1      27.587   9.409  46.273  1.00  0.00     0.014 C 
HETATM   20  C15 UNL     1      30.573  10.314  49.579  1.00  0.00     0.205 C 
ENDBRANCH   7  11
BRANCH  10  21
HETATM   21  O3  UNL     1      24.088   6.387  49.435  1.00  0.00    -0.353 OA
HETATM   22  C19 UNL     1      23.718   7.242  50.491  1.00  0.00     0.210 C 
ENDBRANCH  10  21
BRANCH   1  23
HETATM   23  O1  UNL     1      24.778   3.828  49.950  1.00  0.00    -0.349 OA
BRANCH  23  24
HETATM   24  C2  UNL     1      25.144   3.055  51.074  1.00  0.00     0.171 C 
HETATM   25  C1  UNL     1      23.967   2.145  51.368  1.00  0.00     0.034 C 
ENDBRANCH  23  24
ENDBRANCH   1  23
TORSDOF 4
ENDMDL
