MODEL 1
REMARK VINA RESULT:      -7.7      0.000      0.000
REMARK  6 active torsions:
REMARK  status: ('A' for Active; 'I' for Inactive)
REMARK    1  A    between atoms: C7_7  and  N1_8 
REMARK    2  A    between atoms: N1_8  and  C8_9 
REMARK    3  A    between atoms: N1_8  and  C15_17 
REMARK    4  A    between atoms: C8_9  and  N2_10 
REMARK    5  A    between atoms: N2_10  and  C9_11 
REMARK    6  A    between atoms: C20_23  and  O2_24 
ROOT
HETATM    1  N1  UNL     1      25.091   2.097  52.600  1.00  0.00    -0.351 N 
ENDROOT
BRANCH   1   2
HETATM    2  C7  UNL     1      24.659   1.738  51.244  1.00  0.00     0.138 C 
HETATM    3  C5  UNL     1      25.017   2.789  50.310  1.00  0.00    -0.057 C 
HETATM    4  C4  UNL     1      24.358   3.256  49.236  1.00  0.00     0.005 C 
HETATM    5  C6  UNL     1      26.266   3.588  50.390  1.00  0.00     0.046 C 
HETATM    6  C3  UNL     1      23.071   2.851  48.667  1.00  0.00     0.007 C 
HETATM    7  C2  UNL     1      22.111   2.102  49.236  1.00  0.00    -0.062 C 
HETATM    8  C1  UNL     1      20.876   1.818  48.457  1.00  0.00     0.048 C 
HETATM    9  C22 UNL     1      22.164   1.525  50.574  1.00  0.00     0.005 C 
HETATM   10  C21 UNL     1      23.246   1.411  51.339  1.00  0.00     0.003 C 
ENDBRANCH   1   2
BRANCH   1  11
HETATM   11  C8  UNL     1      24.059   2.877  53.208  1.00  0.00     0.247 C 
BRANCH  11  12
HETATM   12  N2  UNL     1      24.294   4.304  53.207  1.00  0.00    -0.374 N 
HETATM   13  H12 UNL     1      24.982   4.844  53.775  1.00  0.00     0.161 HD
BRANCH  12  14
HETATM   14  C9  UNL     1      23.486   5.065  52.319  1.00  0.00     0.029 A 
HETATM   15  C10 UNL     1      22.156   4.784  52.084  1.00  0.00     0.029 A 
HETATM   16  C11 UNL     1      21.371   5.522  51.224  1.00  0.00     0.002 A 
HETATM   17  C12 UNL     1      21.898   6.596  50.548  1.00  0.00     0.000 A 
HETATM   18  C13 UNL     1      23.213   6.924  50.739  1.00  0.00     0.002 A 
HETATM   19  C14 UNL     1      23.941   6.155  51.605  1.00  0.00     0.029 A 
ENDBRANCH  12  14
ENDBRANCH  11  12
ENDBRANCH   1  11
BRANCH   1  20
HETATM   20  C15 UNL     1      26.359   1.648  53.065  1.00  0.00     0.064 C 
HETATM   21  C16 UNL     1      27.404   2.443  53.167  1.00  0.00     0.031 C 
HETATM   22  C17 UNL     1      28.801   2.277  53.599  1.00  0.00     0.197 C 
HETATM   23  O1  UNL     1      29.193   0.997  53.874  1.00  0.00    -0.384 OA
HETATM   24  C18 UNL     1      28.508   0.345  54.868  1.00  0.00     0.198 C 
HETATM   25  C19 UNL     1      27.383  -0.415  54.211  1.00  0.00     0.038 C 
HETATM   26  C20 UNL     1      26.482   0.220  53.438  1.00  0.00     0.090 C 
BRANCH  26  27
HETATM   27  O2  UNL     1      25.484  -0.605  52.886  1.00  0.00    -0.359 OA
HETATM   28  H24 UNL     1      25.180  -0.360  51.947  1.00  0.00     0.217 HD
ENDBRANCH  26  27
ENDBRANCH   1  20
TORSDOF 6
ENDMDL
MODEL 2
REMARK VINA RESULT:      -7.7      2.775      6.354
REMARK  6 active torsions:
REMARK  status: ('A' for Active; 'I' for Inactive)
REMARK    1  A    between atoms: C7_7  and  N1_8 
REMARK    2  A    between atoms: N1_8  and  C8_9 
REMARK    3  A    between atoms: N1_8  and  C15_17 
REMARK    4  A    between atoms: C8_9  and  N2_10 
REMARK    5  A    between atoms: N2_10  and  C9_11 
REMARK    6  A    between atoms: C20_23  and  O2_24 
ROOT
HETATM    1  N1  UNL     1      23.664   2.929  51.964  1.00  0.00    -0.351 N 
ENDROOT
BRANCH   1   2
HETATM    2  C7  UNL     1      22.698   1.825  51.930  1.00  0.00     0.138 C 
HETATM    3  C5  UNL     1      21.433   2.250  52.499  1.00  0.00    -0.057 C 
HETATM    4  C4  UNL     1      20.551   1.572  53.254  1.00  0.00     0.005 C 
HETATM    5  C6  UNL     1      20.855   3.608  52.332  1.00  0.00     0.046 C 
HETATM    6  C3  UNL     1      20.587   0.192  53.740  1.00  0.00     0.007 C 
HETATM    7  C2  UNL     1      21.635  -0.648  53.776  1.00  0.00    -0.062 C 
HETATM    8  C1  UNL     1      21.430  -2.019  54.319  1.00  0.00     0.048 C 
HETATM    9  C22 UNL     1      22.987  -0.341  53.325  1.00  0.00     0.005 C 
HETATM   10  C21 UNL     1      23.347   0.693  52.570  1.00  0.00     0.003 C 
ENDBRANCH   1   2
BRANCH   1  11
HETATM   11  C8  UNL     1      24.545   2.720  53.071  1.00  0.00     0.247 C 
BRANCH  11  12
HETATM   12  N2  UNL     1      25.951   2.858  52.763  1.00  0.00    -0.374 N 
HETATM   13  H12 UNL     1      26.402   3.510  52.086  1.00  0.00     0.161 HD
BRANCH  12  14
HETATM   14  C9  UNL     1      26.830   1.994  53.475  1.00  0.00     0.029 A 
HETATM   15  C10 UNL     1      28.201   2.136  53.458  1.00  0.00     0.029 A 
HETATM   16  C11 UNL     1      29.053   1.300  54.148  1.00  0.00     0.002 A 
HETATM   17  C12 UNL     1      28.554   0.264  54.900  1.00  0.00     0.000 A 
HETATM   18  C13 UNL     1      27.201   0.072  54.956  1.00  0.00     0.002 A 
HETATM   19  C14 UNL     1      26.406   0.934  54.250  1.00  0.00     0.029 A 
ENDBRANCH  12  14
ENDBRANCH  11  12
ENDBRANCH   1  11
BRANCH   1  20
HETATM   20  C15 UNL     1      23.589   3.947  50.974  1.00  0.00     0.064 C 
HETATM   21  C16 UNL     1      23.506   3.685  49.685  1.00  0.00     0.031 C 
HETATM   22  C17 UNL     1      23.417   4.497  48.461  1.00  0.00     0.197 C 
HETATM   23  O1  UNL     1      23.554   5.847  48.628  1.00  0.00    -0.384 OA
HETATM   24  C18 UNL     1      22.636   6.460  49.443  1.00  0.00     0.198 C 
HETATM   25  C19 UNL     1      23.220   6.489  50.833  1.00  0.00     0.038 C 
HETATM   26  C20 UNL     1      23.615   5.354  51.438  1.00  0.00     0.090 C 
BRANCH  26  27
HETATM   27  O2  UNL     1      24.142   5.520  52.733  1.00  0.00    -0.359 OA
HETATM   28  H24 UNL     1      24.772   6.309  52.853  1.00  0.00     0.217 HD
ENDBRANCH  26  27
ENDBRANCH   1  20
TORSDOF 6
ENDMDL
MODEL 3
REMARK VINA RESULT:      -7.5      2.060      5.635
REMARK  6 active torsions:
REMARK  status: ('A' for Active; 'I' for Inactive)
REMARK    1  A    between atoms: C7_7  and  N1_8 
REMARK    2  A    between atoms: N1_8  and  C8_9 
REMARK    3  A    between atoms: N1_8  and  C15_17 
REMARK    4  A    between atoms: C8_9  and  N2_10 
REMARK    5  A    between atoms: N2_10  and  C9_11 
REMARK    6  A    between atoms: C20_23  and  O2_24 
ROOT
HETATM    1  N1  UNL     1      23.997   2.322  51.546  1.00  0.00    -0.351 N 
ENDROOT
BRANCH   1   2
HETATM    2  C7  UNL     1      24.989   1.279  51.829  1.00  0.00     0.138 C 
HETATM    3  C5  UNL     1      24.613   0.539  53.019  1.00  0.00    -0.057 C 
HETATM    4  C4  UNL     1      25.378   0.022  53.996  1.00  0.00     0.005 C 
HETATM    5  C6  UNL     1      23.214   0.203  53.387  1.00  0.00     0.046 C 
HETATM    6  C3  UNL     1      26.831   0.040  54.168  1.00  0.00     0.007 C 
HETATM    7  C2  UNL     1      27.732   0.810  53.535  1.00  0.00    -0.062 C 
HETATM    8  C1  UNL     1      29.172   0.650  53.879  1.00  0.00     0.048 C 
HETATM    9  C22 UNL     1      27.431   1.811  52.518  1.00  0.00     0.005 C 
HETATM   10  C21 UNL     1      26.282   1.942  51.861  1.00  0.00     0.003 C 
ENDBRANCH   1   2
BRANCH   1  11
HETATM   11  C8  UNL     1      24.092   3.320  52.565  1.00  0.00     0.247 C 
BRANCH  11  12
HETATM   12  N2  UNL     1      22.917   4.148  52.718  1.00  0.00    -0.374 N 
HETATM   13  H12 UNL     1      22.097   3.993  53.343  1.00  0.00     0.161 HD
BRANCH  12  14
HETATM   14  C9  UNL     1      22.876   5.321  51.915  1.00  0.00     0.029 A 
HETATM   15  C10 UNL     1      23.990   6.086  51.643  1.00  0.00     0.029 A 
HETATM   16  C11 UNL     1      23.951   7.223  50.864  1.00  0.00     0.002 A 
HETATM   17  C12 UNL     1      22.767   7.650  50.314  1.00  0.00     0.000 A 
HETATM   18  C13 UNL     1      21.626   6.933  50.549  1.00  0.00     0.002 A 
HETATM   19  C14 UNL     1      21.727   5.813  51.329  1.00  0.00     0.029 A 
ENDBRANCH  12  14
ENDBRANCH  11  12
ENDBRANCH   1  11
BRANCH   1  20
HETATM   20  C15 UNL     1      23.166   2.196  50.398  1.00  0.00     0.064 C 
HETATM   21  C16 UNL     1      22.169   1.337  50.329  1.00  0.00     0.031 C 
HETATM   22  C17 UNL     1      21.166   0.986  49.311  1.00  0.00     0.197 C 
HETATM   23  O1  UNL     1      21.317   1.583  48.092  1.00  0.00    -0.384 OA
HETATM   24  C18 UNL     1      21.275   2.955  48.071  1.00  0.00     0.198 C 
HETATM   25  C19 UNL     1      22.694   3.449  48.202  1.00  0.00     0.038 C 
HETATM   26  C20 UNL     1      23.460   3.076  49.243  1.00  0.00     0.090 C 
BRANCH  26  27
HETATM   27  O2  UNL     1      24.764   3.607  49.245  1.00  0.00    -0.359 OA
HETATM   28  H24 UNL     1      25.507   2.949  49.464  1.00  0.00     0.217 HD
ENDBRANCH  26  27
ENDBRANCH   1  20
TORSDOF 6
ENDMDL
MODEL 4
REMARK VINA RESULT:      -7.5      2.671      5.471
REMARK  6 active torsions:
REMARK  status: ('A' for Active; 'I' for Inactive)
REMARK    1  A    between atoms: C7_7  and  N1_8 
REMARK    2  A    between atoms: N1_8  and  C8_9 
REMARK    3  A    between atoms: N1_8  and  C15_17 
REMARK    4  A    between atoms: C8_9  and  N2_10 
REMARK    5  A    between atoms: N2_10  and  C9_11 
REMARK    6  A    between atoms: C20_23  and  O2_24 
ROOT
HETATM    1  N1  UNL     1      23.935   4.107  51.335  1.00  0.00    -0.351 N 
ENDROOT
BRANCH   1   2
HETATM    2  C7  UNL     1      22.731   3.628  50.648  1.00  0.00     0.138 C 
HETATM    3  C5  UNL     1      21.579   4.412  51.051  1.00  0.00    -0.057 C 
HETATM    4  C4  UNL     1      20.304   4.039  51.256  1.00  0.00     0.005 C 
HETATM    5  C6  UNL     1      21.617   5.871  51.328  1.00  0.00     0.046 C 
HETATM    6  C3  UNL     1      19.674   2.723  51.136  1.00  0.00     0.007 C 
HETATM    7  C2  UNL     1      20.271   1.522  51.056  1.00  0.00    -0.062 C 
HETATM    8  C1  UNL     1      19.415   0.309  50.938  1.00  0.00     0.048 C 
HETATM    9  C22 UNL     1      21.709   1.283  51.072  1.00  0.00     0.005 C 
HETATM   10  C21 UNL     1      22.659   2.198  50.898  1.00  0.00     0.003 C 
ENDBRANCH   1   2
BRANCH   1  11
HETATM   11  C8  UNL     1      23.840   3.744  52.714  1.00  0.00     0.247 C 
BRANCH  11  12
HETATM   12  N2  UNL     1      25.083   3.320  53.319  1.00  0.00    -0.374 N 
HETATM   13  H12 UNL     1      25.731   3.877  53.917  1.00  0.00     0.161 HD
BRANCH  12  14
HETATM   14  C9  UNL     1      25.468   1.975  53.067  1.00  0.00     0.029 A 
HETATM   15  C10 UNL     1      26.582   1.637  52.326  1.00  0.00     0.029 A 
HETATM   16  C11 UNL     1      26.956   0.333  52.082  1.00  0.00     0.002 A 
HETATM   17  C12 UNL     1      26.214  -0.710  52.582  1.00  0.00     0.000 A 
HETATM   18  C13 UNL     1      25.098  -0.438  53.324  1.00  0.00     0.002 A 
HETATM   19  C14 UNL     1      24.776   0.875  53.533  1.00  0.00     0.029 A 
ENDBRANCH  12  14
ENDBRANCH  11  12
ENDBRANCH   1  11
BRANCH   1  20
HETATM   20  C15 UNL     1      24.933   4.795  50.588  1.00  0.00     0.064 C 
HETATM   21  C16 UNL     1      25.751   4.182  49.757  1.00  0.00     0.031 C 
HETATM   22  C17 UNL     1      26.849   4.607  48.874  1.00  0.00     0.197 C 
HETATM   23  O1  UNL     1      27.223   5.918  48.973  1.00  0.00    -0.384 OA
HETATM   24  C18 UNL     1      26.257   6.853  48.697  1.00  0.00     0.198 C 
HETATM   25  C19 UNL     1      25.594   7.211  50.004  1.00  0.00     0.038 C 
HETATM   26  C20 UNL     1      25.037   6.260  50.777  1.00  0.00     0.090 C 
BRANCH  26  27
HETATM   27  O2  UNL     1      24.452   6.728  51.969  1.00  0.00    -0.359 OA
HETATM   28  H24 UNL     1      23.801   6.089  52.419  1.00  0.00     0.217 HD
ENDBRANCH  26  27
ENDBRANCH   1  20
TORSDOF 6
ENDMDL
MODEL 5
REMARK VINA RESULT:      -7.3      3.173      5.830
REMARK  6 active torsions:
REMARK  status: ('A' for Active; 'I' for Inactive)
REMARK    1  A    between atoms: C7_7  and  N1_8 
REMARK    2  A    between atoms: N1_8  and  C8_9 
REMARK    3  A    between atoms: N1_8  and  C15_17 
REMARK    4  A    between atoms: C8_9  and  N2_10 
REMARK    5  A    between atoms: N2_10  and  C9_11 
REMARK    6  A    between atoms: C20_23  and  O2_24 
ROOT
HETATM    1  N1  UNL     1      23.149   3.273  51.536  1.00  0.00    -0.351 N 
ENDROOT
BRANCH   1   2
HETATM    2  C7  UNL     1      23.179   2.361  52.685  1.00  0.00     0.138 C 
HETATM    3  C5  UNL     1      24.224   1.370  52.510  1.00  0.00    -0.057 C 
HETATM    4  C4  UNL     1      24.250   0.069  52.846  1.00  0.00     0.005 C 
HETATM    5  C6  UNL     1      25.541   1.647  51.882  1.00  0.00     0.046 C 
HETATM    6  C3  UNL     1      23.234  -0.760  53.496  1.00  0.00     0.007 C 
HETATM    7  C2  UNL     1      21.928  -0.489  53.668  1.00  0.00    -0.062 C 
HETATM    8  C1  UNL     1      21.080  -1.494  54.366  1.00  0.00     0.048 C 
HETATM    9  C22 UNL     1      21.246   0.722  53.230  1.00  0.00     0.005 C 
HETATM   10  C21 UNL     1      21.826   1.853  52.840  1.00  0.00     0.003 C 
ENDBRANCH   1   2
BRANCH   1  11
HETATM   11  C8  UNL     1      24.065   4.342  51.788  1.00  0.00     0.247 C 
BRANCH  11  12
HETATM   12  N2  UNL     1      24.089   5.374  50.775  1.00  0.00    -0.374 N 
HETATM   13  H12 UNL     1      23.347   6.070  50.548  1.00  0.00     0.161 HD
BRANCH  12  14
HETATM   14  C9  UNL     1      25.273   5.447  49.992  1.00  0.00     0.029 A 
HETATM   15  C10 UNL     1      25.736   6.622  49.436  1.00  0.00     0.029 A 
HETATM   16  C11 UNL     1      26.885   6.694  48.677  1.00  0.00     0.002 A 
HETATM   17  C12 UNL     1      27.634   5.567  48.438  1.00  0.00     0.000 A 
HETATM   18  C13 UNL     1      27.224   4.371  48.962  1.00  0.00     0.002 A 
HETATM   19  C14 UNL     1      26.077   4.362  49.707  1.00  0.00     0.029 A 
ENDBRANCH  12  14
ENDBRANCH  11  12
ENDBRANCH   1  11
BRANCH   1  20
HETATM   20  C15 UNL     1      22.293   2.979  50.439  1.00  0.00     0.064 C 
HETATM   21  C16 UNL     1      22.617   2.123  49.491  1.00  0.00     0.031 C 
HETATM   22  C17 UNL     1      21.964   1.625  48.269  1.00  0.00     0.197 C 
HETATM   23  O1  UNL     1      20.789   2.235  47.929  1.00  0.00    -0.384 OA
HETATM   24  C18 UNL     1      19.771   2.160  48.847  1.00  0.00     0.198 C 
HETATM   25  C19 UNL     1      19.859   3.389  49.715  1.00  0.00     0.038 C 
HETATM   26  C20 UNL     1      20.992   3.684  50.380  1.00  0.00     0.090 C 
BRANCH  26  27
HETATM   27  O2  UNL     1      20.941   4.859  51.154  1.00  0.00    -0.359 OA
HETATM   28  H24 UNL     1      20.340   5.596  50.795  1.00  0.00     0.217 HD
ENDBRANCH  26  27
ENDBRANCH   1  20
TORSDOF 6
ENDMDL
MODEL 6
REMARK VINA RESULT:      -7.3      2.829      6.142
REMARK  6 active torsions:
REMARK  status: ('A' for Active; 'I' for Inactive)
REMARK    1  A    between atoms: C7_7  and  N1_8 
REMARK    2  A    between atoms: N1_8  and  C8_9 
REMARK    3  A    between atoms: N1_8  and  C15_17 
REMARK    4  A    between atoms: C8_9  and  N2_10 
REMARK    5  A    between atoms: N2_10  and  C9_11 
REMARK    6  A    between atoms: C20_23  and  O2_24 
ROOT
HETATM    1  N1  UNL     1      22.143   1.908  51.492  1.00  0.00    -0.351 N 
ENDROOT
BRANCH   1   2
HETATM    2  C7  UNL     1      22.937   1.809  52.722  1.00  0.00     0.138 C 
HETATM    3  C5  UNL     1      23.736   3.008  52.899  1.00  0.00    -0.057 C 
HETATM    4  C4  UNL     1      24.979   3.157  53.388  1.00  0.00     0.005 C 
HETATM    5  C6  UNL     1      23.281   4.376  52.543  1.00  0.00     0.046 C 
HETATM    6  C3  UNL     1      25.921   2.158  53.897  1.00  0.00     0.007 C 
HETATM    7  C2  UNL     1      25.875   0.823  53.747  1.00  0.00    -0.062 C 
HETATM    8  C1  UNL     1      26.955   0.002  54.360  1.00  0.00     0.048 C 
HETATM    9  C22 UNL     1      24.846   0.082  53.028  1.00  0.00     0.005 C 
HETATM   10  C21 UNL     1      23.665   0.554  52.639  1.00  0.00     0.003 C 
ENDBRANCH   1   2
BRANCH   1  11
HETATM   11  C8  UNL     1      23.011   1.690  50.378  1.00  0.00     0.247 C 
BRANCH  11  12
HETATM   12  N2  UNL     1      22.968   2.719  49.362  1.00  0.00    -0.374 N 
HETATM   13  H12 UNL     1      22.204   2.920  48.682  1.00  0.00     0.161 HD
BRANCH  12  14
HETATM   14  C9  UNL     1      24.111   3.561  49.284  1.00  0.00     0.029 A 
HETATM   15  C10 UNL     1      24.047   4.881  48.889  1.00  0.00     0.029 A 
HETATM   16  C11 UNL     1      25.154   5.699  48.813  1.00  0.00     0.002 A 
HETATM   17  C12 UNL     1      26.399   5.217  49.137  1.00  0.00     0.000 A 
HETATM   18  C13 UNL     1      26.527   3.914  49.534  1.00  0.00     0.002 A 
HETATM   19  C14 UNL     1      25.393   3.151  49.591  1.00  0.00     0.029 A 
ENDBRANCH  12  14
ENDBRANCH  11  12
ENDBRANCH   1  11
BRANCH   1  20
HETATM   20  C15 UNL     1      20.749   2.177  51.587  1.00  0.00     0.064 C 
HETATM   21  C16 UNL     1      20.247   3.391  51.487  1.00  0.00     0.031 C 
HETATM   22  C17 UNL     1      18.894   3.967  51.541  1.00  0.00     0.197 C 
HETATM   23  O1  UNL     1      17.890   3.102  51.875  1.00  0.00    -0.384 OA
HETATM   24  C18 UNL     1      17.707   2.024  51.046  1.00  0.00     0.198 C 
HETATM   25  C19 UNL     1      18.524   0.886  51.606  1.00  0.00     0.038 C 
HETATM   26  C20 UNL     1      19.846   1.024  51.816  1.00  0.00     0.090 C 
BRANCH  26  27
HETATM   27  O2  UNL     1      20.489  -0.113  52.341  1.00  0.00    -0.359 OA
HETATM   28  H24 UNL     1      20.442  -0.218  53.351  1.00  0.00     0.217 HD
ENDBRANCH  26  27
ENDBRANCH   1  20
TORSDOF 6
ENDMDL
MODEL 7
REMARK VINA RESULT:      -7.2      2.756      6.065
REMARK  6 active torsions:
REMARK  status: ('A' for Active; 'I' for Inactive)
REMARK    1  A    between atoms: C7_7  and  N1_8 
REMARK    2  A    between atoms: N1_8  and  C8_9 
REMARK    3  A    between atoms: N1_8  and  C15_17 
REMARK    4  A    between atoms: C8_9  and  N2_10 
REMARK    5  A    between atoms: N2_10  and  C9_11 
REMARK    6  A    between atoms: C20_23  and  O2_24 
ROOT
HETATM    1  N1  UNL     1      23.581   2.675  51.072  1.00  0.00    -0.351 N 
ENDROOT
BRANCH   1   2
HETATM    2  C7  UNL     1      24.113   1.342  51.375  1.00  0.00     0.138 C 
HETATM    3  C5  UNL     1      23.566   0.858  52.629  1.00  0.00    -0.057 C 
HETATM    4  C4  UNL     1      24.140   0.128  53.600  1.00  0.00     0.005 C 
HETATM    5  C6  UNL     1      22.175   1.108  53.086  1.00  0.00     0.046 C 
HETATM    6  C3  UNL     1      25.497  -0.412  53.701  1.00  0.00     0.007 C 
HETATM    7  C2  UNL     1      26.578  -0.080  52.974  1.00  0.00    -0.062 C 
HETATM    8  C1  UNL     1      27.865  -0.771  53.259  1.00  0.00     0.048 C 
HETATM    9  C22 UNL     1      26.614   0.914  51.908  1.00  0.00     0.005 C 
HETATM   10  C21 UNL     1      25.561   1.453  51.301  1.00  0.00     0.003 C 
ENDBRANCH   1   2
BRANCH   1  11
HETATM   11  C8  UNL     1      24.300   3.633  51.852  1.00  0.00     0.247 C 
BRANCH  11  12
HETATM   12  N2  UNL     1      24.314   4.973  51.308  1.00  0.00    -0.374 N 
HETATM   13  H12 UNL     1      23.666   5.762  51.521  1.00  0.00     0.161 HD
BRANCH  12  14
HETATM   14  C9  UNL     1      25.341   5.249  50.364  1.00  0.00     0.029 A 
HETATM   15  C10 UNL     1      25.605   6.516  49.887  1.00  0.00     0.029 A 
HETATM   16  C11 UNL     1      26.601   6.784  48.973  1.00  0.00     0.002 A 
HETATM   17  C12 UNL     1      27.392   5.771  48.488  1.00  0.00     0.000 A 
HETATM   18  C13 UNL     1      27.179   4.492  48.923  1.00  0.00     0.002 A 
HETATM   19  C14 UNL     1      26.176   4.288  49.831  1.00  0.00     0.029 A 
ENDBRANCH  12  14
ENDBRANCH  11  12
ENDBRANCH   1  11
BRANCH   1  20
HETATM   20  C15 UNL     1      22.526   2.802  50.125  1.00  0.00     0.064 C 
HETATM   21  C16 UNL     1      22.650   2.438  48.866  1.00  0.00     0.031 C 
HETATM   22  C17 UNL     1      21.768   2.445  47.687  1.00  0.00     0.197 C 
HETATM   23  O1  UNL     1      20.558   3.060  47.851  1.00  0.00    -0.384 OA
HETATM   24  C18 UNL     1      19.734   2.544  48.820  1.00  0.00     0.198 C 
HETATM   25  C19 UNL     1      20.004   3.309  50.091  1.00  0.00     0.038 C 
HETATM   26  C20 UNL     1      21.247   3.379  50.602  1.00  0.00     0.090 C 
BRANCH  26  27
HETATM   27  O2  UNL     1      21.362   4.123  51.792  1.00  0.00    -0.359 OA
HETATM   28  H24 UNL     1      22.248   4.604  51.925  1.00  0.00     0.217 HD
ENDBRANCH  26  27
ENDBRANCH   1  20
TORSDOF 6
ENDMDL
MODEL 8
REMARK VINA RESULT:      -7.2      2.725      5.767
REMARK  6 active torsions:
REMARK  status: ('A' for Active; 'I' for Inactive)
REMARK    1  A    between atoms: C7_7  and  N1_8 
REMARK    2  A    between atoms: N1_8  and  C8_9 
REMARK    3  A    between atoms: N1_8  and  C15_17 
REMARK    4  A    between atoms: C8_9  and  N2_10 
REMARK    5  A    between atoms: N2_10  and  C9_11 
REMARK    6  A    between atoms: C20_23  and  O2_24 
ROOT
HETATM    1  N1  UNL     1      23.848   1.148  51.961  1.00  0.00    -0.351 N 
ENDROOT
BRANCH   1   2
HETATM    2  C7  UNL     1      24.840   0.775  52.977  1.00  0.00     0.138 C 
HETATM    3  C5  UNL     1      25.504   1.960  53.486  1.00  0.00    -0.057 C 
HETATM    4  C4  UNL     1      26.783   2.145  53.855  1.00  0.00     0.005 C 
HETATM    5  C6  UNL     1      24.834   3.268  53.700  1.00  0.00     0.046 C 
HETATM    6  C3  UNL     1      27.910   1.210  53.863  1.00  0.00     0.007 C 
HETATM    7  C2  UNL     1      28.003   0.019  53.247  1.00  0.00    -0.062 C 
HETATM    8  C1  UNL     1      29.261  -0.763  53.400  1.00  0.00     0.048 C 
HETATM    9  C22 UNL     1      26.968  -0.598  52.426  1.00  0.00     0.005 C 
HETATM   10  C21 UNL     1      25.691  -0.232  52.366  1.00  0.00     0.003 C 
ENDBRANCH   1   2
BRANCH   1  11
HETATM   11  C8  UNL     1      24.537   1.745  50.860  1.00  0.00     0.247 C 
BRANCH  11  12
HETATM   12  N2  UNL     1      24.046   3.047  50.468  1.00  0.00    -0.374 N 
HETATM   13  H12 UNL     1      23.084   3.433  50.580  1.00  0.00     0.161 HD
BRANCH  12  14
HETATM   14  C9  UNL     1      24.996   3.910  49.856  1.00  0.00     0.029 A 
HETATM   15  C10 UNL     1      24.688   5.184  49.425  1.00  0.00     0.029 A 
HETATM   16  C11 UNL     1      25.608   6.021  48.831  1.00  0.00     0.002 A 
HETATM   17  C12 UNL     1      26.905   5.608  48.642  1.00  0.00     0.000 A 
HETATM   18  C13 UNL     1      27.271   4.354  49.048  1.00  0.00     0.002 A 
HETATM   19  C14 UNL     1      26.314   3.569  49.631  1.00  0.00     0.029 A 
ENDBRANCH  12  14
ENDBRANCH  11  12
ENDBRANCH   1  11
BRANCH   1  20
HETATM   20  C15 UNL     1      22.472   0.878  52.202  1.00  0.00     0.064 C 
HETATM   21  C16 UNL     1      22.008   0.547  53.390  1.00  0.00     0.031 C 
HETATM   22  C17 UNL     1      20.681   0.219  53.935  1.00  0.00     0.197 C 
HETATM   23  O1  UNL     1      19.669   0.114  53.022  1.00  0.00    -0.384 OA
HETATM   24  C18 UNL     1      19.400   1.232  52.272  1.00  0.00     0.198 C 
HETATM   25  C19 UNL     1      20.210   1.126  51.004  1.00  0.00     0.038 C 
HETATM   26  C20 UNL     1      21.546   0.972  51.050  1.00  0.00     0.090 C 
BRANCH  26  27
HETATM   27  O2  UNL     1      22.181   0.886  49.796  1.00  0.00    -0.359 OA
HETATM   28  H24 UNL     1      22.357  -0.055  49.456  1.00  0.00     0.217 HD
ENDBRANCH  26  27
ENDBRANCH   1  20
TORSDOF 6
ENDMDL
MODEL 9
REMARK VINA RESULT:      -7.1      2.100      4.363
REMARK  6 active torsions:
REMARK  status: ('A' for Active; 'I' for Inactive)
REMARK    1  A    between atoms: C7_7  and  N1_8 
REMARK    2  A    between atoms: N1_8  and  C8_9 
REMARK    3  A    between atoms: N1_8  and  C15_17 
REMARK    4  A    between atoms: C8_9  and  N2_10 
REMARK    5  A    between atoms: N2_10  and  C9_11 
REMARK    6  A    between atoms: C20_23  and  O2_24 
ROOT
HETATM    1  N1  UNL     1      23.544   2.634  51.183  1.00  0.00    -0.351 N 
ENDROOT
BRANCH   1   2
HETATM    2  C7  UNL     1      22.350   3.477  51.309  1.00  0.00     0.138 C 
HETATM    3  C5  UNL     1      21.453   3.242  50.193  1.00  0.00    -0.057 C 
HETATM    4  C4  UNL     1      20.669   4.099  49.516  1.00  0.00     0.005 C 
HETATM    5  C6  UNL     1      21.233   1.916  49.561  1.00  0.00     0.046 C 
HETATM    6  C3  UNL     1      20.470   5.538  49.691  1.00  0.00     0.007 C 
HETATM    7  C2  UNL     1      21.226   6.401  50.393  1.00  0.00    -0.062 C 
HETATM    8  C1  UNL     1      20.823   7.833  50.427  1.00  0.00     0.048 C 
HETATM    9  C22 UNL     1      22.430   6.062  51.142  1.00  0.00     0.005 C 
HETATM   10  C21 UNL     1      22.827   4.839  51.480  1.00  0.00     0.003 C 
ENDBRANCH   1   2
BRANCH   1  11
HETATM   11  C8  UNL     1      24.251   3.029  50.005  1.00  0.00     0.247 C 
BRANCH  11  12
HETATM   12  N2  UNL     1      25.676   3.206  50.181  1.00  0.00    -0.374 N 
HETATM   13  H12 UNL     1      26.336   2.612  50.726  1.00  0.00     0.161 HD
BRANCH  12  14
HETATM   14  C9  UNL     1      26.246   4.333  49.527  1.00  0.00     0.029 A 
HETATM   15  C10 UNL     1      25.578   5.530  49.370  1.00  0.00     0.029 A 
HETATM   16  C11 UNL     1      26.131   6.623  48.737  1.00  0.00     0.002 A 
HETATM   17  C12 UNL     1      27.404   6.560  48.223  1.00  0.00     0.000 A 
HETATM   18  C13 UNL     1      28.116   5.399  48.347  1.00  0.00     0.002 A 
HETATM   19  C14 UNL     1      27.515   4.348  48.985  1.00  0.00     0.029 A 
ENDBRANCH  12  14
ENDBRANCH  11  12
ENDBRANCH   1  11
BRANCH   1  20
HETATM   20  C15 UNL     1      23.800   1.641  52.171  1.00  0.00     0.064 C 
HETATM   21  C16 UNL     1      23.035   0.582  52.332  1.00  0.00     0.031 C 
HETATM   22  C17 UNL     1      23.041  -0.580  53.236  1.00  0.00     0.197 C 
HETATM   23  O1  UNL     1      23.976  -0.557  54.232  1.00  0.00    -0.384 OA
HETATM   24  C18 UNL     1      25.289  -0.495  53.839  1.00  0.00     0.198 C 
HETATM   25  C19 UNL     1      25.675   0.962  53.795  1.00  0.00     0.038 C 
HETATM   26  C20 UNL     1      24.980   1.837  53.045  1.00  0.00     0.090 C 
BRANCH  26  27
HETATM   27  O2  UNL     1      25.444   3.165  53.093  1.00  0.00    -0.359 OA
HETATM   28  H24 UNL     1      26.454   3.278  53.115  1.00  0.00     0.217 HD
ENDBRANCH  26  27
ENDBRANCH   1  20
TORSDOF 6
ENDMDL
