MODEL 1
REMARK VINA RESULT:      -8.4      0.000      0.000
REMARK  6 active torsions:
REMARK  status: ('A' for Active; 'I' for Inactive)
REMARK    1  A    between atoms: C2_2  and  C3_3 
REMARK    2  A    between atoms: C4_4  and  C5_5 
REMARK    3  A    between atoms: C6_7  and  C7_8 
REMARK    4  A    between atoms: C7_8  and  C8_9 
REMARK    5  A    between atoms: C8_9  and  C9_10 
REMARK    6  A    between atoms: C20_21  and  C21_22 
ROOT
HETATM    1  C7  UNL     1      24.519   1.837  52.514  1.00  0.00     0.008 C 
ENDROOT
BRANCH   1   2
HETATM    2  C6  UNL     1      23.182   2.164  52.404  1.00  0.00     0.226 A 
HETATM    3  N1  UNL     1      22.191   1.091  52.745  1.00  0.00    -0.010 N 
HETATM    4  C5  UNL     1      21.274   0.120  52.325  1.00  0.00     0.229 A 
HETATM    5  C21 UNL     1      21.837   0.748  51.678  1.00  0.00     0.247 A 
HETATM    6  C20 UNL     1      22.286   1.248  51.187  1.00  0.00     0.204 A 
HETATM    7  C19 UNL     1      22.945   1.981  50.506  1.00  0.00     0.083 A 
BRANCH   4   8
HETATM    8  C4  UNL     1      20.857  -0.368  53.634  1.00  0.00     0.014 C 
HETATM    9  C3  UNL     1      19.538  -0.528  53.454  1.00  0.00    -0.028 C 
BRANCH   9  10
HETATM   10  C2  UNL     1      18.792  -0.250  52.200  1.00  0.00     0.022 C 
HETATM   11  C1  UNL     1      17.422  -0.859  52.231  1.00  0.00     0.009 C 
ENDBRANCH   9  10
ENDBRANCH   4   8
ENDBRANCH   1   2
BRANCH   1  12
HETATM   12  C8  UNL     1      25.744   1.628  52.828  1.00  0.00     0.010 C 
BRANCH  12  13
HETATM   13  C9  UNL     1      27.078   1.353  53.228  1.00  0.00    -0.025 A 
HETATM   14  C10 UNL     1      27.952   2.326  53.719  1.00  0.00     0.012 A 
HETATM   15  C11 UNL     1      29.232   2.054  54.101  1.00  0.00     0.002 A 
HETATM   16  C12 UNL     1      29.548   0.733  53.944  1.00  0.00     0.012 A 
HETATM   17  C13 UNL     1      28.768  -0.300  53.472  1.00  0.00    -0.025 A 
HETATM   18  C14 UNL     1      29.304  -1.587  53.397  1.00  0.00     0.012 A 
HETATM   19  C18 UNL     1      27.488   0.043  53.105  1.00  0.00    -0.016 A 
HETATM   20  C15 UNL     1      28.503  -2.602  52.921  1.00  0.00     0.001 A 
HETATM   21  C16 UNL     1      27.214  -2.319  52.539  1.00  0.00     0.001 A 
HETATM   22  C17 UNL     1      26.754  -1.027  52.641  1.00  0.00     0.013 A 
ENDBRANCH  12  13
ENDBRANCH   1  12
TORSDOF 6
ENDMDL
MODEL 2
REMARK VINA RESULT:      -8.3      1.432      2.058
REMARK  6 active torsions:
REMARK  status: ('A' for Active; 'I' for Inactive)
REMARK    1  A    between atoms: C2_2  and  C3_3 
REMARK    2  A    between atoms: C4_4  and  C5_5 
REMARK    3  A    between atoms: C6_7  and  C7_8 
REMARK    4  A    between atoms: C7_8  and  C8_9 
REMARK    5  A    between atoms: C8_9  and  C9_10 
REMARK    6  A    between atoms: C20_21  and  C21_22 
ROOT
HETATM    1  C7  UNL     1      23.848  -0.324  53.135  1.00  0.00     0.008 C 
ENDROOT
BRANCH   1   2
HETATM    2  C6  UNL     1      22.661  -1.027  53.087  1.00  0.00     0.226 A 
HETATM    3  N1  UNL     1      21.483  -0.329  52.473  1.00  0.00    -0.010 N 
HETATM    4  C5  UNL     1      20.270   0.351  52.630  1.00  0.00     0.229 A 
HETATM    5  C21 UNL     1      20.863  -0.028  53.426  1.00  0.00     0.247 A 
HETATM    6  C20 UNL     1      21.341  -0.333  54.036  1.00  0.00     0.204 A 
HETATM    7  C19 UNL     1      22.049  -0.781  54.892  1.00  0.00     0.083 A 
BRANCH   4   8
HETATM    8  C4  UNL     1      19.970   0.593  51.224  1.00  0.00     0.014 C 
HETATM    9  C3  UNL     1      18.684   0.220  51.155  1.00  0.00    -0.028 C 
BRANCH   9  10
HETATM   10  C2  UNL     1      17.866  -0.293  52.283  1.00  0.00     0.022 C 
HETATM   11  C1  UNL     1      16.564  -0.860  51.803  1.00  0.00     0.009 C 
ENDBRANCH   9  10
ENDBRANCH   4   8
ENDBRANCH   1   2
BRANCH   1  12
HETATM   12  C8  UNL     1      25.047   0.120  53.214  1.00  0.00     0.010 C 
BRANCH  12  13
HETATM   13  C9  UNL     1      26.375   0.597  53.371  1.00  0.00    -0.025 A 
HETATM   14  C10 UNL     1      26.691   1.941  53.587  1.00  0.00     0.012 A 
HETATM   15  C11 UNL     1      27.969   2.391  53.736  1.00  0.00     0.002 A 
HETATM   16  C12 UNL     1      28.886   1.381  53.649  1.00  0.00     0.012 A 
HETATM   17  C13 UNL     1      28.683   0.035  53.439  1.00  0.00    -0.025 A 
HETATM   18  C14 UNL     1      29.781  -0.826  53.385  1.00  0.00     0.012 A 
HETATM   19  C18 UNL     1      27.371  -0.353  53.297  1.00  0.00    -0.016 A 
HETATM   20  C15 UNL     1      29.550  -2.168  53.175  1.00  0.00     0.001 A 
HETATM   21  C16 UNL     1      28.259  -2.613  53.026  1.00  0.00     0.001 A 
HETATM   22  C17 UNL     1      27.226  -1.707  53.091  1.00  0.00     0.013 A 
ENDBRANCH  12  13
ENDBRANCH   1  12
TORSDOF 6
ENDMDL
MODEL 3
REMARK VINA RESULT:      -8.2      4.498      7.210
REMARK  6 active torsions:
REMARK  status: ('A' for Active; 'I' for Inactive)
REMARK    1  A    between atoms: C2_2  and  C3_3 
REMARK    2  A    between atoms: C4_4  and  C5_5 
REMARK    3  A    between atoms: C6_7  and  C7_8 
REMARK    4  A    between atoms: C7_8  and  C8_9 
REMARK    5  A    between atoms: C8_9  and  C9_10 
REMARK    6  A    between atoms: C20_21  and  C21_22 
ROOT
HETATM    1  C7  UNL     1      26.513   2.883  50.493  1.00  0.00     0.008 C 
ENDROOT
BRANCH   1   2
HETATM    2  C6  UNL     1      26.361   3.426  49.233  1.00  0.00     0.226 A 
HETATM    3  N1  UNL     1      27.395   4.420  48.793  1.00  0.00    -0.010 N 
HETATM    4  C5  UNL     1      27.768   5.750  48.564  1.00  0.00     0.229 A 
HETATM    5  C21 UNL     1      26.818   5.436  48.921  1.00  0.00     0.247 A 
HETATM    6  C20 UNL     1      26.080   5.171  49.199  1.00  0.00     0.204 A 
HETATM    7  C19 UNL     1      25.027   4.761  49.599  1.00  0.00     0.083 A 
BRANCH   4   8
HETATM    8  C4  UNL     1      29.130   5.519  48.099  1.00  0.00     0.014 C 
HETATM    9  C3  UNL     1      29.595   6.772  47.995  1.00  0.00    -0.028 C 
BRANCH   9  10
HETATM   10  C2  UNL     1      28.835   8.009  48.301  1.00  0.00     0.022 C 
HETATM   11  C1  UNL     1      29.653   8.970  49.111  1.00  0.00     0.009 C 
ENDBRANCH   9  10
ENDBRANCH   4   8
ENDBRANCH   1   2
BRANCH   1  12
HETATM   12  C8  UNL     1      26.707   2.184  51.549  1.00  0.00     0.010 C 
BRANCH  12  13
HETATM   13  C9  UNL     1      26.854   1.387  52.715  1.00  0.00    -0.025 A 
HETATM   14  C10 UNL     1      28.055   1.261  53.417  1.00  0.00     0.012 A 
HETATM   15  C11 UNL     1      28.188   0.493  54.535  1.00  0.00     0.002 A 
HETATM   16  C12 UNL     1      27.019  -0.128  54.878  1.00  0.00     0.012 A 
HETATM   17  C13 UNL     1      25.789  -0.072  54.260  1.00  0.00    -0.025 A 
HETATM   18  C14 UNL     1      24.720  -0.797  54.790  1.00  0.00     0.012 A 
HETATM   19  C18 UNL     1      25.724   0.720  53.138  1.00  0.00    -0.016 A 
HETATM   20  C15 UNL     1      23.501  -0.724  54.152  1.00  0.00     0.001 A 
HETATM   21  C16 UNL     1      23.375   0.053  53.026  1.00  0.00     0.001 A 
HETATM   22  C17 UNL     1      24.473   0.740  52.561  1.00  0.00     0.013 A 
ENDBRANCH  12  13
ENDBRANCH   1  12
TORSDOF 6
ENDMDL
MODEL 4
REMARK VINA RESULT:      -8.1      3.293      6.860
REMARK  6 active torsions:
REMARK  status: ('A' for Active; 'I' for Inactive)
REMARK    1  A    between atoms: C2_2  and  C3_3 
REMARK    2  A    between atoms: C4_4  and  C5_5 
REMARK    3  A    between atoms: C6_7  and  C7_8 
REMARK    4  A    between atoms: C7_8  and  C8_9 
REMARK    5  A    between atoms: C8_9  and  C9_10 
REMARK    6  A    between atoms: C20_21  and  C21_22 
ROOT
HETATM    1  C7  UNL     1      22.758   2.090  50.438  1.00  0.00     0.008 C 
ENDROOT
BRANCH   1   2
HETATM    2  C6  UNL     1      23.219   2.715  49.297  1.00  0.00     0.226 A 
HETATM    3  N1  UNL     1      24.599   3.300  49.354  1.00  0.00    -0.010 N 
HETATM    4  C5  UNL     1      25.428   4.423  49.467  1.00  0.00     0.229 A 
HETATM    5  C21 UNL     1      24.366   4.446  49.468  1.00  0.00     0.247 A 
HETATM    6  C20 UNL     1      23.534   4.446  49.466  1.00  0.00     0.204 A 
HETATM    7  C19 UNL     1      22.335   4.414  49.460  1.00  0.00     0.083 A 
BRANCH   4   8
HETATM    8  C4  UNL     1      26.719   3.750  49.398  1.00  0.00     0.014 C 
HETATM    9  C3  UNL     1      27.492   4.704  48.860  1.00  0.00    -0.028 C 
BRANCH   9  10
HETATM   10  C2  UNL     1      27.047   6.065  48.470  1.00  0.00     0.022 C 
HETATM   11  C1  UNL     1      28.178   6.873  47.908  1.00  0.00     0.009 C 
ENDBRANCH   9  10
ENDBRANCH   4   8
ENDBRANCH   1   2
BRANCH   1  12
HETATM   12  C8  UNL     1      22.397   1.315  51.392  1.00  0.00     0.010 C 
BRANCH  12  13
HETATM   13  C9  UNL     1      21.929   0.468  52.431  1.00  0.00    -0.025 A 
HETATM   14  C10 UNL     1      20.588   0.114  52.593  1.00  0.00     0.012 A 
HETATM   15  C11 UNL     1      20.147  -0.699  53.594  1.00  0.00     0.002 A 
HETATM   16  C12 UNL     1      21.164  -1.117  54.407  1.00  0.00     0.012 A 
HETATM   17  C13 UNL     1      22.509  -0.828  54.337  1.00  0.00    -0.025 A 
HETATM   18  C14 UNL     1      23.378  -1.371  55.286  1.00  0.00     0.012 A 
HETATM   19  C18 UNL     1      22.887  -0.003  53.304  1.00  0.00    -0.016 A 
HETATM   20  C15 UNL     1      24.719  -1.067  55.193  1.00  0.00     0.001 A 
HETATM   21  C16 UNL     1      25.155  -0.247  54.181  1.00  0.00     0.001 A 
HETATM   22  C17 UNL     1      24.241   0.251  53.282  1.00  0.00     0.013 A 
ENDBRANCH  12  13
ENDBRANCH   1  12
TORSDOF 6
ENDMDL
MODEL 5
REMARK VINA RESULT:      -8.0      3.900      6.973
REMARK  6 active torsions:
REMARK  status: ('A' for Active; 'I' for Inactive)
REMARK    1  A    between atoms: C2_2  and  C3_3 
REMARK    2  A    between atoms: C4_4  and  C5_5 
REMARK    3  A    between atoms: C6_7  and  C7_8 
REMARK    4  A    between atoms: C7_8  and  C8_9 
REMARK    5  A    between atoms: C8_9  and  C9_10 
REMARK    6  A    between atoms: C20_21  and  C21_22 
ROOT
HETATM    1  C7  UNL     1      24.300   2.688  50.695  1.00  0.00     0.008 C 
ENDROOT
BRANCH   1   2
HETATM    2  C6  UNL     1      24.342   3.474  49.561  1.00  0.00     0.226 A 
HETATM    3  N1  UNL     1      25.646   4.146  49.249  1.00  0.00    -0.010 N 
HETATM    4  C5  UNL     1      26.433   5.304  49.240  1.00  0.00     0.229 A 
HETATM    5  C21 UNL     1      25.430   5.251  49.586  1.00  0.00     0.247 A 
HETATM    6  C20 UNL     1      24.644   5.191  49.852  1.00  0.00     0.204 A 
HETATM    7  C19 UNL     1      23.512   5.074  50.229  1.00  0.00     0.083 A 
BRANCH   4   8
HETATM    8  C4  UNL     1      27.649   4.738  48.668  1.00  0.00     0.014 C 
HETATM    9  C3  UNL     1      28.288   5.839  48.249  1.00  0.00    -0.028 C 
BRANCH   9  10
HETATM   10  C2  UNL     1      27.795   7.233  48.383  1.00  0.00     0.022 C 
HETATM   11  C1  UNL     1      27.691   7.909  47.048  1.00  0.00     0.009 C 
ENDBRANCH   9  10
ENDBRANCH   4   8
ENDBRANCH   1   2
BRANCH   1  12
HETATM   12  C8  UNL     1      24.392   1.811  51.624  1.00  0.00     0.010 C 
BRANCH  12  13
HETATM   13  C9  UNL     1      24.561   0.861  52.666  1.00  0.00    -0.025 A 
HETATM   14  C10 UNL     1      25.809   0.464  53.153  1.00  0.00     0.012 A 
HETATM   15  C11 UNL     1      25.963  -0.449  54.153  1.00  0.00     0.002 A 
HETATM   16  C12 UNL     1      24.764  -0.921  54.611  1.00  0.00     0.012 A 
HETATM   17  C13 UNL     1      23.489  -0.600  54.203  1.00  0.00    -0.025 A 
HETATM   18  C14 UNL     1      22.396  -1.213  54.819  1.00  0.00     0.012 A 
HETATM   19  C18 UNL     1      23.404   0.328  53.192  1.00  0.00    -0.016 A 
HETATM   20  C15 UNL     1      21.130  -0.874  54.393  1.00  0.00     0.001 A 
HETATM   21  C16 UNL     1      20.984   0.048  53.385  1.00  0.00     0.001 A 
HETATM   22  C17 UNL     1      22.107   0.611  52.825  1.00  0.00     0.013 A 
ENDBRANCH  12  13
ENDBRANCH   1  12
TORSDOF 6
ENDMDL
MODEL 6
REMARK VINA RESULT:      -7.9      3.862      6.452
REMARK  6 active torsions:
REMARK  status: ('A' for Active; 'I' for Inactive)
REMARK    1  A    between atoms: C2_2  and  C3_3 
REMARK    2  A    between atoms: C4_4  and  C5_5 
REMARK    3  A    between atoms: C6_7  and  C7_8 
REMARK    4  A    between atoms: C7_8  and  C8_9 
REMARK    5  A    between atoms: C8_9  and  C9_10 
REMARK    6  A    between atoms: C20_21  and  C21_22 
ROOT
HETATM    1  C7  UNL     1      24.304   2.634  50.757  1.00  0.00     0.008 C 
ENDROOT
BRANCH   1   2
HETATM    2  C6  UNL     1      24.287   3.515  49.694  1.00  0.00     0.226 A 
HETATM    3  N1  UNL     1      25.587   4.171  49.336  1.00  0.00    -0.010 N 
HETATM    4  C5  UNL     1      26.414   5.300  49.360  1.00  0.00     0.229 A 
HETATM    5  C21 UNL     1      25.440   5.248  49.781  1.00  0.00     0.247 A 
HETATM    6  C20 UNL     1      24.675   5.190  50.104  1.00  0.00     0.204 A 
HETATM    7  C19 UNL     1      23.572   5.075  50.559  1.00  0.00     0.083 A 
BRANCH   4   8
HETATM    8  C4  UNL     1      27.560   4.749  48.647  1.00  0.00     0.014 C 
HETATM    9  C3  UNL     1      28.189   5.863  48.246  1.00  0.00    -0.028 C 
BRANCH   9  10
HETATM   10  C2  UNL     1      27.747   7.255  48.515  1.00  0.00     0.022 C 
HETATM   11  C1  UNL     1      27.665   8.058  47.252  1.00  0.00     0.009 C 
ENDBRANCH   9  10
ENDBRANCH   4   8
ENDBRANCH   1   2
BRANCH   1  12
HETATM   12  C8  UNL     1      24.550   1.842  51.734  1.00  0.00     0.010 C 
BRANCH  12  13
HETATM   13  C9  UNL     1      24.892   0.975  52.804  1.00  0.00    -0.025 A 
HETATM   14  C10 UNL     1      23.998   0.070  53.381  1.00  0.00     0.012 A 
HETATM   15  C11 UNL     1      24.335  -0.759  54.409  1.00  0.00     0.002 A 
HETATM   16  C12 UNL     1      25.635  -0.596  54.799  1.00  0.00     0.012 A 
HETATM   17  C13 UNL     1      26.593   0.260  54.303  1.00  0.00    -0.025 A 
HETATM   18  C14 UNL     1      27.872   0.257  54.861  1.00  0.00     0.012 A 
HETATM   19  C18 UNL     1      26.188   1.068  53.267  1.00  0.00    -0.016 A 
HETATM   20  C15 UNL     1      28.812   1.123  54.347  1.00  0.00     0.001 A 
HETATM   21  C16 UNL     1      28.465   1.955  53.310  1.00  0.00     0.001 A 
HETATM   22  C17 UNL     1      27.184   1.903  52.810  1.00  0.00     0.013 A 
ENDBRANCH  12  13
ENDBRANCH   1  12
TORSDOF 6
ENDMDL
MODEL 7
REMARK VINA RESULT:      -7.8      2.448      3.360
REMARK  6 active torsions:
REMARK  status: ('A' for Active; 'I' for Inactive)
REMARK    1  A    between atoms: C2_2  and  C3_3 
REMARK    2  A    between atoms: C4_4  and  C5_5 
REMARK    3  A    between atoms: C6_7  and  C7_8 
REMARK    4  A    between atoms: C7_8  and  C8_9 
REMARK    5  A    between atoms: C8_9  and  C9_10 
REMARK    6  A    between atoms: C20_21  and  C21_22 
ROOT
HETATM    1  C7  UNL     1      24.409   2.226  52.994  1.00  0.00     0.008 C 
ENDROOT
BRANCH   1   2
HETATM    2  C6  UNL     1      23.144   2.593  52.580  1.00  0.00     0.226 A 
HETATM    3  N1  UNL     1      22.817   2.385  51.131  1.00  0.00    -0.010 N 
HETATM    4  C5  UNL     1      22.636   2.917  49.848  1.00  0.00     0.229 A 
HETATM    5  C21 UNL     1      22.894   3.481  50.711  1.00  0.00     0.247 A 
HETATM    6  C20 UNL     1      23.095   3.906  51.398  1.00  0.00     0.204 A 
HETATM    7  C19 UNL     1      23.384   4.492  52.403  1.00  0.00     0.083 A 
BRANCH   4   8
HETATM    8  C4  UNL     1      22.308   1.684  49.144  1.00  0.00     0.014 C 
HETATM    9  C3  UNL     1      22.113   2.130  47.895  1.00  0.00    -0.028 C 
BRANCH   9  10
HETATM   10  C2  UNL     1      22.227   3.542  47.449  1.00  0.00     0.022 C 
HETATM   11  C1  UNL     1      21.823   3.699  46.014  1.00  0.00     0.009 C 
ENDBRANCH   9  10
ENDBRANCH   4   8
ENDBRANCH   1   2
BRANCH   1  12
HETATM   12  C8  UNL     1      25.641   1.914  53.155  1.00  0.00     0.010 C 
BRANCH  12  13
HETATM   13  C9  UNL     1      26.986   1.523  53.385  1.00  0.00    -0.025 A 
HETATM   14  C10 UNL     1      27.985   2.406  53.804  1.00  0.00     0.012 A 
HETATM   15  C11 UNL     1      29.275   2.023  54.023  1.00  0.00     0.002 A 
HETATM   16  C12 UNL     1      29.466   0.690  53.785  1.00  0.00     0.012 A 
HETATM   17  C13 UNL     1      28.558  -0.260  53.372  1.00  0.00    -0.025 A 
HETATM   18  C14 UNL     1      28.978  -1.579  53.189  1.00  0.00     0.012 A 
HETATM   19  C18 UNL     1      27.275   0.192  53.170  1.00  0.00    -0.016 A 
HETATM   20  C15 UNL     1      28.050  -2.510  52.776  1.00  0.00     0.001 A 
HETATM   21  C16 UNL     1      26.752  -2.115  52.558  1.00  0.00     0.001 A 
HETATM   22  C17 UNL     1      26.410  -0.798  52.759  1.00  0.00     0.013 A 
ENDBRANCH  12  13
ENDBRANCH   1  12
TORSDOF 6
ENDMDL
MODEL 8
REMARK VINA RESULT:      -7.7      0.921      2.497
REMARK  6 active torsions:
REMARK  status: ('A' for Active; 'I' for Inactive)
REMARK    1  A    between atoms: C2_2  and  C3_3 
REMARK    2  A    between atoms: C4_4  and  C5_5 
REMARK    3  A    between atoms: C6_7  and  C7_8 
REMARK    4  A    between atoms: C7_8  and  C8_9 
REMARK    5  A    between atoms: C8_9  and  C9_10 
REMARK    6  A    between atoms: C20_21  and  C21_22 
ROOT
HETATM    1  C7  UNL     1      23.777   0.753  52.793  1.00  0.00     0.008 C 
ENDROOT
BRANCH   1   2
HETATM    2  C6  UNL     1      22.634   1.482  52.527  1.00  0.00     0.226 A 
HETATM    3  N1  UNL     1      21.339   0.726  52.500  1.00  0.00    -0.010 N 
HETATM    4  C5  UNL     1      20.301   0.140  51.767  1.00  0.00     0.229 A 
HETATM    5  C21 UNL     1      21.136   0.643  51.346  1.00  0.00     0.247 A 
HETATM    6  C20 UNL     1      21.797   1.041  51.034  1.00  0.00     0.204 A 
HETATM    7  C19 UNL     1      22.759   1.620  50.614  1.00  0.00     0.083 A 
BRANCH   4   8
HETATM    8  C4  UNL     1      19.501  -0.360  52.879  1.00  0.00     0.014 C 
HETATM    9  C3  UNL     1      18.281  -0.422  52.327  1.00  0.00    -0.028 C 
BRANCH   9  10
HETATM   10  C2  UNL     1      17.939  -0.053  50.930  1.00  0.00     0.022 C 
HETATM   11  C1  UNL     1      16.491  -0.305  50.634  1.00  0.00     0.009 C 
ENDBRANCH   9  10
ENDBRANCH   4   8
ENDBRANCH   1   2
BRANCH   1  12
HETATM   12  C8  UNL     1      24.937   0.217  52.883  1.00  0.00     0.010 C 
BRANCH  12  13
HETATM   13  C9  UNL     1      26.196  -0.436  52.948  1.00  0.00    -0.025 A 
HETATM   14  C10 UNL     1      26.375  -1.796  52.685  1.00  0.00     0.012 A 
HETATM   15  C11 UNL     1      27.588  -2.415  52.751  1.00  0.00     0.002 A 
HETATM   16  C12 UNL     1      28.589  -1.553  53.102  1.00  0.00     0.012 A 
HETATM   17  C13 UNL     1      28.522  -0.206  53.382  1.00  0.00    -0.025 A 
HETATM   18  C14 UNL     1      29.686   0.484  53.724  1.00  0.00     0.012 A 
HETATM   19  C18 UNL     1      27.270   0.356  53.297  1.00  0.00    -0.016 A 
HETATM   20  C15 UNL     1      29.591   1.831  53.999  1.00  0.00     0.001 A 
HETATM   21  C16 UNL     1      28.365   2.447  53.929  1.00  0.00     0.001 A 
HETATM   22  C17 UNL     1      27.260   1.703  53.586  1.00  0.00     0.013 A 
ENDBRANCH  12  13
ENDBRANCH   1  12
TORSDOF 6
ENDMDL
MODEL 9
REMARK VINA RESULT:      -7.7      1.620      2.802
REMARK  6 active torsions:
REMARK  status: ('A' for Active; 'I' for Inactive)
REMARK    1  A    between atoms: C2_2  and  C3_3 
REMARK    2  A    between atoms: C4_4  and  C5_5 
REMARK    3  A    between atoms: C6_7  and  C7_8 
REMARK    4  A    between atoms: C7_8  and  C8_9 
REMARK    5  A    between atoms: C8_9  and  C9_10 
REMARK    6  A    between atoms: C20_21  and  C21_22 
ROOT
HETATM    1  C7  UNL     1      23.674  -0.349  53.192  1.00  0.00     0.008 C 
ENDROOT
BRANCH   1   2
HETATM    2  C6  UNL     1      22.339  -0.640  53.000  1.00  0.00     0.226 A 
HETATM    3  N1  UNL     1      21.528   0.363  52.234  1.00  0.00    -0.010 N 
HETATM    4  C5  UNL     1      20.588   1.400  52.227  1.00  0.00     0.229 A 
HETATM    5  C21 UNL     1      20.931   0.893  53.096  1.00  0.00     0.247 A 
HETATM    6  C20 UNL     1      21.210   0.485  53.765  1.00  0.00     0.204 A 
HETATM    7  C19 UNL     1      21.631  -0.120  54.710  1.00  0.00     0.083 A 
BRANCH   4   8
HETATM    8  C4  UNL     1      20.549   1.651  50.791  1.00  0.00     0.014 C 
HETATM    9  C3  UNL     1      20.604   2.990  50.750  1.00  0.00    -0.028 C 
BRANCH   9  10
HETATM   10  C2  UNL     1      20.683   3.893  51.926  1.00  0.00     0.022 C 
HETATM   11  C1  UNL     1      21.904   4.762  51.869  1.00  0.00     0.009 C 
ENDBRANCH   9  10
ENDBRANCH   4   8
ENDBRANCH   1   2
BRANCH   1  12
HETATM   12  C8  UNL     1      24.866   0.119  53.256  1.00  0.00     0.010 C 
BRANCH  12  13
HETATM   13  C9  UNL     1      26.209   0.570  53.342  1.00  0.00    -0.025 A 
HETATM   14  C10 UNL     1      26.563   1.912  53.504  1.00  0.00     0.012 A 
HETATM   15  C11 UNL     1      27.855   2.337  53.585  1.00  0.00     0.002 A 
HETATM   16  C12 UNL     1      28.747   1.305  53.488  1.00  0.00     0.012 A 
HETATM   17  C13 UNL     1      28.506  -0.042  53.327  1.00  0.00    -0.025 A 
HETATM   18  C14 UNL     1      29.582  -0.928  53.251  1.00  0.00     0.012 A 
HETATM   19  C18 UNL     1      27.181  -0.404  53.253  1.00  0.00    -0.016 A 
HETATM   20  C15 UNL     1      29.313  -2.270  53.090  1.00  0.00     0.001 A 
HETATM   21  C16 UNL     1      28.008  -2.691  53.010  1.00  0.00     0.001 A 
HETATM   22  C17 UNL     1      26.998  -1.760  53.093  1.00  0.00     0.013 A 
ENDBRANCH  12  13
ENDBRANCH   1  12
TORSDOF 6
ENDMDL
