MODEL 1
REMARK VINA RESULT:      -8.3      0.000      0.000
REMARK  5 active torsions:
REMARK  status: ('A' for Active; 'I' for Inactive)
REMARK    1  A    between atoms: C2_2  and  C3_3 
REMARK    2  A    between atoms: C8_8  and  N1_9 
REMARK    3  A    between atoms: N1_9  and  C9_10 
REMARK    4  A    between atoms: C13_16  and  O1_17 
REMARK    5  A    between atoms: C15_19  and  O2_20 
ROOT
HETATM    1  C9  UNL     1      24.732  -0.337  53.940  1.00  0.00     0.138 A 
HETATM    2  N2  UNL     1      25.146  -0.927  55.064  1.00  0.00    -0.224 NA
HETATM    3  C10 UNL     1      24.256  -1.491  55.926  1.00  0.00     0.235 A 
HETATM    4  N3  UNL     1      22.919  -1.471  55.664  1.00  0.00    -0.241 NA
HETATM    5  C11 UNL     1      22.466  -0.876  54.523  1.00  0.00     0.075 A 
HETATM    6  C12 UNL     1      21.113  -0.855  54.258  1.00  0.00     0.072 A 
HETATM    7  C13 UNL     1      20.614  -0.266  53.119  1.00  0.00     0.103 A 
HETATM    8  C15 UNL     1      21.571   0.292  52.280  1.00  0.00     0.102 A 
HETATM    9  C17 UNL     1      22.933   0.291  52.510  1.00  0.00     0.057 A 
HETATM   10  C18 UNL     1      23.387  -0.311  53.664  1.00  0.00     0.041 A 
ENDROOT
BRANCH   1  11
HETATM   11  N1  UNL     1      25.721   0.229  53.089  1.00  0.00    -0.362 N 
HETATM   12  H12 UNL     1      25.678   0.425  52.067  1.00  0.00     0.162 HD
BRANCH  11  13
HETATM   13  C8  UNL     1      26.981   0.607  53.675  1.00  0.00     0.135 C 
HETATM   14  C3  UNL     1      28.092  -0.307  53.451  1.00  0.00    -0.058 C 
HETATM   15  C4  UNL     1      29.279   0.122  53.872  1.00  0.00    -0.018 C 
HETATM   16  C5  UNL     1      29.254   1.472  54.503  1.00  0.00     0.054 C 
HETATM   17  C6  UNL     1      28.565   2.435  53.569  1.00  0.00    -0.025 C 
HETATM   18  C7  UNL     1      27.385   1.960  53.155  1.00  0.00    -0.001 C 
BRANCH  14  19
HETATM   19  C2  UNL     1      27.920  -1.607  52.807  1.00  0.00     0.032 C 
HETATM   20  C1  UNL     1      29.041  -2.543  53.189  1.00  0.00     0.010 C 
ENDBRANCH  14  19
ENDBRANCH  11  13
ENDBRANCH   1  11
BRANCH   8  21
HETATM   21  O2  UNL     1      21.125   0.900  51.116  1.00  0.00    -0.353 OA
HETATM   22  C16 UNL     1      22.065   1.578  50.274  1.00  0.00     0.210 C 
ENDBRANCH   8  21
BRANCH   7  23
HETATM   23  O1  UNL     1      19.285  -0.199  52.775  1.00  0.00    -0.353 OA
HETATM   24  C14 UNL     1      18.406  -1.177  53.279  1.00  0.00     0.210 C 
ENDBRANCH   7  23
TORSDOF 5
ENDMDL
MODEL 2
REMARK VINA RESULT:      -7.8      2.935      7.039
REMARK  5 active torsions:
REMARK  status: ('A' for Active; 'I' for Inactive)
REMARK    1  A    between atoms: C2_2  and  C3_3 
REMARK    2  A    between atoms: C8_8  and  N1_9 
REMARK    3  A    between atoms: N1_9  and  C9_10 
REMARK    4  A    between atoms: C13_16  and  O1_17 
REMARK    5  A    between atoms: C15_19  and  O2_20 
ROOT
HETATM    1  C9  UNL     1      24.521   2.456  52.161  1.00  0.00     0.138 A 
HETATM    2  N2  UNL     1      24.814   3.257  51.134  1.00  0.00    -0.224 NA
HETATM    3  C10 UNL     1      26.089   3.356  50.666  1.00  0.00     0.235 A 
HETATM    4  N3  UNL     1      27.100   2.640  51.235  1.00  0.00    -0.241 NA
HETATM    5  C11 UNL     1      26.831   1.813  52.286  1.00  0.00     0.075 A 
HETATM    6  C12 UNL     1      27.853   1.089  52.861  1.00  0.00     0.072 A 
HETATM    7  C13 UNL     1      27.625   0.244  53.922  1.00  0.00     0.103 A 
HETATM    8  C15 UNL     1      26.306   0.186  54.353  1.00  0.00     0.102 A 
HETATM    9  C17 UNL     1      25.255   0.894  53.804  1.00  0.00     0.057 A 
HETATM   10  C18 UNL     1      25.530   1.729  52.742  1.00  0.00     0.041 A 
ENDROOT
BRANCH   1  11
HETATM   11  N1  UNL     1      23.167   2.405  52.592  1.00  0.00    -0.362 N 
HETATM   12  H12 UNL     1      22.752   2.699  53.500  1.00  0.00     0.162 HD
BRANCH  11  13
HETATM   13  C8  UNL     1      22.186   1.882  51.676  1.00  0.00     0.135 C 
HETATM   14  C3  UNL     1      21.512   0.659  52.087  1.00  0.00    -0.058 C 
HETATM   15  C4  UNL     1      20.510   0.267  51.304  1.00  0.00    -0.018 C 
HETATM   16  C5  UNL     1      20.257   1.160  50.138  1.00  0.00     0.054 C 
HETATM   17  C6  UNL     1      20.114   2.578  50.632  1.00  0.00    -0.025 C 
HETATM   18  C7  UNL     1      21.131   2.927  51.429  1.00  0.00    -0.001 C 
BRANCH  14  19
HETATM   19  C2  UNL     1      21.907  -0.092  53.277  1.00  0.00     0.032 C 
HETATM   20  C1  UNL     1      20.968   0.193  54.423  1.00  0.00     0.010 C 
ENDBRANCH  14  19
ENDBRANCH  11  13
ENDBRANCH   1  11
BRANCH   8  21
HETATM   21  O2  UNL     1      26.017  -0.650  55.420  1.00  0.00    -0.353 OA
HETATM   22  C16 UNL     1      24.691  -1.177  55.560  1.00  0.00     0.210 C 
ENDBRANCH   8  21
BRANCH   7  23
HETATM   23  O1  UNL     1      28.581  -0.514  54.554  1.00  0.00    -0.353 OA
HETATM   24  C14 UNL     1      29.705  -0.938  53.818  1.00  0.00     0.210 C 
ENDBRANCH   7  23
TORSDOF 5
ENDMDL
MODEL 3
REMARK VINA RESULT:      -7.5      1.890      2.409
REMARK  5 active torsions:
REMARK  status: ('A' for Active; 'I' for Inactive)
REMARK    1  A    between atoms: C2_2  and  C3_3 
REMARK    2  A    between atoms: C8_8  and  N1_9 
REMARK    3  A    between atoms: N1_9  and  C9_10 
REMARK    4  A    between atoms: C13_16  and  O1_17 
REMARK    5  A    between atoms: C15_19  and  O2_20 
ROOT
HETATM    1  C9  UNL     1      24.465   0.300  52.922  1.00  0.00     0.138 A 
HETATM    2  N2  UNL     1      24.212  -0.658  53.816  1.00  0.00    -0.224 NA
HETATM    3  C10 UNL     1      22.977  -0.785  54.374  1.00  0.00     0.235 A 
HETATM    4  N3  UNL     1      21.965   0.061  54.033  1.00  0.00    -0.241 NA
HETATM    5  C11 UNL     1      22.192   1.049  53.120  1.00  0.00     0.075 A 
HETATM    6  C12 UNL     1      21.169   1.906  52.775  1.00  0.00     0.072 A 
HETATM    7  C13 UNL     1      21.356   2.915  51.860  1.00  0.00     0.103 A 
HETATM    8  C15 UNL     1      22.636   2.994  51.327  1.00  0.00     0.102 A 
HETATM    9  C17 UNL     1      23.687   2.156  51.646  1.00  0.00     0.057 A 
HETATM   10  C18 UNL     1      23.453   1.159  52.568  1.00  0.00     0.041 A 
ENDROOT
BRANCH   1  11
HETATM   11  N1  UNL     1      25.779   0.369  52.383  1.00  0.00    -0.362 N 
HETATM   12  H12 UNL     1      26.098   0.236  51.401  1.00  0.00     0.162 HD
BRANCH  11  13
HETATM   13  C8  UNL     1      26.864   0.666  53.283  1.00  0.00     0.135 C 
HETATM   14  C3  UNL     1      27.881  -0.365  53.423  1.00  0.00    -0.058 C 
HETATM   15  C4  UNL     1      28.947  -0.023  54.142  1.00  0.00    -0.018 C 
HETATM   16  C5  UNL     1      28.905   1.367  54.678  1.00  0.00     0.054 C 
HETATM   17  C6  UNL     1      28.614   2.319  53.545  1.00  0.00    -0.025 C 
HETATM   18  C7  UNL     1      27.547   1.930  52.837  1.00  0.00    -0.001 C 
BRANCH  14  19
HETATM   19  C2  UNL     1      27.746  -1.688  52.817  1.00  0.00     0.032 C 
HETATM   20  C1  UNL     1      28.946  -2.545  53.134  1.00  0.00     0.010 C 
ENDBRANCH  14  19
ENDBRANCH  11  13
ENDBRANCH   1  11
BRANCH   8  21
HETATM   21  O2  UNL     1      22.883   3.993  50.398  1.00  0.00    -0.353 OA
HETATM   22  C16 UNL     1      23.636   5.148  50.792  1.00  0.00     0.210 C 
ENDBRANCH   8  21
BRANCH   7  23
HETATM   23  O1  UNL     1      20.395   3.812  51.457  1.00  0.00    -0.353 OA
HETATM   24  C14 UNL     1      19.039   3.444  51.564  1.00  0.00     0.210 C 
ENDBRANCH   7  23
TORSDOF 5
ENDMDL
MODEL 4
REMARK VINA RESULT:      -7.4      3.679      5.499
REMARK  5 active torsions:
REMARK  status: ('A' for Active; 'I' for Inactive)
REMARK    1  A    between atoms: C2_2  and  C3_3 
REMARK    2  A    between atoms: C8_8  and  N1_9 
REMARK    3  A    between atoms: N1_9  and  C9_10 
REMARK    4  A    between atoms: C13_16  and  O1_17 
REMARK    5  A    between atoms: C15_19  and  O2_20 
ROOT
HETATM    1  C9  UNL     1      26.169   2.540  51.053  1.00  0.00     0.138 A 
HETATM    2  N2  UNL     1      27.358   2.657  51.649  1.00  0.00    -0.224 NA
HETATM    3  C10 UNL     1      27.584   2.104  52.872  1.00  0.00     0.235 A 
HETATM    4  N3  UNL     1      26.603   1.415  53.521  1.00  0.00    -0.241 NA
HETATM    5  C11 UNL     1      25.377   1.278  52.937  1.00  0.00     0.075 A 
HETATM    6  C12 UNL     1      24.385   0.583  53.593  1.00  0.00     0.072 A 
HETATM    7  C13 UNL     1      23.136   0.422  53.039  1.00  0.00     0.103 A 
HETATM    8  C15 UNL     1      22.967   1.008  51.791  1.00  0.00     0.102 A 
HETATM    9  C17 UNL     1      23.935   1.712  51.102  1.00  0.00     0.057 A 
HETATM   10  C18 UNL     1      25.172   1.848  51.696  1.00  0.00     0.041 A 
ENDROOT
BRANCH   1  11
HETATM   11  N1  UNL     1      26.009   3.144  49.775  1.00  0.00    -0.362 N 
HETATM   12  H12 UNL     1      26.073   2.713  48.830  1.00  0.00     0.162 HD
BRANCH  11  13
HETATM   13  C8  UNL     1      25.713   4.552  49.726  1.00  0.00     0.135 C 
HETATM   14  C3  UNL     1      26.677   5.386  49.023  1.00  0.00    -0.058 C 
HETATM   15  C4  UNL     1      26.322   6.658  48.859  1.00  0.00    -0.018 C 
HETATM   16  C5  UNL     1      24.989   7.000  49.432  1.00  0.00     0.054 C 
HETATM   17  C6  UNL     1      23.967   6.020  48.912  1.00  0.00    -0.025 C 
HETATM   18  C7  UNL     1      24.370   4.754  49.078  1.00  0.00    -0.001 C 
BRANCH  14  19
HETATM   19  C2  UNL     1      27.950   4.866  48.528  1.00  0.00     0.032 C 
HETATM   20  C1  UNL     1      28.867   5.995  48.126  1.00  0.00     0.010 C 
ENDBRANCH  14  19
ENDBRANCH  11  13
ENDBRANCH   1  11
BRANCH   8  21
HETATM   21  O2  UNL     1      21.727   0.877  51.185  1.00  0.00    -0.353 OA
HETATM   22  C16 UNL     1      21.580   1.230  49.804  1.00  0.00     0.210 C 
ENDBRANCH   8  21
BRANCH   7  23
HETATM   23  O1  UNL     1      22.090  -0.255  53.620  1.00  0.00    -0.353 OA
HETATM   24  C14 UNL     1      22.336  -1.012  54.782  1.00  0.00     0.210 C 
ENDBRANCH   7  23
TORSDOF 5
ENDMDL
MODEL 5
REMARK VINA RESULT:      -7.3      3.198      7.261
REMARK  5 active torsions:
REMARK  status: ('A' for Active; 'I' for Inactive)
REMARK    1  A    between atoms: C2_2  and  C3_3 
REMARK    2  A    between atoms: C8_8  and  N1_9 
REMARK    3  A    between atoms: N1_9  and  C9_10 
REMARK    4  A    between atoms: C13_16  and  O1_17 
REMARK    5  A    between atoms: C15_19  and  O2_20 
ROOT
HETATM    1  C9  UNL     1      24.461   1.881  51.265  1.00  0.00     0.138 A 
HETATM    2  N2  UNL     1      24.802   2.886  50.455  1.00  0.00    -0.224 NA
HETATM    3  C10 UNL     1      26.083   3.345  50.411  1.00  0.00     0.235 A 
HETATM    4  N3  UNL     1      27.051   2.789  51.192  1.00  0.00    -0.241 NA
HETATM    5  C11 UNL     1      26.733   1.760  52.030  1.00  0.00     0.075 A 
HETATM    6  C12 UNL     1      27.713   1.199  52.820  1.00  0.00     0.072 A 
HETATM    7  C13 UNL     1      27.435   0.160  53.678  1.00  0.00     0.103 A 
HETATM    8  C15 UNL     1      26.111  -0.263  53.678  1.00  0.00     0.102 A 
HETATM    9  C17 UNL     1      25.102   0.273  52.902  1.00  0.00     0.057 A 
HETATM   10  C18 UNL     1      25.428   1.312  52.057  1.00  0.00     0.041 A 
ENDROOT
BRANCH   1  11
HETATM   11  N1  UNL     1      23.103   1.457  51.254  1.00  0.00    -0.362 N 
HETATM   12  H12 UNL     1      22.710   0.500  51.367  1.00  0.00     0.162 HD
BRANCH  11  13
HETATM   13  C8  UNL     1      22.084   2.458  51.067  1.00  0.00     0.135 C 
HETATM   14  C3  UNL     1      21.287   2.342  49.854  1.00  0.00    -0.058 C 
HETATM   15  C4  UNL     1      20.259   3.182  49.763  1.00  0.00    -0.018 C 
HETATM   16  C5  UNL     1      20.109   4.096  50.930  1.00  0.00     0.054 C 
HETATM   17  C6  UNL     1      20.104   3.276  52.196  1.00  0.00    -0.025 C 
HETATM   18  C7  UNL     1      21.142   2.432  52.241  1.00  0.00    -0.001 C 
BRANCH  14  19
HETATM   19  C2  UNL     1      21.593   1.372  48.805  1.00  0.00     0.032 C 
HETATM   20  C1  UNL     1      22.424   2.007  47.717  1.00  0.00     0.010 C 
ENDBRANCH  14  19
ENDBRANCH  11  13
ENDBRANCH   1  11
BRANCH   8  21
HETATM   21  O2  UNL     1      25.773  -1.308  54.524  1.00  0.00    -0.353 OA
HETATM   22  C16 UNL     1      24.736  -1.117  55.495  1.00  0.00     0.210 C 
ENDBRANCH   8  21
BRANCH   7  23
HETATM   23  O1  UNL     1      28.346  -0.459  54.500  1.00  0.00    -0.353 OA
HETATM   24  C14 UNL     1      29.580  -0.866  53.956  1.00  0.00     0.210 C 
ENDBRANCH   7  23
TORSDOF 5
ENDMDL
MODEL 6
REMARK VINA RESULT:      -7.3      2.687      6.467
REMARK  5 active torsions:
REMARK  status: ('A' for Active; 'I' for Inactive)
REMARK    1  A    between atoms: C2_2  and  C3_3 
REMARK    2  A    between atoms: C8_8  and  N1_9 
REMARK    3  A    between atoms: N1_9  and  C9_10 
REMARK    4  A    between atoms: C13_16  and  O1_17 
REMARK    5  A    between atoms: C15_19  and  O2_20 
ROOT
HETATM    1  C9  UNL     1      22.528   0.850  53.184  1.00  0.00     0.138 A 
HETATM    2  N2  UNL     1      21.630   0.174  53.904  1.00  0.00    -0.224 NA
HETATM    3  C10 UNL     1      22.017  -0.829  54.741  1.00  0.00     0.235 A 
HETATM    4  N3  UNL     1      23.331  -1.167  54.866  1.00  0.00    -0.241 NA
HETATM    5  C11 UNL     1      24.272  -0.494  54.142  1.00  0.00     0.075 A 
HETATM    6  C12 UNL     1      25.600  -0.837  54.267  1.00  0.00     0.072 A 
HETATM    7  C13 UNL     1      26.581  -0.184  53.556  1.00  0.00     0.103 A 
HETATM    8  C15 UNL     1      26.124   0.827  52.721  1.00  0.00     0.102 A 
HETATM    9  C17 UNL     1      24.803   1.201  52.568  1.00  0.00     0.057 A 
HETATM   10  C18 UNL     1      23.855   0.518  53.301  1.00  0.00     0.041 A 
ENDROOT
BRANCH   1  11
HETATM   11  N1  UNL     1      22.048   1.883  52.333  1.00  0.00    -0.362 N 
HETATM   12  H12 UNL     1      21.758   2.854  52.573  1.00  0.00     0.162 HD
BRANCH  11  13
HETATM   13  C8  UNL     1      21.927   1.599  50.926  1.00  0.00     0.135 C 
HETATM   14  C3  UNL     1      20.571   1.477  50.410  1.00  0.00    -0.058 C 
HETATM   15  C4  UNL     1      20.470   1.359  49.089  1.00  0.00    -0.018 C 
HETATM   16  C5  UNL     1      21.776   1.373  48.371  1.00  0.00     0.054 C 
HETATM   17  C6  UNL     1      22.560   2.585  48.807  1.00  0.00    -0.025 C 
HETATM   18  C7  UNL     1      22.623   2.678  50.141  1.00  0.00    -0.001 C 
BRANCH  14  19
HETATM   19  C2  UNL     1      19.397   1.483  51.281  1.00  0.00     0.032 C 
HETATM   20  C1  UNL     1      18.891   0.079  51.503  1.00  0.00     0.010 C 
ENDBRANCH  14  19
ENDBRANCH  11  13
ENDBRANCH   1  11
BRANCH   8  21
HETATM   21  O2  UNL     1      27.068   1.520  51.980  1.00  0.00    -0.353 OA
HETATM   22  C16 UNL     1      26.632   2.486  51.014  1.00  0.00     0.210 C 
ENDBRANCH   8  21
BRANCH   7  23
HETATM   23  O1  UNL     1      27.925  -0.459  53.620  1.00  0.00    -0.353 OA
HETATM   24  C14 UNL     1      28.661   0.009  54.727  1.00  0.00     0.210 C 
ENDBRANCH   7  23
TORSDOF 5
ENDMDL
MODEL 7
REMARK VINA RESULT:      -7.2      2.805      6.182
REMARK  5 active torsions:
REMARK  status: ('A' for Active; 'I' for Inactive)
REMARK    1  A    between atoms: C2_2  and  C3_3 
REMARK    2  A    between atoms: C8_8  and  N1_9 
REMARK    3  A    between atoms: N1_9  and  C9_10 
REMARK    4  A    between atoms: C13_16  and  O1_17 
REMARK    5  A    between atoms: C15_19  and  O2_20 
ROOT
HETATM    1  C9  UNL     1      22.314   1.643  52.616  1.00  0.00     0.138 A 
HETATM    2  N2  UNL     1      21.163   1.210  53.135  1.00  0.00    -0.224 NA
HETATM    3  C10 UNL     1      21.119   0.078  53.890  1.00  0.00     0.235 A 
HETATM    4  N3  UNL     1      22.249  -0.643  54.137  1.00  0.00    -0.241 NA
HETATM    5  C11 UNL     1      23.440  -0.225  53.620  1.00  0.00     0.075 A 
HETATM    6  C12 UNL     1      24.583  -0.954  53.868  1.00  0.00     0.072 A 
HETATM    7  C13 UNL     1      25.804  -0.568  53.366  1.00  0.00     0.103 A 
HETATM    8  C15 UNL     1      25.784   0.594  52.604  1.00  0.00     0.102 A 
HETATM    9  C17 UNL     1      24.662   1.351  52.333  1.00  0.00     0.057 A 
HETATM   10  C18 UNL     1      23.460   0.926  52.857  1.00  0.00     0.041 A 
ENDROOT
BRANCH   1  11
HETATM   11  N1  UNL     1      22.280   2.834  51.839  1.00  0.00    -0.362 N 
HETATM   12  H12 UNL     1      22.479   3.814  52.126  1.00  0.00     0.162 HD
BRANCH  11  13
HETATM   13  C8  UNL     1      21.929   2.722  50.447  1.00  0.00     0.135 C 
HETATM   14  C3  UNL     1      22.859   3.320  49.500  1.00  0.00    -0.058 C 
HETATM   15  C4  UNL     1      22.599   3.086  48.217  1.00  0.00    -0.018 C 
HETATM   16  C5  UNL     1      21.391   2.246  47.980  1.00  0.00     0.054 C 
HETATM   17  C6  UNL     1      21.497   0.991  48.809  1.00  0.00    -0.025 C 
HETATM   18  C7  UNL     1      21.777   1.269  50.088  1.00  0.00    -0.001 C 
BRANCH  14  19
HETATM   19  C2  UNL     1      24.003   4.124  49.926  1.00  0.00     0.032 C 
HETATM   20  C1  UNL     1      25.299   3.453  49.543  1.00  0.00     0.010 C 
ENDBRANCH  14  19
ENDBRANCH  11  13
ENDBRANCH   1  11
BRANCH   8  21
HETATM   21  O2  UNL     1      26.987   1.031  52.073  1.00  0.00    -0.353 OA
HETATM   22  C16 UNL     1      27.675   2.123  52.698  1.00  0.00     0.210 C 
ENDBRANCH   8  21
BRANCH   7  23
HETATM   23  O1  UNL     1      26.991  -1.232  53.564  1.00  0.00    -0.353 OA
HETATM   24  C14 UNL     1      27.303  -2.324  52.731  1.00  0.00     0.210 C 
ENDBRANCH   7  23
TORSDOF 5
ENDMDL
MODEL 8
REMARK VINA RESULT:      -7.0      2.890      6.640
REMARK  5 active torsions:
REMARK  status: ('A' for Active; 'I' for Inactive)
REMARK    1  A    between atoms: C2_2  and  C3_3 
REMARK    2  A    between atoms: C8_8  and  N1_9 
REMARK    3  A    between atoms: N1_9  and  C9_10 
REMARK    4  A    between atoms: C13_16  and  O1_17 
REMARK    5  A    between atoms: C15_19  and  O2_20 
ROOT
HETATM    1  C9  UNL     1      23.183  -0.110  53.072  1.00  0.00     0.138 A 
HETATM    2  N2  UNL     1      22.421  -0.863  53.869  1.00  0.00    -0.224 NA
HETATM    3  C10 UNL     1      22.921  -1.388  55.022  1.00  0.00     0.235 A 
HETATM    4  N3  UNL     1      24.211  -1.158  55.393  1.00  0.00    -0.241 NA
HETATM    5  C11 UNL     1      25.014  -0.392  54.599  1.00  0.00     0.075 A 
HETATM    6  C12 UNL     1      26.320  -0.160  54.974  1.00  0.00     0.072 A 
HETATM    7  C13 UNL     1      27.163   0.606  54.203  1.00  0.00     0.103 A 
HETATM    8  C15 UNL     1      26.596   1.113  53.041  1.00  0.00     0.102 A 
HETATM    9  C17 UNL     1      25.293   0.904  52.631  1.00  0.00     0.057 A 
HETATM   10  C18 UNL     1      24.485   0.129  53.435  1.00  0.00     0.041 A 
ENDROOT
BRANCH   1  11
HETATM   11  N1  UNL     1      22.590   0.403  51.886  1.00  0.00    -0.362 N 
HETATM   12  H12 UNL     1      22.921   0.336  50.901  1.00  0.00     0.162 HD
BRANCH  11  13
HETATM   13  C8  UNL     1      21.352   1.128  52.008  1.00  0.00     0.135 C 
HETATM   14  C3  UNL     1      21.435   2.572  51.847  1.00  0.00    -0.058 C 
HETATM   15  C4  UNL     1      20.269   3.213  51.818  1.00  0.00    -0.018 C 
HETATM   16  C5  UNL     1      19.079   2.327  51.958  1.00  0.00     0.054 C 
HETATM   17  C6  UNL     1      19.178   1.214  50.945  1.00  0.00    -0.025 C 
HETATM   18  C7  UNL     1      20.370   0.608  50.993  1.00  0.00    -0.001 C 
BRANCH  14  19
HETATM   19  C2  UNL     1      22.711   3.276  51.726  1.00  0.00     0.032 C 
HETATM   20  C1  UNL     1      22.619   4.654  52.332  1.00  0.00     0.010 C 
ENDBRANCH  14  19
ENDBRANCH  11  13
ENDBRANCH   1  11
BRANCH   8  21
HETATM   21  O2  UNL     1      27.399   1.893  52.225  1.00  0.00    -0.353 OA
HETATM   22  C16 UNL     1      26.793   2.699  51.206  1.00  0.00     0.210 C 
ENDBRANCH   8  21
BRANCH   7  23
HETATM   23  O1  UNL     1      28.474   0.889  54.500  1.00  0.00    -0.353 OA
HETATM   24  C14 UNL     1      29.458  -0.076  54.207  1.00  0.00     0.210 C 
ENDBRANCH   7  23
TORSDOF 5
ENDMDL
MODEL 9
REMARK VINA RESULT:      -6.9      3.297      5.480
REMARK  5 active torsions:
REMARK  status: ('A' for Active; 'I' for Inactive)
REMARK    1  A    between atoms: C2_2  and  C3_3 
REMARK    2  A    between atoms: C8_8  and  N1_9 
REMARK    3  A    between atoms: N1_9  and  C9_10 
REMARK    4  A    between atoms: C13_16  and  O1_17 
REMARK    5  A    between atoms: C15_19  and  O2_20 
ROOT
HETATM    1  C9  UNL     1      25.432   2.483  50.917  1.00  0.00     0.138 A 
HETATM    2  N2  UNL     1      26.572   2.759  50.279  1.00  0.00    -0.224 NA
HETATM    3  C10 UNL     1      26.789   3.990  49.738  1.00  0.00     0.235 A 
HETATM    4  N3  UNL     1      25.850   4.972  49.834  1.00  0.00    -0.241 NA
HETATM    5  C11 UNL     1      24.676   4.720  50.481  1.00  0.00     0.075 A 
HETATM    6  C12 UNL     1      23.726   5.714  50.578  1.00  0.00     0.072 A 
HETATM    7  C13 UNL     1      22.529   5.502  51.222  1.00  0.00     0.103 A 
HETATM    8  C15 UNL     1      22.366   4.228  51.752  1.00  0.00     0.102 A 
HETATM    9  C17 UNL     1      23.293   3.207  51.676  1.00  0.00     0.057 A 
HETATM   10  C18 UNL     1      24.478   3.465  51.022  1.00  0.00     0.041 A 
ENDROOT
BRANCH   1  11
HETATM   11  N1  UNL     1      25.278   1.177  51.457  1.00  0.00    -0.362 N 
HETATM   12  H12 UNL     1      24.766   0.358  51.067  1.00  0.00     0.162 HD
BRANCH  11  13
HETATM   13  C8  UNL     1      25.902   0.890  52.723  1.00  0.00     0.135 C 
HETATM   14  C3  UNL     1      25.094   0.155  53.684  1.00  0.00    -0.058 C 
HETATM   15  C4  UNL     1      25.729  -0.229  54.790  1.00  0.00    -0.018 C 
HETATM   16  C5  UNL     1      27.164   0.168  54.841  1.00  0.00     0.054 C 
HETATM   17  C6  UNL     1      27.842  -0.284  53.572  1.00  0.00    -0.025 C 
HETATM   18  C7  UNL     1      27.165   0.105  52.486  1.00  0.00    -0.001 C 
BRANCH  14  19
HETATM   19  C2  UNL     1      23.682  -0.144  53.457  1.00  0.00     0.032 C 
HETATM   20  C1  UNL     1      23.110  -0.928  54.612  1.00  0.00     0.010 C 
ENDBRANCH  14  19
ENDBRANCH  11  13
ENDBRANCH   1  11
BRANCH   8  21
HETATM   21  O2  UNL     1      21.177   3.958  52.413  1.00  0.00    -0.353 OA
HETATM   22  C16 UNL     1      20.309   2.936  51.905  1.00  0.00     0.210 C 
ENDBRANCH   8  21
BRANCH   7  23
HETATM   23  O1  UNL     1      21.528   6.432  51.366  1.00  0.00    -0.353 OA
HETATM   24  C14 UNL     1      21.570   7.600  50.580  1.00  0.00     0.210 C 
ENDBRANCH   7  23
TORSDOF 5
ENDMDL
