MODEL 1
REMARK VINA RESULT:      -8.8      0.000      0.000
REMARK  2 active torsions:
REMARK  status: ('A' for Active; 'I' for Inactive)
REMARK    1  A    between atoms: C8_11  and  C9_12 
REMARK    2  A    between atoms: C10_13  and  C11_14 
ROOT
HETATM    1  C1  UNL     1      20.125   2.829  51.599  1.00  0.00     0.077 C 
HETATM    2  S1  UNL     1      21.448   3.059  50.425  1.00  0.00    -0.180 SA
HETATM    3  C2  UNL     1      23.042   3.191  51.134  1.00  0.00    -0.028 A 
HETATM    4  C3  UNL     1      23.395   3.525  49.874  1.00  0.00     0.085 A 
HETATM    5  C4  UNL     1      22.393   3.574  48.800  1.00  0.00     0.142 A 
HETATM    6  N1  UNL     1      21.502   2.646  48.333  1.00  0.00    -0.255 NA
HETATM    7  C5  UNL     1      20.641   2.897  47.352  1.00  0.00     0.229 A 
HETATM    8  N2  UNL     1      20.566   4.098  46.723  1.00  0.00    -0.245 NA
HETATM    9  C6  UNL     1      21.364   5.090  47.069  1.00  0.00     0.063 A 
HETATM   10  C7  UNL     1      22.351   4.830  48.179  1.00  0.00     0.009 A 
HETATM   11  C8  UNL     1      22.295   6.155  47.513  1.00  0.00     0.151 A 
HETATM   12  C15 UNL     1      24.728   3.843  49.294  1.00  0.00     0.006 C 
HETATM   13  C16 UNL     1      26.051   3.976  49.533  1.00  0.00    -0.062 C 
HETATM   14  C17 UNL     1      27.257   4.317  48.759  1.00  0.00     0.045 C 
HETATM   15  C18 UNL     1      26.179   3.724  50.950  1.00  0.00     0.201 C 
HETATM   16  O1  UNL     1      26.982   2.653  51.243  1.00  0.00    -0.383 OA
HETATM   17  C19 UNL     1      26.739   2.315  52.587  1.00  0.00     0.207 C 
HETATM   18  C20 UNL     1      25.468   1.579  52.794  1.00  0.00    -0.025 A 
HETATM   19  C21 UNL     1      25.805   0.225  53.052  1.00  0.00     0.010 A 
HETATM   20  C22 UNL     1      25.017  -0.907  53.318  1.00  0.00     0.004 A 
HETATM   21  C23 UNL     1      23.643  -0.656  53.331  1.00  0.00     0.043 A 
HETATM   22  C24 UNL     1      23.271   0.648  53.084  1.00  0.00     0.123 A 
HETATM   23  F1  UNL     1      21.910   0.739  53.140  1.00  0.00    -0.206 F 
HETATM   24  C25 UNL     1      24.072   1.736  52.826  1.00  0.00    -0.007 A 
HETATM   25  C26 UNL     1      23.223   2.962  52.593  1.00  0.00     0.084 C 
ENDROOT
BRANCH  11  26
HETATM   26  C9  UNL     1      21.632   7.194  48.346  1.00  0.00    -0.088 C 
HETATM   27  C10 UNL     1      21.070   8.037  49.025  1.00  0.00    -0.070 C 
BRANCH  27  28
HETATM   28  C11 UNL     1      20.376   9.048  49.822  1.00  0.00     0.298 C 
HETATM   29  C12 UNL     1      20.626  10.400  49.192  1.00  0.00     0.050 C 
HETATM   30  C13 UNL     1      19.661  10.385  48.024  1.00  0.00     0.033 C 
HETATM   31  C14 UNL     1      18.506   9.590  48.566  1.00  0.00     0.271 C 
HETATM   32  N3  UNL     1      18.936   8.897  49.747  1.00  0.00     0.099 N 
HETATM   33  H13 UNL     1      18.666   7.876  49.642  1.00  0.00     0.317 HD
ENDBRANCH  27  28
ENDBRANCH  11  26
TORSDOF 2
ENDMDL
MODEL 2
REMARK VINA RESULT:      -8.7      2.850      4.958
REMARK  2 active torsions:
REMARK  status: ('A' for Active; 'I' for Inactive)
REMARK    1  A    between atoms: C8_11  and  C9_12 
REMARK    2  A    between atoms: C10_13  and  C11_14 
ROOT
HETATM    1  C1  UNL     1      25.973   4.410  49.742  1.00  0.00     0.077 C 
HETATM    2  S1  UNL     1      24.576   4.059  50.795  1.00  0.00    -0.180 SA
HETATM    3  C2  UNL     1      24.503   2.416  51.390  1.00  0.00    -0.028 A 
HETATM    4  C3  UNL     1      23.283   2.802  51.823  1.00  0.00     0.085 A 
HETATM    5  C4  UNL     1      22.798   4.168  51.584  1.00  0.00     0.142 A 
HETATM    6  N1  UNL     1      23.323   5.394  51.889  1.00  0.00    -0.255 NA
HETATM    7  C5  UNL     1      22.734   6.539  51.555  1.00  0.00     0.229 A 
HETATM    8  N2  UNL     1      21.556   6.596  50.882  1.00  0.00    -0.245 NA
HETATM    9  C6  UNL     1      20.933   5.490  50.521  1.00  0.00     0.063 A 
HETATM   10  C7  UNL     1      21.581   4.178  50.888  1.00  0.00     0.009 A 
HETATM   11  C8  UNL     1      20.293   4.205  50.151  1.00  0.00     0.151 A 
HETATM   12  C15 UNL     1      22.253   2.062  52.601  1.00  0.00     0.006 C 
HETATM   13  C16 UNL     1      21.926   0.898  53.205  1.00  0.00    -0.062 C 
HETATM   14  C17 UNL     1      20.783   0.361  53.963  1.00  0.00     0.045 C 
HETATM   15  C18 UNL     1      23.057   0.037  52.943  1.00  0.00     0.201 C 
HETATM   16  O1  UNL     1      23.686  -0.399  54.081  1.00  0.00    -0.383 OA
HETATM   17  C19 UNL     1      24.934  -0.915  53.685  1.00  0.00     0.207 C 
HETATM   18  C20 UNL     1      25.939   0.131  53.379  1.00  0.00    -0.025 A 
HETATM   19  C21 UNL     1      26.866   0.149  54.454  1.00  0.00     0.010 A 
HETATM   20  C22 UNL     1      28.011   0.926  54.697  1.00  0.00     0.004 A 
HETATM   21  C23 UNL     1      28.293   1.857  53.695  1.00  0.00     0.043 A 
HETATM   22  C24 UNL     1      27.416   1.874  52.632  1.00  0.00     0.123 A 
HETATM   23  F1  UNL     1      27.824   2.820  51.735  1.00  0.00    -0.206 F 
HETATM   24  C25 UNL     1      26.300   1.096  52.425  1.00  0.00    -0.007 A 
HETATM   25  C26 UNL     1      25.632   1.483  51.128  1.00  0.00     0.084 C 
ENDROOT
BRANCH  11  26
HETATM   26  C9  UNL     1      20.445   3.876  48.708  1.00  0.00    -0.088 C 
HETATM   27  C10 UNL     1      20.566   3.626  47.520  1.00  0.00    -0.070 C 
BRANCH  27  28
HETATM   28  C11 UNL     1      20.691   3.343  46.091  1.00  0.00     0.298 C 
HETATM   29  C12 UNL     1      19.756   4.268  45.343  1.00  0.00     0.050 C 
HETATM   30  C13 UNL     1      20.533   5.569  45.346  1.00  0.00     0.033 C 
HETATM   31  C14 UNL     1      21.958   5.097  45.263  1.00  0.00     0.271 C 
HETATM   32  N3  UNL     1      22.002   3.699  45.584  1.00  0.00     0.099 N 
HETATM   33  H13 UNL     1      22.747   3.558  46.326  1.00  0.00     0.317 HD
ENDBRANCH  27  28
ENDBRANCH  11  26
TORSDOF 2
ENDMDL
MODEL 3
REMARK VINA RESULT:      -8.1      2.952      5.329
REMARK  2 active torsions:
REMARK  status: ('A' for Active; 'I' for Inactive)
REMARK    1  A    between atoms: C8_11  and  C9_12 
REMARK    2  A    between atoms: C10_13  and  C11_14 
ROOT
HETATM    1  C1  UNL     1      24.715   2.762  50.341  1.00  0.00     0.077 C 
HETATM    2  S1  UNL     1      23.175   3.544  50.786  1.00  0.00    -0.180 SA
HETATM    3  C2  UNL     1      21.809   2.458  50.905  1.00  0.00    -0.028 A 
HETATM    4  C3  UNL     1      21.113   3.610  51.018  1.00  0.00     0.085 A 
HETATM    5  C4  UNL     1      21.798   4.910  50.984  1.00  0.00     0.142 A 
HETATM    6  N1  UNL     1      22.824   5.426  51.728  1.00  0.00    -0.255 NA
HETATM    7  C5  UNL     1      23.334   6.636  51.521  1.00  0.00     0.229 A 
HETATM    8  N2  UNL     1      22.883   7.472  50.550  1.00  0.00    -0.245 NA
HETATM    9  C6  UNL     1      21.897   7.107  49.753  1.00  0.00     0.063 A 
HETATM   10  C7  UNL     1      21.301   5.739  49.969  1.00  0.00     0.009 A 
HETATM   11  C8  UNL     1      20.786   6.627  48.898  1.00  0.00     0.151 A 
HETATM   12  C15 UNL     1      19.659   3.847  51.229  1.00  0.00     0.006 C 
HETATM   13  C16 UNL     1      18.444   3.279  51.396  1.00  0.00    -0.062 C 
HETATM   14  C17 UNL     1      17.060   3.738  51.603  1.00  0.00     0.045 C 
HETATM   15  C18 UNL     1      18.702   1.861  51.296  1.00  0.00     0.201 C 
HETATM   16  O1  UNL     1      18.369   1.164  52.428  1.00  0.00    -0.383 OA
HETATM   17  C19 UNL     1      18.982  -0.098  52.327  1.00  0.00     0.207 C 
HETATM   18  C20 UNL     1      20.436  -0.077  52.616  1.00  0.00    -0.025 A 
HETATM   19  C21 UNL     1      20.618  -0.664  53.896  1.00  0.00     0.010 A 
HETATM   20  C22 UNL     1      21.767  -0.905  54.666  1.00  0.00     0.004 A 
HETATM   21  C23 UNL     1      22.956  -0.491  54.064  1.00  0.00     0.043 A 
HETATM   22  C24 UNL     1      22.826   0.086  52.819  1.00  0.00     0.123 A 
HETATM   23  F1  UNL     1      24.064   0.428  52.356  1.00  0.00    -0.206 F 
HETATM   24  C25 UNL     1      21.680   0.309  52.090  1.00  0.00    -0.007 A 
HETATM   25  C26 UNL     1      22.019   0.990  50.786  1.00  0.00     0.084 C 
ENDROOT
BRANCH  11  26
HETATM   26  C9  UNL     1      21.234   6.218  47.539  1.00  0.00    -0.088 C 
HETATM   27  C10 UNL     1      21.605   5.863  46.433  1.00  0.00    -0.070 C 
BRANCH  27  28
HETATM   28  C11 UNL     1      22.066   5.420  45.118  1.00  0.00     0.298 C 
HETATM   29  C12 UNL     1      21.748   3.948  44.977  1.00  0.00     0.050 C 
HETATM   30  C13 UNL     1      20.267   3.976  44.657  1.00  0.00     0.033 C 
HETATM   31  C14 UNL     1      20.131   5.241  43.856  1.00  0.00     0.271 C 
HETATM   32  N3  UNL     1      21.310   6.038  44.046  1.00  0.00     0.099 N 
HETATM   33  H13 UNL     1      21.002   7.017  44.314  1.00  0.00     0.317 HD
ENDBRANCH  27  28
ENDBRANCH  11  26
TORSDOF 2
ENDMDL
MODEL 4
REMARK VINA RESULT:      -7.9      4.103      7.221
REMARK  2 active torsions:
REMARK  status: ('A' for Active; 'I' for Inactive)
REMARK    1  A    between atoms: C8_11  and  C9_12 
REMARK    2  A    between atoms: C10_13  and  C11_14 
ROOT
HETATM    1  C1  UNL     1      19.553   3.330  47.783  1.00  0.00     0.077 C 
HETATM    2  S1  UNL     1      19.425   2.953  49.522  1.00  0.00    -0.180 SA
HETATM    3  C2  UNL     1      20.761   2.030  50.172  1.00  0.00    -0.028 A 
HETATM    4  C3  UNL     1      19.966   1.957  51.261  1.00  0.00     0.085 A 
HETATM    5  C4  UNL     1      18.644   2.597  51.272  1.00  0.00     0.142 A 
HETATM    6  N1  UNL     1      18.246   3.885  51.037  1.00  0.00    -0.255 NA
HETATM    7  C5  UNL     1      16.974   4.269  51.066  1.00  0.00     0.229 A 
HETATM    8  N2  UNL     1      15.950   3.418  51.333  1.00  0.00    -0.245 NA
HETATM    9  C6  UNL     1      16.183   2.143  51.579  1.00  0.00     0.063 A 
HETATM   10  C7  UNL     1      17.619   1.682  51.552  1.00  0.00     0.009 A 
HETATM   11  C8  UNL     1      16.524   0.725  51.847  1.00  0.00     0.151 A 
HETATM   12  C15 UNL     1      20.200   1.331  52.591  1.00  0.00     0.006 C 
HETATM   13  C16 UNL     1      21.064   0.642  53.369  1.00  0.00    -0.062 C 
HETATM   14  C17 UNL     1      21.085   0.100  54.738  1.00  0.00     0.045 C 
HETATM   15  C18 UNL     1      22.205   0.416  52.512  1.00  0.00     0.201 C 
HETATM   16  O1  UNL     1      23.365   0.971  52.988  1.00  0.00    -0.383 OA
HETATM   17  C19 UNL     1      24.282   0.982  51.921  1.00  0.00     0.207 C 
HETATM   18  C20 UNL     1      24.027   2.056  50.931  1.00  0.00    -0.025 A 
HETATM   19  C21 UNL     1      25.024   3.048  51.121  1.00  0.00     0.010 A 
HETATM   20  C22 UNL     1      25.272   4.270  50.475  1.00  0.00     0.004 A 
HETATM   21  C23 UNL     1      24.370   4.569  49.452  1.00  0.00     0.043 A 
HETATM   22  C24 UNL     1      23.383   3.632  49.234  1.00  0.00     0.123 A 
HETATM   23  F1  UNL     1      22.590   4.055  48.205  1.00  0.00    -0.206 F 
HETATM   24  C25 UNL     1      23.168   2.441  49.888  1.00  0.00    -0.007 A 
HETATM   25  C26 UNL     1      21.950   1.752  49.322  1.00  0.00     0.084 C 
ENDROOT
BRANCH  11  26
HETATM   26  C9  UNL     1      16.215  -0.172  50.700  1.00  0.00    -0.088 C 
HETATM   27  C10 UNL     1      15.950  -0.893  49.753  1.00  0.00    -0.070 C 
BRANCH  27  28
HETATM   28  C11 UNL     1      15.607  -1.747  48.618  1.00  0.00     0.298 C 
HETATM   29  C12 UNL     1      14.103  -1.901  48.580  1.00  0.00     0.050 C 
HETATM   30  C13 UNL     1      13.669  -0.587  47.964  1.00  0.00     0.033 C 
HETATM   31  C14 UNL     1      14.795  -0.283  47.016  1.00  0.00     0.271 C 
HETATM   32  N3  UNL     1      15.918  -1.112  47.352  1.00  0.00     0.099 N 
HETATM   33  H13 UNL     1      16.771  -0.486  47.441  1.00  0.00     0.317 HD
ENDBRANCH  27  28
ENDBRANCH  11  26
TORSDOF 2
ENDMDL
MODEL 5
REMARK VINA RESULT:      -7.6      8.349     10.952
REMARK  2 active torsions:
REMARK  status: ('A' for Active; 'I' for Inactive)
REMARK    1  A    between atoms: C8_11  and  C9_12 
REMARK    2  A    between atoms: C10_13  and  C11_14 
ROOT
HETATM    1  C1  UNL     1      33.127  11.229  46.445  1.00  0.00     0.077 C 
HETATM    2  S1  UNL     1      31.807  10.363  47.276  1.00  0.00    -0.180 SA
HETATM    3  C2  UNL     1      31.797   8.631  47.028  1.00  0.00    -0.028 A 
HETATM    4  C3  UNL     1      30.603   8.714  47.653  1.00  0.00     0.085 A 
HETATM    5  C4  UNL     1      30.083  10.009  48.113  1.00  0.00     0.142 A 
HETATM    6  N1  UNL     1      30.608  10.970  48.933  1.00  0.00    -0.255 NA
HETATM    7  C5  UNL     1      29.982  12.110  49.210  1.00  0.00     0.229 A 
HETATM    8  N2  UNL     1      28.762  12.425  48.704  1.00  0.00    -0.245 NA
HETATM    9  C6  UNL     1      28.134  11.593  47.896  1.00  0.00     0.063 A 
HETATM   10  C7  UNL     1      28.823  10.293  47.567  1.00  0.00     0.009 A 
HETATM   11  C8  UNL     1      27.489  10.607  46.996  1.00  0.00     0.151 A 
HETATM   12  C15 UNL     1      29.636   7.651  48.040  1.00  0.00     0.006 C 
HETATM   13  C16 UNL     1      29.368   6.327  48.040  1.00  0.00    -0.062 C 
HETATM   14  C17 UNL     1      28.284   5.447  48.511  1.00  0.00     0.045 C 
HETATM   15  C18 UNL     1      30.491   5.741  47.346  1.00  0.00     0.201 C 
HETATM   16  O1  UNL     1      31.200   4.849  48.108  1.00  0.00    -0.383 OA
HETATM   17  C19 UNL     1      32.426   4.635  47.454  1.00  0.00     0.207 C 
HETATM   18  C20 UNL     1      33.394   5.745  47.627  1.00  0.00    -0.025 A 
HETATM   19  C21 UNL     1      34.389   5.296  48.535  1.00  0.00     0.010 A 
HETATM   20  C22 UNL     1      35.535   5.917  49.057  1.00  0.00     0.004 A 
HETATM   21  C23 UNL     1      35.737   7.221  48.601  1.00  0.00     0.043 A 
HETATM   22  C24 UNL     1      34.793   7.698  47.717  1.00  0.00     0.123 A 
HETATM   23  F1  UNL     1      35.127   8.971  47.354  1.00  0.00    -0.206 F 
HETATM   24  C25 UNL     1      33.677   7.061  47.224  1.00  0.00    -0.007 A 
HETATM   25  C26 UNL     1      32.920   7.982  46.299  1.00  0.00     0.084 C 
ENDROOT
BRANCH  11  26
HETATM   26  C9  UNL     1      27.552  11.002  45.563  1.00  0.00    -0.088 C 
HETATM   27  C10 UNL     1      27.620  11.336  44.392  1.00  0.00    -0.070 C 
BRANCH  27  28
HETATM   28  C11 UNL     1      27.714  11.759  42.996  1.00  0.00     0.298 C 
HETATM   29  C12 UNL     1      28.988  12.556  42.828  1.00  0.00     0.050 C 
HETATM   30  C13 UNL     1      30.036  11.463  42.764  1.00  0.00     0.033 C 
HETATM   31  C14 UNL     1      29.302  10.350  42.069  1.00  0.00     0.271 C 
HETATM   32  N3  UNL     1      27.895  10.632  42.102  1.00  0.00     0.099 N 
HETATM   33  H13 UNL     1      27.399   9.770  42.472  1.00  0.00     0.317 HD
ENDBRANCH  27  28
ENDBRANCH  11  26
TORSDOF 2
ENDMDL
MODEL 6
REMARK VINA RESULT:      -7.5      3.430      5.760
REMARK  2 active torsions:
REMARK  status: ('A' for Active; 'I' for Inactive)
REMARK    1  A    between atoms: C8_11  and  C9_12 
REMARK    2  A    between atoms: C10_13  and  C11_14 
ROOT
HETATM    1  C1  UNL     1      24.091   6.129  52.050  1.00  0.00     0.077 C 
HETATM    2  S1  UNL     1      23.317   6.152  50.443  1.00  0.00    -0.180 SA
HETATM    3  C2  UNL     1      23.112   4.578  49.707  1.00  0.00    -0.028 A 
HETATM    4  C3  UNL     1      22.754   5.311  48.630  1.00  0.00     0.085 A 
HETATM    5  C4  UNL     1      22.742   6.779  48.689  1.00  0.00     0.142 A 
HETATM    6  N1  UNL     1      22.114   7.658  49.529  1.00  0.00    -0.255 NA
HETATM    7  C5  UNL     1      22.256   8.977  49.436  1.00  0.00     0.229 A 
HETATM    8  N2  UNL     1      23.036   9.573  48.498  1.00  0.00    -0.245 NA
HETATM    9  C6  UNL     1      23.704   8.850  47.620  1.00  0.00     0.063 A 
HETATM   10  C7  UNL     1      23.560   7.350  47.704  1.00  0.00     0.009 A 
HETATM   11  C8  UNL     1      24.422   7.970  46.667  1.00  0.00     0.151 A 
HETATM   12  C15 UNL     1      22.288   4.887  47.282  1.00  0.00     0.006 C 
HETATM   13  C16 UNL     1      21.998   3.845  46.473  1.00  0.00    -0.062 C 
HETATM   14  C17 UNL     1      21.520   3.651  45.093  1.00  0.00     0.045 C 
HETATM   15  C18 UNL     1      22.305   2.682  47.274  1.00  0.00     0.201 C 
HETATM   16  O1  UNL     1      21.225   1.866  47.489  1.00  0.00    -0.383 OA
HETATM   17  C19 UNL     1      21.572   0.998  48.541  1.00  0.00     0.207 C 
HETATM   18  C20 UNL     1      21.517   1.634  49.879  1.00  0.00    -0.025 A 
HETATM   19  C21 UNL     1      20.361   1.134  50.534  1.00  0.00     0.010 A 
HETATM   20  C22 UNL     1      19.818   1.383  51.805  1.00  0.00     0.004 A 
HETATM   21  C23 UNL     1      20.548   2.294  52.570  1.00  0.00     0.043 A 
HETATM   22  C24 UNL     1      21.679   2.806  51.971  1.00  0.00     0.123 A 
HETATM   23  F1  UNL     1      22.290   3.667  52.838  1.00  0.00    -0.206 F 
HETATM   24  C25 UNL     1      22.185   2.540  50.720  1.00  0.00    -0.007 A 
HETATM   25  C26 UNL     1      23.436   3.351  50.483  1.00  0.00     0.084 C 
ENDROOT
BRANCH  11  26
HETATM   26  C9  UNL     1      25.873   7.848  46.972  1.00  0.00    -0.088 C 
HETATM   27  C10 UNL     1      27.060   7.727  47.226  1.00  0.00    -0.070 C 
BRANCH  27  28
HETATM   28  C11 UNL     1      28.476   7.565  47.549  1.00  0.00     0.298 C 
HETATM   29  C12 UNL     1      29.221   8.775  47.029  1.00  0.00     0.050 C 
HETATM   30  C13 UNL     1      28.905   9.815  48.084  1.00  0.00     0.033 C 
HETATM   31  C14 UNL     1      28.828   8.993  49.340  1.00  0.00     0.271 C 
HETATM   32  N3  UNL     1      28.711   7.608  48.980  1.00  0.00     0.099 N 
HETATM   33  H13 UNL     1      27.888   7.201  49.511  1.00  0.00     0.317 HD
ENDBRANCH  27  28
ENDBRANCH  11  26
TORSDOF 2
ENDMDL
MODEL 7
REMARK VINA RESULT:      -7.5      4.444      7.196
REMARK  2 active torsions:
REMARK  status: ('A' for Active; 'I' for Inactive)
REMARK    1  A    between atoms: C8_11  and  C9_12 
REMARK    2  A    between atoms: C10_13  and  C11_14 
ROOT
HETATM    1  C1  UNL     1      25.165  10.272  46.638  1.00  0.00     0.077 C 
HETATM    2  S1  UNL     1      25.053   8.830  47.681  1.00  0.00    -0.180 SA
HETATM    3  C2  UNL     1      26.423   7.746  47.582  1.00  0.00    -0.028 A 
HETATM    4  C3  UNL     1      25.632   6.943  48.327  1.00  0.00     0.085 A 
HETATM    5  C4  UNL     1      24.288   7.377  48.732  1.00  0.00     0.142 A 
HETATM    6  N1  UNL     1      23.844   8.483  49.405  1.00  0.00    -0.255 NA
HETATM    7  C5  UNL     1      22.559   8.714  49.653  1.00  0.00     0.229 A 
HETATM    8  N2  UNL     1      21.567   7.874  49.262  1.00  0.00    -0.245 NA
HETATM    9  C6  UNL     1      21.846   6.766  48.602  1.00  0.00     0.063 A 
HETATM   10  C7  UNL     1      23.297   6.480  48.308  1.00  0.00     0.009 A 
HETATM   11  C8  UNL     1      22.237   5.540  47.865  1.00  0.00     0.151 A 
HETATM   12  C15 UNL     1      25.891   5.598  48.908  1.00  0.00     0.006 C 
HETATM   13  C16 UNL     1      26.779   4.590  49.049  1.00  0.00    -0.062 C 
HETATM   14  C17 UNL     1      26.821   3.274  49.710  1.00  0.00     0.045 C 
HETATM   15  C18 UNL     1      27.927   5.024  48.285  1.00  0.00     0.201 C 
HETATM   16  O1  UNL     1      29.066   5.152  49.036  1.00  0.00    -0.383 OA
HETATM   17  C19 UNL     1      29.981   5.897  48.269  1.00  0.00     0.207 C 
HETATM   18  C20 UNL     1      29.686   7.350  48.240  1.00  0.00    -0.025 A 
HETATM   19  C21 UNL     1      30.648   7.989  49.065  1.00  0.00     0.010 A 
HETATM   20  C22 UNL     1      30.851   9.337  49.402  1.00  0.00     0.004 A 
HETATM   21  C23 UNL     1      29.937  10.217  48.818  1.00  0.00     0.043 A 
HETATM   22  C24 UNL     1      28.984   9.637  48.009  1.00  0.00     0.123 A 
HETATM   23  F1  UNL     1      28.175  10.615  47.505  1.00  0.00    -0.206 F 
HETATM   24  C25 UNL     1      28.812   8.308  47.699  1.00  0.00    -0.007 A 
HETATM   25  C26 UNL     1      27.620   8.137  46.790  1.00  0.00     0.084 C 
ENDROOT
BRANCH  11  26
HETATM   26  C9  UNL     1      21.959   5.627  46.406  1.00  0.00    -0.088 C 
HETATM   27  C10 UNL     1      21.717   5.711  45.214  1.00  0.00    -0.070 C 
BRANCH  27  28
HETATM   28  C11 UNL     1      21.399   5.814  43.790  1.00  0.00     0.298 C 
HETATM   29  C12 UNL     1      19.918   6.088  43.655  1.00  0.00     0.050 C 
HETATM   30  C13 UNL     1      19.842   7.568  43.972  1.00  0.00     0.033 C 
HETATM   31  C14 UNL     1      21.140   8.086  43.418  1.00  0.00     0.271 C 
HETATM   32  N3  UNL     1      22.019   6.976  43.182  1.00  0.00     0.099 N 
HETATM   33  H13 UNL     1      22.950   7.194  43.643  1.00  0.00     0.317 HD
ENDBRANCH  27  28
ENDBRANCH  11  26
TORSDOF 2
ENDMDL
MODEL 8
REMARK VINA RESULT:      -7.2      8.541     11.806
REMARK  2 active torsions:
REMARK  status: ('A' for Active; 'I' for Inactive)
REMARK    1  A    between atoms: C8_11  and  C9_12 
REMARK    2  A    between atoms: C10_13  and  C11_14 
ROOT
HETATM    1  C1  UNL     1      30.467  10.037  43.906  1.00  0.00     0.077 C 
HETATM    2  S1  UNL     1      31.421   9.546  45.331  1.00  0.00    -0.180 SA
HETATM    3  C2  UNL     1      32.013   7.901  45.285  1.00  0.00    -0.028 A 
HETATM    4  C3  UNL     1      32.358   8.164  46.564  1.00  0.00     0.085 A 
HETATM    5  C4  UNL     1      32.084   9.478  47.163  1.00  0.00     0.142 A 
HETATM    6  N1  UNL     1      32.422  10.748  46.782  1.00  0.00    -0.255 NA
HETATM    7  C5  UNL     1      32.046  11.831  47.455  1.00  0.00     0.229 A 
HETATM    8  N2  UNL     1      31.292  11.777  48.583  1.00  0.00    -0.245 NA
HETATM    9  C6  UNL     1      30.891  10.618  49.068  1.00  0.00     0.063 A 
HETATM   10  C7  UNL     1      31.305   9.373  48.323  1.00  0.00     0.009 A 
HETATM   11  C8  UNL     1      30.480   9.278  49.553  1.00  0.00     0.151 A 
HETATM   12  C15 UNL     1      33.064   7.324  47.569  1.00  0.00     0.006 C 
HETATM   13  C16 UNL     1      33.647   6.131  47.822  1.00  0.00    -0.062 C 
HETATM   14  C17 UNL     1      34.324   5.482  48.958  1.00  0.00     0.045 C 
HETATM   15  C18 UNL     1      33.467   5.385  46.598  1.00  0.00     0.201 C 
HETATM   16  O1  UNL     1      34.646   5.007  46.010  1.00  0.00    -0.383 OA
HETATM   17  C19 UNL     1      34.339   4.616  44.693  1.00  0.00     0.207 C 
HETATM   18  C20 UNL     1      34.102   5.757  43.776  1.00  0.00    -0.025 A 
HETATM   19  C21 UNL     1      35.238   5.860  42.932  1.00  0.00     0.010 A 
HETATM   20  C22 UNL     1      35.559   6.743  41.888  1.00  0.00     0.004 A 
HETATM   21  C23 UNL     1      34.578   7.702  41.629  1.00  0.00     0.043 A 
HETATM   22  C24 UNL     1      33.455   7.639  42.427  1.00  0.00     0.123 A 
HETATM   23  F1  UNL     1      32.588   8.624  42.052  1.00  0.00    -0.206 F 
HETATM   24  C25 UNL     1      33.173   6.757  43.445  1.00  0.00    -0.007 A 
HETATM   25  C26 UNL     1      31.832   7.083  44.055  1.00  0.00     0.084 C 
ENDROOT
BRANCH  11  26
HETATM   26  C9  UNL     1      29.051   8.973  49.270  1.00  0.00    -0.088 C 
HETATM   27  C10 UNL     1      27.880   8.739  49.025  1.00  0.00    -0.070 C 
BRANCH  27  28
HETATM   28  C11 UNL     1      26.470   8.485  48.733  1.00  0.00     0.298 C 
HETATM   29  C12 UNL     1      26.392   7.366  47.719  1.00  0.00     0.050 C 
HETATM   30  C13 UNL     1      26.628   6.143  48.583  1.00  0.00     0.033 C 
HETATM   31  C14 UNL     1      25.983   6.534  49.884  1.00  0.00     0.271 C 
HETATM   32  N3  UNL     1      25.768   7.953  49.885  1.00  0.00     0.099 N 
HETATM   33  H13 UNL     1      26.170   8.342  50.787  1.00  0.00     0.317 HD
ENDBRANCH  27  28
ENDBRANCH  11  26
TORSDOF 2
ENDMDL
MODEL 9
REMARK VINA RESULT:      -7.2     25.187     28.839
REMARK  2 active torsions:
REMARK  status: ('A' for Active; 'I' for Inactive)
REMARK    1  A    between atoms: C8_11  and  C9_12 
REMARK    2  A    between atoms: C10_13  and  C11_14 
ROOT
HETATM    1  C1  UNL     1      42.655   2.547  72.739  1.00  0.00     0.077 C 
HETATM    2  S1  UNL     1      43.443   2.312  71.156  1.00  0.00    -0.180 SA
HETATM    3  C2  UNL     1      43.630   3.769  70.207  1.00  0.00    -0.028 A 
HETATM    4  C3  UNL     1      44.008   2.898  69.247  1.00  0.00     0.085 A 
HETATM    5  C4  UNL     1      44.042   1.454  69.512  1.00  0.00     0.142 A 
HETATM    6  N1  UNL     1      44.676   0.712  70.471  1.00  0.00    -0.255 NA
HETATM    7  C5  UNL     1      44.557  -0.609  70.565  1.00  0.00     0.229 A 
HETATM    8  N2  UNL     1      43.794  -1.344  69.715  1.00  0.00    -0.245 NA
HETATM    9  C6  UNL     1      43.122  -0.762  68.740  1.00  0.00     0.063 A 
HETATM   10  C7  UNL     1      43.242   0.736  68.613  1.00  0.00     0.009 A 
HETATM   11  C8  UNL     1      42.398  -0.038  67.668  1.00  0.00     0.151 A 
HETATM   12  C15 UNL     1      44.479   3.136  67.855  1.00  0.00     0.006 C 
HETATM   13  C16 UNL     1      44.760   4.059  66.909  1.00  0.00    -0.062 C 
HETATM   14  C17 UNL     1      45.246   4.064  65.519  1.00  0.00     0.045 C 
HETATM   15  C18 UNL     1      44.427   5.317  67.537  1.00  0.00     0.201 C 
HETATM   16  O1  UNL     1      45.493   6.173  67.642  1.00  0.00    -0.383 OA
HETATM   17  C19 UNL     1      45.123   7.175  68.558  1.00  0.00     0.207 C 
HETATM   18  C20 UNL     1      45.177   6.734  69.973  1.00  0.00    -0.025 A 
HETATM   19  C21 UNL     1      46.319   7.341  70.559  1.00  0.00     0.010 A 
HETATM   20  C22 UNL     1      46.855   7.282  71.855  1.00  0.00     0.004 A 
HETATM   21  C23 UNL     1      46.132   6.476  72.737  1.00  0.00     0.043 A 
HETATM   22  C24 UNL     1      45.015   5.866  72.209  1.00  0.00     0.123 A 
HETATM   23  F1  UNL     1      44.410   5.126  73.184  1.00  0.00    -0.206 F 
HETATM   24  C25 UNL     1      44.516   5.945  70.929  1.00  0.00    -0.007 A 
HETATM   25  C26 UNL     1      43.280   5.088  70.800  1.00  0.00     0.084 C 
ENDROOT
BRANCH  11  26
HETATM   26  C9  UNL     1      40.943   0.102  67.943  1.00  0.00    -0.088 C 
HETATM   27  C10 UNL     1      39.746   0.213  68.150  1.00  0.00    -0.070 C 
BRANCH  27  28
HETATM   28  C11 UNL     1      38.309   0.359  68.373  1.00  0.00     0.298 C 
HETATM   29  C12 UNL     1      37.832  -0.832  69.173  1.00  0.00     0.050 C 
HETATM   30  C13 UNL     1      38.278  -0.467  70.575  1.00  0.00     0.033 C 
HETATM   31  C14 UNL     1      38.132   1.029  70.584  1.00  0.00     0.271 C 
HETATM   32  N3  UNL     1      38.008   1.490  69.230  1.00  0.00     0.099 N 
HETATM   33  H13 UNL     1      38.712   2.272  69.087  1.00  0.00     0.317 HD
ENDBRANCH  27  28
ENDBRANCH  11  26
TORSDOF 2
ENDMDL
