MODEL 1
REMARK VINA RESULT:      -8.7      0.000      0.000
REMARK  2 active torsions:
REMARK  status: ('A' for Active; 'I' for Inactive)
REMARK    1  A    between atoms: C5_5  and  N1_6 
REMARK    2  A    between atoms: C18_21  and  O2_22 
ROOT
HETATM    1  C1  UNL     1      27.176   4.544  48.881  1.00  0.00     0.036 C 
HETATM    2  C2  UNL     1      25.740   4.508  49.184  1.00  0.00    -0.027 C 
HETATM    3  C3  UNL     1      25.024   3.869  50.140  1.00  0.00    -0.069 C 
HETATM    4  C4  UNL     1      23.616   4.311  49.818  1.00  0.00     0.116 C 
HETATM    5  C5  UNL     1      22.500   3.979  50.436  1.00  0.00     0.042 C 
HETATM    6  C6  UNL     1      21.395   3.376  51.270  1.00  0.00     0.295 C 
HETATM    7  N2  UNL     1      20.264   3.115  50.439  1.00  0.00     0.085 N 
HETATM    8  C7  UNL     1      19.284   2.285  51.038  1.00  0.00     0.269 C 
HETATM    9  C8  UNL     1      19.801   0.829  50.978  1.00  0.00     0.030 C 
HETATM   10  C9  UNL     1      18.805  -0.098  51.528  1.00  0.00     0.002 C 
HETATM   11  C10 UNL     1      18.664  -0.370  52.971  1.00  0.00     0.004 C 
HETATM   12  C11 UNL     1      19.604  -1.325  53.559  1.00  0.00     0.027 C 
HETATM   13  C12 UNL     1      20.991  -1.122  53.818  1.00  0.00    -0.027 C 
HETATM   14  C13 UNL     1      22.085  -1.141  54.670  1.00  0.00    -0.004 C 
HETATM   15  C14 UNL     1      23.266  -0.717  54.024  1.00  0.00    -0.002 C 
HETATM   16  C15 UNL     1      24.486  -0.613  54.383  1.00  0.00    -0.001 C 
HETATM   17  C16 UNL     1      25.902  -0.330  54.322  1.00  0.00     0.195 C 
HETATM   18  O1  UNL     1      26.311   0.227  53.068  1.00  0.00    -0.384 OA
HETATM   19  C17 UNL     1      25.863   1.550  53.116  1.00  0.00     0.209 C 
HETATM   20  C18 UNL     1      26.116   2.394  51.966  1.00  0.00     0.121 C 
HETATM   21  C19 UNL     1      26.121   3.186  50.913  1.00  0.00     0.066 C 
HETATM   22  H10 UNL     1      20.638   2.595  49.591  1.00  0.00     0.315 HD
ENDROOT
BRANCH   5  23
HETATM   23  N1  UNL     1      21.958   4.868  49.425  1.00  0.00    -0.423 N 
HETATM   24  H6  UNL     1      21.330   5.361  48.754  1.00  0.00     0.150 HD
HETATM   25  H7  UNL     1      21.654   5.561  48.677  1.00  0.00     0.150 HD
ENDBRANCH   5  23
BRANCH  20  26
HETATM   26  O2  UNL     1      27.519   2.393  51.812  1.00  0.00    -0.384 OA
HETATM   27  H29 UNL     1      28.074   1.564  51.914  1.00  0.00     0.210 HD
ENDBRANCH  20  26
TORSDOF 2
ENDMDL
MODEL 2
REMARK VINA RESULT:      -8.4      2.192      4.691
REMARK  2 active torsions:
REMARK  status: ('A' for Active; 'I' for Inactive)
REMARK    1  A    between atoms: C5_5  and  N1_6 
REMARK    2  A    between atoms: C18_21  and  O2_22 
ROOT
HETATM    1  C1  UNL     1      28.613  -0.486  53.882  1.00  0.00     0.036 C 
HETATM    2  C2  UNL     1      27.937   0.531  53.067  1.00  0.00    -0.027 C 
HETATM    3  C3  UNL     1      26.632   0.853  52.905  1.00  0.00    -0.069 C 
HETATM    4  C4  UNL     1      26.713   1.992  51.917  1.00  0.00     0.116 C 
HETATM    5  C5  UNL     1      25.724   2.688  51.397  1.00  0.00     0.042 C 
HETATM    6  C6  UNL     1      24.412   3.257  50.908  1.00  0.00     0.295 C 
HETATM    7  N2  UNL     1      24.523   3.576  49.521  1.00  0.00     0.085 N 
HETATM    8  C7  UNL     1      23.283   3.834  48.886  1.00  0.00     0.269 C 
HETATM    9  C8  UNL     1      22.594   2.474  48.629  1.00  0.00     0.030 C 
HETATM   10  C9  UNL     1      21.325   2.663  47.914  1.00  0.00     0.002 C 
HETATM   11  C10 UNL     1      20.059   3.003  48.591  1.00  0.00     0.004 C 
HETATM   12  C11 UNL     1      19.328   1.902  49.218  1.00  0.00     0.027 C 
HETATM   13  C12 UNL     1      19.678   1.200  50.409  1.00  0.00    -0.027 C 
HETATM   14  C13 UNL     1      19.371   0.719  51.672  1.00  0.00    -0.004 C 
HETATM   15  C14 UNL     1      20.458   0.035  52.257  1.00  0.00    -0.002 C 
HETATM   16  C15 UNL     1      20.624  -0.594  53.355  1.00  0.00    -0.001 C 
HETATM   17  C16 UNL     1      21.267  -1.355  54.402  1.00  0.00     0.195 C 
HETATM   18  O1  UNL     1      22.648  -1.620  54.138  1.00  0.00    -0.384 OA
HETATM   19  C17 UNL     1      23.287  -0.401  54.382  1.00  0.00     0.209 C 
HETATM   20  C18 UNL     1      24.721  -0.334  54.188  1.00  0.00     0.121 C 
HETATM   21  C19 UNL     1      25.977  -0.110  53.861  1.00  0.00     0.066 C 
HETATM   22  H10 UNL     1      24.939   2.717  49.055  1.00  0.00     0.315 HD
ENDROOT
BRANCH   5  23
HETATM   23  N1  UNL     1      26.844   3.354  50.758  1.00  0.00    -0.423 N 
HETATM   24  H6  UNL     1      27.783   3.752  50.537  1.00  0.00     0.150 HD
HETATM   25  H7  UNL     1      27.603   3.861  50.211  1.00  0.00     0.150 HD
ENDBRANCH   5  23
BRANCH  20  26
HETATM   26  O2  UNL     1      25.254  -1.309  55.056  1.00  0.00    -0.384 OA
HETATM   27  H29 UNL     1      26.093  -1.160  55.587  1.00  0.00     0.210 HD
ENDBRANCH  20  26
TORSDOF 2
ENDMDL
MODEL 3
REMARK VINA RESULT:      -8.4      3.171      5.579
REMARK  2 active torsions:
REMARK  status: ('A' for Active; 'I' for Inactive)
REMARK    1  A    between atoms: C5_5  and  N1_6 
REMARK    2  A    between atoms: C18_21  and  O2_22 
ROOT
HETATM    1  C1  UNL     1      22.843   7.201  47.519  1.00  0.00     0.036 C 
HETATM    2  C2  UNL     1      23.893   6.387  48.144  1.00  0.00    -0.027 C 
HETATM    3  C3  UNL     1      23.879   5.154  48.705  1.00  0.00    -0.069 C 
HETATM    4  C4  UNL     1      25.320   4.991  49.128  1.00  0.00     0.116 C 
HETATM    5  C5  UNL     1      25.875   3.965  49.739  1.00  0.00     0.042 C 
HETATM    6  C6  UNL     1      26.220   2.704  50.497  1.00  0.00     0.295 C 
HETATM    7  N2  UNL     1      27.164   3.013  51.522  1.00  0.00     0.085 N 
HETATM    8  C7  UNL     1      27.336   1.983  52.480  1.00  0.00     0.269 C 
HETATM    9  C8  UNL     1      26.122   2.022  53.436  1.00  0.00     0.030 C 
HETATM   10  C9  UNL     1      26.263   1.017  54.497  1.00  0.00     0.002 C 
HETATM   11  C10 UNL     1      25.887  -0.399  54.324  1.00  0.00     0.004 C 
HETATM   12  C11 UNL     1      24.467  -0.727  54.460  1.00  0.00     0.027 C 
HETATM   13  C12 UNL     1      23.419  -0.423  53.542  1.00  0.00    -0.027 C 
HETATM   14  C13 UNL     1      22.342  -0.803  52.756  1.00  0.00    -0.004 C 
HETATM   15  C14 UNL     1      21.793   0.287  52.047  1.00  0.00    -0.002 C 
HETATM   16  C15 UNL     1      20.800   0.423  51.258  1.00  0.00    -0.001 C 
HETATM   17  C16 UNL     1      19.849   1.042  50.363  1.00  0.00     0.195 C 
HETATM   18  O1  UNL     1      20.129   2.424  50.113  1.00  0.00    -0.384 OA
HETATM   19  C17 UNL     1      21.217   2.402  49.236  1.00  0.00     0.209 C 
HETATM   20  C18 UNL     1      21.758   3.671  48.794  1.00  0.00     0.121 C 
HETATM   21  C19 UNL     1      22.444   4.753  48.484  1.00  0.00     0.066 C 
HETATM   22  H10 UNL     1      26.772   3.855  52.037  1.00  0.00     0.315 HD
ENDROOT
BRANCH   5  23
HETATM   23  N1  UNL     1      27.040   4.819  49.601  1.00  0.00    -0.423 N 
HETATM   24  H6  UNL     1      27.940   5.323  49.756  1.00  0.00     0.150 HD
HETATM   25  H7  UNL     1      27.857   5.473  49.408  1.00  0.00     0.150 HD
ENDBRANCH   5  23
BRANCH  20  26
HETATM   26  O2  UNL     1      20.680   4.332  48.167  1.00  0.00    -0.384 OA
HETATM   27  H29 UNL     1      20.152   5.055  48.619  1.00  0.00     0.210 HD
ENDBRANCH  20  26
TORSDOF 2
ENDMDL
MODEL 4
REMARK VINA RESULT:      -8.4      2.347      6.449
REMARK  2 active torsions:
REMARK  status: ('A' for Active; 'I' for Inactive)
REMARK    1  A    between atoms: C5_5  and  N1_6 
REMARK    2  A    between atoms: C18_21  and  O2_22 
ROOT
HETATM    1  C1  UNL     1      16.219   0.080  52.297  1.00  0.00     0.036 C 
HETATM    2  C2  UNL     1      17.269   0.507  51.365  1.00  0.00    -0.027 C 
HETATM    3  C3  UNL     1      18.616   0.364  51.377  1.00  0.00    -0.069 C 
HETATM    4  C4  UNL     1      19.013   1.058  50.096  1.00  0.00     0.116 C 
HETATM    5  C5  UNL     1      20.223   1.225  49.604  1.00  0.00     0.042 C 
HETATM    6  C6  UNL     1      21.704   1.336  49.325  1.00  0.00     0.295 C 
HETATM    7  N2  UNL     1      21.979   2.608  48.739  1.00  0.00     0.085 N 
HETATM    8  C7  UNL     1      23.356   2.945  48.707  1.00  0.00     0.269 C 
HETATM    9  C8  UNL     1      23.764   3.391  50.129  1.00  0.00     0.030 C 
HETATM   10  C9  UNL     1      25.169   3.815  50.157  1.00  0.00     0.002 C 
HETATM   11  C10 UNL     1      26.295   2.873  50.296  1.00  0.00     0.004 C 
HETATM   12  C11 UNL     1      26.604   2.405  51.648  1.00  0.00     0.027 C 
HETATM   13  C12 UNL     1      25.849   1.489  52.437  1.00  0.00    -0.027 C 
HETATM   14  C13 UNL     1      25.751   0.340  53.207  1.00  0.00    -0.004 C 
HETATM   15  C14 UNL     1      24.436   0.125  53.673  1.00  0.00    -0.002 C 
HETATM   16  C15 UNL     1      23.893  -0.751  54.425  1.00  0.00    -0.001 C 
HETATM   17  C16 UNL     1      22.880  -1.465  55.168  1.00  0.00     0.195 C 
HETATM   18  O1  UNL     1      21.568  -0.916  55.002  1.00  0.00    -0.384 OA
HETATM   19  C17 UNL     1      21.180  -1.326  53.724  1.00  0.00     0.209 C 
HETATM   20  C18 UNL     1      19.878  -0.911  53.244  1.00  0.00     0.121 C 
HETATM   21  C19 UNL     1      18.808  -0.437  52.638  1.00  0.00     0.066 C 
HETATM   22  H10 UNL     1      21.497   3.326  49.355  1.00  0.00     0.315 HD
ENDROOT
BRANCH   5  23
HETATM   23  N1  UNL     1      19.451   1.871  48.559  1.00  0.00    -0.423 N 
HETATM   24  H6  UNL     1      18.755   2.089  47.814  1.00  0.00     0.150 HD
HETATM   25  H7  UNL     1      18.946   2.427  47.806  1.00  0.00     0.150 HD
ENDBRANCH   5  23
BRANCH  20  26
HETATM   26  O2  UNL     1      18.960  -1.424  54.185  1.00  0.00    -0.384 OA
HETATM   27  H29 UNL     1      17.967  -1.401  54.040  1.00  0.00     0.210 HD
ENDBRANCH  20  26
TORSDOF 2
ENDMDL
MODEL 5
REMARK VINA RESULT:      -8.3      2.624      5.083
REMARK  2 active torsions:
REMARK  status: ('A' for Active; 'I' for Inactive)
REMARK    1  A    between atoms: C5_5  and  N1_6 
REMARK    2  A    between atoms: C18_21  and  O2_22 
ROOT
HETATM    1  C1  UNL     1      28.911   2.558  53.749  1.00  0.00     0.036 C 
HETATM    2  C2  UNL     1      27.822   1.589  53.921  1.00  0.00    -0.027 C 
HETATM    3  C3  UNL     1      26.700   1.339  53.204  1.00  0.00    -0.069 C 
HETATM    4  C4  UNL     1      26.076   0.210  53.989  1.00  0.00     0.116 C 
HETATM    5  C5  UNL     1      24.950  -0.426  53.741  1.00  0.00     0.042 C 
HETATM    6  C6  UNL     1      23.603  -0.917  53.266  1.00  0.00     0.295 C 
HETATM    7  N2  UNL     1      22.787  -1.225  54.397  1.00  0.00     0.085 N 
HETATM    8  C7  UNL     1      21.416  -1.409  54.089  1.00  0.00     0.269 C 
HETATM    9  C8  UNL     1      20.789  -0.011  53.880  1.00  0.00     0.030 C 
HETATM   10  C9  UNL     1      19.349  -0.122  53.616  1.00  0.00     0.002 C 
HETATM   11  C10 UNL     1      18.792  -0.403  52.280  1.00  0.00     0.004 C 
HETATM   12  C11 UNL     1      18.684   0.728  51.358  1.00  0.00     0.027 C 
HETATM   13  C12 UNL     1      19.748   1.395  50.682  1.00  0.00    -0.027 C 
HETATM   14  C13 UNL     1      20.341   1.876  49.525  1.00  0.00    -0.004 C 
HETATM   15  C14 UNL     1      21.583   2.495  49.785  1.00  0.00    -0.002 C 
HETATM   16  C15 UNL     1      22.443   3.100  49.062  1.00  0.00    -0.001 C 
HETATM   17  C16 UNL     1      23.642   3.813  48.685  1.00  0.00     0.195 C 
HETATM   18  O1  UNL     1      24.548   4.006  49.776  1.00  0.00    -0.384 OA
HETATM   19  C17 UNL     1      25.134   2.752  49.965  1.00  0.00     0.209 C 
HETATM   20  C18 UNL     1      26.108   2.611  51.027  1.00  0.00     0.121 C 
HETATM   21  C19 UNL     1      26.855   2.324  52.075  1.00  0.00     0.066 C 
HETATM   22  H10 UNL     1      22.851  -0.384  55.042  1.00  0.00     0.315 HD
ENDROOT
BRANCH   5  23
HETATM   23  N1  UNL     1      25.371  -1.142  54.931  1.00  0.00    -0.423 N 
HETATM   24  H6  UNL     1      25.931  -1.588  55.689  1.00  0.00     0.150 HD
HETATM   25  H7  UNL     1      25.579  -1.683  55.823  1.00  0.00     0.150 HD
ENDBRANCH   5  23
BRANCH  20  26
HETATM   26  O2  UNL     1      27.121   3.546  50.723  1.00  0.00    -0.384 OA
HETATM   27  H29 UNL     1      27.850   3.784  51.370  1.00  0.00     0.210 HD
ENDBRANCH  20  26
TORSDOF 2
ENDMDL
MODEL 6
REMARK VINA RESULT:      -8.2      3.135      7.332
REMARK  2 active torsions:
REMARK  status: ('A' for Active; 'I' for Inactive)
REMARK    1  A    between atoms: C5_5  and  N1_6 
REMARK    2  A    between atoms: C18_21  and  O2_22 
ROOT
HETATM    1  C1  UNL     1      16.820  -0.257  50.033  1.00  0.00     0.036 C 
HETATM    2  C2  UNL     1      17.832  -0.335  51.093  1.00  0.00    -0.027 C 
HETATM    3  C3  UNL     1      19.007   0.310  51.284  1.00  0.00    -0.069 C 
HETATM    4  C4  UNL     1      19.485  -0.294  52.583  1.00  0.00     0.116 C 
HETATM    5  C5  UNL     1      20.596  -0.031  53.240  1.00  0.00     0.042 C 
HETATM    6  C6  UNL     1      21.957   0.405  53.729  1.00  0.00     0.295 C 
HETATM    7  N2  UNL     1      22.633  -0.714  54.302  1.00  0.00     0.085 N 
HETATM    8  C7  UNL     1      24.017  -0.503  54.524  1.00  0.00     0.269 C 
HETATM    9  C8  UNL     1      24.736  -0.629  53.161  1.00  0.00     0.030 C 
HETATM   10  C9  UNL     1      26.188  -0.481  53.324  1.00  0.00     0.002 C 
HETATM   11  C10 UNL     1      26.865   0.827  53.387  1.00  0.00     0.004 C 
HETATM   12  C11 UNL     1      27.128   1.497  52.113  1.00  0.00     0.027 C 
HETATM   13  C12 UNL     1      26.177   2.125  51.255  1.00  0.00    -0.027 C 
HETATM   14  C13 UNL     1      25.733   3.216  50.523  1.00  0.00    -0.004 C 
HETATM   15  C14 UNL     1      24.506   2.955  49.877  1.00  0.00    -0.002 C 
HETATM   16  C15 UNL     1      23.760   3.622  49.086  1.00  0.00    -0.001 C 
HETATM   17  C16 UNL     1      22.646   3.962  48.230  1.00  0.00     0.195 C 
HETATM   18  O1  UNL     1      21.643   2.942  48.181  1.00  0.00    -0.384 OA
HETATM   19  C17 UNL     1      20.974   3.055  49.402  1.00  0.00     0.209 C 
HETATM   20  C18 UNL     1      19.889   2.134  49.670  1.00  0.00     0.121 C 
HETATM   21  C19 UNL     1      19.024   1.235  50.095  1.00  0.00     0.066 C 
HETATM   22  H10 UNL     1      22.547  -1.502  53.595  1.00  0.00     0.315 HD
ENDROOT
BRANCH   5  23
HETATM   23  N1  UNL     1      20.016  -1.015  54.136  1.00  0.00    -0.423 N 
HETATM   24  H6  UNL     1      19.391  -1.530  54.793  1.00  0.00     0.150 HD
HETATM   25  H7  UNL     1      19.675  -1.794  54.775  1.00  0.00     0.150 HD
ENDBRANCH   5  23
BRANCH  20  26
HETATM   26  O2  UNL     1      18.964   2.342  48.625  1.00  0.00    -0.384 OA
HETATM   27  H29 UNL     1      19.040   3.106  47.979  1.00  0.00     0.210 HD
ENDBRANCH  20  26
TORSDOF 2
ENDMDL
MODEL 7
REMARK VINA RESULT:      -7.7      2.106      5.428
REMARK  2 active torsions:
REMARK  status: ('A' for Active; 'I' for Inactive)
REMARK    1  A    between atoms: C5_5  and  N1_6 
REMARK    2  A    between atoms: C18_21  and  O2_22 
ROOT
HETATM    1  C1  UNL     1      27.573   0.643  54.504  1.00  0.00     0.036 C 
HETATM    2  C2  UNL     1      26.187   0.337  54.131  1.00  0.00    -0.027 C 
HETATM    3  C3  UNL     1      25.383   0.800  53.144  1.00  0.00    -0.069 C 
HETATM    4  C4  UNL     1      24.110   0.026  53.393  1.00  0.00     0.116 C 
HETATM    5  C5  UNL     1      22.977   0.089  52.723  1.00  0.00     0.042 C 
HETATM    6  C6  UNL     1      21.799   0.421  51.838  1.00  0.00     0.295 C 
HETATM    7  N2  UNL     1      20.601   0.387  52.615  1.00  0.00     0.085 N 
HETATM    8  C7  UNL     1      19.478   0.966  51.972  1.00  0.00     0.269 C 
HETATM    9  C8  UNL     1      19.624   2.502  52.065  1.00  0.00     0.030 C 
HETATM   10  C9  UNL     1      18.460   3.171  51.471  1.00  0.00     0.002 C 
HETATM   11  C10 UNL     1      18.325   3.425  50.024  1.00  0.00     0.004 C 
HETATM   12  C11 UNL     1      19.032   4.589  49.488  1.00  0.00     0.027 C 
HETATM   13  C12 UNL     1      20.438   4.731  49.297  1.00  0.00    -0.027 C 
HETATM   14  C13 UNL     1      21.533   5.028  48.501  1.00  0.00    -0.004 C 
HETATM   15  C14 UNL     1      22.750   4.891  49.202  1.00  0.00    -0.002 C 
HETATM   16  C15 UNL     1      23.974   5.091  48.903  1.00  0.00    -0.001 C 
HETATM   17  C16 UNL     1      25.412   5.158  49.032  1.00  0.00     0.195 C 
HETATM   18  O1  UNL     1      25.885   4.695  50.302  1.00  0.00    -0.384 OA
HETATM   19  C17 UNL     1      25.774   3.304  50.225  1.00  0.00     0.209 C 
HETATM   20  C18 UNL     1      26.170   2.526  51.382  1.00  0.00     0.121 C 
HETATM   21  C19 UNL     1      26.317   1.741  52.430  1.00  0.00     0.066 C 
HETATM   22  H10 UNL     1      20.798   0.968  53.482  1.00  0.00     0.315 HD
ENDROOT
BRANCH   5  23
HETATM   23  N1  UNL     1      22.620  -0.921  53.702  1.00  0.00    -0.423 N 
HETATM   24  H6  UNL     1      22.153  -1.464  54.461  1.00  0.00     0.150 HD
HETATM   25  H7  UNL     1      22.438  -1.716  54.385  1.00  0.00     0.150 HD
ENDBRANCH   5  23
BRANCH  20  26
HETATM   26  O2  UNL     1      27.521   2.863  51.605  1.00  0.00    -0.384 OA
HETATM   27  H29 UNL     1      28.166   2.242  52.057  1.00  0.00     0.210 HD
ENDBRANCH  20  26
TORSDOF 2
ENDMDL
MODEL 8
REMARK VINA RESULT:      -7.2      3.015      5.682
REMARK  2 active torsions:
REMARK  status: ('A' for Active; 'I' for Inactive)
REMARK    1  A    between atoms: C5_5  and  N1_6 
REMARK    2  A    between atoms: C18_21  and  O2_22 
ROOT
HETATM    1  C1  UNL     1      20.017   6.727  48.836  1.00  0.00     0.036 C 
HETATM    2  C2  UNL     1      21.321   6.095  49.069  1.00  0.00    -0.027 C 
HETATM    3  C3  UNL     1      21.674   4.882  49.557  1.00  0.00    -0.069 C 
HETATM    4  C4  UNL     1      23.181   4.952  49.502  1.00  0.00     0.116 C 
HETATM    5  C5  UNL     1      24.051   4.033  49.868  1.00  0.00     0.042 C 
HETATM    6  C6  UNL     1      24.805   2.851  50.430  1.00  0.00     0.295 C 
HETATM    7  N2  UNL     1      25.965   3.316  51.120  1.00  0.00     0.085 N 
HETATM    8  C7  UNL     1      26.586   2.337  51.935  1.00  0.00     0.269 C 
HETATM    9  C8  UNL     1      25.743   2.195  53.223  1.00  0.00     0.030 C 
HETATM   10  C9  UNL     1      26.364   1.236  54.146  1.00  0.00     0.002 C 
HETATM   11  C10 UNL     1      26.173  -0.223  54.044  1.00  0.00     0.004 C 
HETATM   12  C11 UNL     1      24.937  -0.769  54.603  1.00  0.00     0.027 C 
HETATM   13  C12 UNL     1      23.620  -0.644  54.071  1.00  0.00    -0.027 C 
HETATM   14  C13 UNL     1      22.421  -1.199  53.647  1.00  0.00    -0.004 C 
HETATM   15  C14 UNL     1      21.517  -0.217  53.189  1.00  0.00    -0.002 C 
HETATM   16  C15 UNL     1      20.317  -0.247  52.756  1.00  0.00    -0.001 C 
HETATM   17  C16 UNL     1      19.050   0.205  52.229  1.00  0.00     0.195 C 
HETATM   18  O1  UNL     1      19.023   1.610  51.958  1.00  0.00    -0.384 OA
HETATM   19  C17 UNL     1      19.768   1.751  50.785  1.00  0.00     0.209 C 
HETATM   20  C18 UNL     1      19.942   3.084  50.247  1.00  0.00     0.121 C 
HETATM   21  C19 UNL     1      20.322   4.257  49.780  1.00  0.00     0.066 C 
HETATM   22  H10 UNL     1      25.632   4.092  51.764  1.00  0.00     0.315 HD
ENDROOT
BRANCH   5  23
HETATM   23  N1  UNL     1      24.968   5.059  49.406  1.00  0.00    -0.423 N 
HETATM   24  H6  UNL     1      25.386   5.917  48.986  1.00  0.00     0.150 HD
HETATM   25  H7  UNL     1      25.717   5.753  49.106  1.00  0.00     0.150 HD
ENDBRANCH   5  23
BRANCH  20  26
HETATM   26  O2  UNL     1      18.634   3.559  50.014  1.00  0.00    -0.384 OA
HETATM   27  H29 UNL     1      17.902   2.975  49.655  1.00  0.00     0.210 HD
ENDBRANCH  20  26
TORSDOF 2
ENDMDL
MODEL 9
REMARK VINA RESULT:      -7.0      2.432      4.930
REMARK  2 active torsions:
REMARK  status: ('A' for Active; 'I' for Inactive)
REMARK    1  A    between atoms: C5_5  and  N1_6 
REMARK    2  A    between atoms: C18_21  and  O2_22 
ROOT
HETATM    1  C1  UNL     1      19.869   5.633  47.041  1.00  0.00     0.036 C 
HETATM    2  C2  UNL     1      19.720   4.918  48.315  1.00  0.00    -0.027 C 
HETATM    3  C3  UNL     1      20.620   4.488  49.231  1.00  0.00    -0.069 C 
HETATM    4  C4  UNL     1      19.726   3.842  50.263  1.00  0.00     0.116 C 
HETATM    5  C5  UNL     1      20.079   3.246  51.384  1.00  0.00     0.042 C 
HETATM    6  C6  UNL     1      20.766   2.564  52.543  1.00  0.00     0.295 C 
HETATM    7  N2  UNL     1      20.060   1.368  52.873  1.00  0.00     0.085 N 
HETATM    8  C7  UNL     1      20.769   0.497  53.738  1.00  0.00     0.269 C 
HETATM    9  C8  UNL     1      21.837  -0.236  52.894  1.00  0.00     0.030 C 
HETATM   10  C9  UNL     1      22.573  -1.205  53.717  1.00  0.00     0.002 C 
HETATM   11  C10 UNL     1      23.720  -0.836  54.569  1.00  0.00     0.004 C 
HETATM   12  C11 UNL     1      25.017  -0.695  53.906  1.00  0.00     0.027 C 
HETATM   13  C12 UNL     1      25.432   0.356  53.036  1.00  0.00    -0.027 C 
HETATM   14  C13 UNL     1      26.329   1.347  52.667  1.00  0.00    -0.004 C 
HETATM   15  C14 UNL     1      25.912   2.032  51.506  1.00  0.00    -0.002 C 
HETATM   16  C15 UNL     1      26.418   2.963  50.795  1.00  0.00    -0.001 C 
HETATM   17  C16 UNL     1      26.565   3.944  49.744  1.00  0.00     0.195 C 
HETATM   18  O1  UNL     1      25.431   4.009  48.873  1.00  0.00    -0.384 OA
HETATM   19  C17 UNL     1      24.461   4.686  49.618  1.00  0.00     0.209 C 
HETATM   20  C18 UNL     1      23.166   4.905  49.007  1.00  0.00     0.121 C 
HETATM   21  C19 UNL     1      21.907   4.988  48.629  1.00  0.00     0.066 C 
HETATM   22  H10 UNL     1      19.918   0.849  51.957  1.00  0.00     0.315 HD
ENDROOT
BRANCH   5  23
HETATM   23  N1  UNL     1      18.638   3.100  51.480  1.00  0.00    -0.423 N 
HETATM   24  H6  UNL     1      17.637   2.871  51.296  1.00  0.00     0.150 HD
HETATM   25  H7  UNL     1      17.588   3.041  51.641  1.00  0.00     0.150 HD
ENDBRANCH   5  23
BRANCH  20  26
HETATM   26  O2  UNL     1      23.434   5.642  47.834  1.00  0.00    -0.384 OA
HETATM   27  H29 UNL     1      22.707   5.986  47.234  1.00  0.00     0.210 HD
ENDBRANCH  20  26
TORSDOF 2
ENDMDL
