MODEL 1
REMARK VINA RESULT:      -7.8      0.000      0.000
REMARK  7 active torsions:
REMARK  status: ('A' for Active; 'I' for Inactive)
REMARK    1  A    between atoms: C2_2  and  C3_3 
REMARK    2  A    between atoms: C3_3  and  N1_4 
REMARK    3  A    between atoms: C3_3  and  C4_5 
REMARK    4  A    between atoms: C4_5  and  N2_6 
REMARK    5  A    between atoms: C8_13  and  N6_14 
REMARK    6  A    between atoms: N6_14  and  C9_15 
REMARK    7  A    between atoms: C12_18  and  O1_19 
ROOT
HETATM    1  N2  UNL     1      26.410  -0.007  53.760  1.00  0.00    -0.383 N 
HETATM    2  C5  UNL     1      25.383  -0.635  54.556  1.00  0.00     0.105 C 
HETATM    3  C6  UNL     1      24.062  -0.498  54.386  1.00  0.00     0.136 C 
HETATM    4  N3  UNL     1      23.356   0.268  53.420  1.00  0.00    -0.239 N 
HETATM    5  N4  UNL     1      21.981   0.386  53.650  1.00  0.00    -0.161 NA
HETATM    6  C7  UNL     1      21.244   1.075  52.813  1.00  0.00     0.258 A 
HETATM    7  N5  UNL     1      21.816   1.707  51.675  1.00  0.00    -0.220 NA
HETATM    8  C8  UNL     1      23.098   1.630  51.411  1.00  0.00     0.158 A 
HETATM    9  C16 UNL     1      23.976   0.881  52.298  1.00  0.00     0.101 A 
HETATM   10  C17 UNL     1      25.214   0.935  51.838  1.00  0.00     0.028 C 
HETATM   11  C18 UNL     1      26.413   0.331  52.392  1.00  0.00     0.152 C 
ENDROOT
BRANCH   8  12
HETATM   12  N6  UNL     1      23.539   2.296  50.254  1.00  0.00    -0.339 N 
HETATM   13  H14 UNL     1      23.377   1.773  49.362  1.00  0.00     0.167 HD
BRANCH  12  14
HETATM   14  C9  UNL     1      24.153   3.576  50.261  1.00  0.00     0.035 A 
HETATM   15  C10 UNL     1      23.581   4.567  51.063  1.00  0.00     0.032 A 
HETATM   16  C11 UNL     1      24.081   5.848  51.148  1.00  0.00     0.041 A 
HETATM   17  C12 UNL     1      25.191   6.215  50.431  1.00  0.00     0.090 A 
HETATM   18  C14 UNL     1      25.783   5.256  49.624  1.00  0.00     0.069 A 
HETATM   19 CL1  UNL     1      27.220   5.578  48.638  1.00  0.00    -0.081 Cl
HETATM   20  C15 UNL     1      25.257   3.973  49.558  1.00  0.00     0.056 A 
BRANCH  17  21
HETATM   21  O1  UNL     1      25.839   7.439  50.382  1.00  0.00    -0.354 OA
HETATM   22  C13 UNL     1      25.164   8.579  49.891  1.00  0.00     0.210 C 
ENDBRANCH  17  21
ENDBRANCH  12  14
ENDBRANCH   8  12
BRANCH   1  23
HETATM   23  C4  UNL     1      27.623   0.310  54.538  1.00  0.00     0.157 C 
BRANCH  23  24
HETATM   24  C3  UNL     1      28.711   0.846  53.671  1.00  0.00     0.235 C 
BRANCH  24  25
HETATM   25  C2  UNL     1      29.889  -0.109  53.682  1.00  0.00     0.032 C 
HETATM   26  C1  UNL     1      29.509  -1.503  53.312  1.00  0.00     0.007 C 
ENDBRANCH  24  25
BRANCH  24  27
HETATM   27  N1  UNL     1      29.171   2.097  54.242  1.00  0.00     0.084 N 
HETATM   28  H7  UNL     1      28.744   2.891  53.715  1.00  0.00     0.313 HD
HETATM   29  H8  UNL     1      30.202   2.204  54.190  1.00  0.00     0.313 HD
ENDBRANCH  24  27
ENDBRANCH  23  24
ENDBRANCH   1  23
TORSDOF 7
ENDMDL
MODEL 2
REMARK VINA RESULT:      -7.5      1.876      2.192
REMARK  7 active torsions:
REMARK  status: ('A' for Active; 'I' for Inactive)
REMARK    1  A    between atoms: C2_2  and  C3_3 
REMARK    2  A    between atoms: C3_3  and  N1_4 
REMARK    3  A    between atoms: C3_3  and  C4_5 
REMARK    4  A    between atoms: C4_5  and  N2_6 
REMARK    5  A    between atoms: C8_13  and  N6_14 
REMARK    6  A    between atoms: N6_14  and  C9_15 
REMARK    7  A    between atoms: C12_18  and  O1_19 
ROOT
HETATM    1  N2  UNL     1      25.905  -0.191  54.304  1.00  0.00    -0.383 N 
HETATM    2  C5  UNL     1      25.250  -1.034  55.275  1.00  0.00     0.105 C 
HETATM    3  C6  UNL     1      23.941  -1.306  55.325  1.00  0.00     0.136 C 
HETATM    4  N3  UNL     1      22.897  -0.855  54.473  1.00  0.00    -0.239 N 
HETATM    5  N4  UNL     1      21.603  -1.132  54.926  1.00  0.00    -0.161 NA
HETATM    6  C7  UNL     1      20.574  -0.754  54.207  1.00  0.00     0.258 A 
HETATM    7  N5  UNL     1      20.747  -0.067  52.975  1.00  0.00    -0.220 NA
HETATM    8  C8  UNL     1      21.936   0.219  52.503  1.00  0.00     0.158 A 
HETATM    9  C16 UNL     1      23.125  -0.171  53.248  1.00  0.00     0.101 A 
HETATM   10  C17 UNL     1      24.203   0.213  52.587  1.00  0.00     0.028 C 
HETATM   11  C18 UNL     1      25.598   0.031  52.947  1.00  0.00     0.152 C 
ENDROOT
BRANCH   8  12
HETATM   12  N6  UNL     1      21.973   0.899  51.272  1.00  0.00    -0.339 N 
HETATM   13  H14 UNL     1      21.826   0.290  50.434  1.00  0.00     0.167 HD
BRANCH  12  14
HETATM   14  C9  UNL     1      22.186   2.297  51.145  1.00  0.00     0.035 A 
HETATM   15  C10 UNL     1      21.715   3.122  52.168  1.00  0.00     0.032 A 
HETATM   16  C11 UNL     1      21.856   4.493  52.155  1.00  0.00     0.041 A 
HETATM   17  C12 UNL     1      22.481   5.121  51.109  1.00  0.00     0.090 A 
HETATM   18  C14 UNL     1      22.961   4.332  50.076  1.00  0.00     0.069 A 
HETATM   19 CL1  UNL     1      23.791   4.997  48.658  1.00  0.00    -0.081 Cl
HETATM   20  C15 UNL     1      22.805   2.953  50.116  1.00  0.00     0.056 A 
BRANCH  17  21
HETATM   21  O1  UNL     1      22.719   6.473  50.913  1.00  0.00    -0.354 OA
HETATM   22  C13 UNL     1      21.649   7.343  50.604  1.00  0.00     0.210 C 
ENDBRANCH  17  21
ENDBRANCH  12  14
ENDBRANCH   8  12
BRANCH   1  23
HETATM   23  C4  UNL     1      27.068   0.525  54.861  1.00  0.00     0.157 C 
BRANCH  23  24
HETATM   24  C3  UNL     1      27.915   1.122  53.788  1.00  0.00     0.235 C 
BRANCH  24  25
HETATM   25  C2  UNL     1      29.329   0.583  53.896  1.00  0.00     0.032 C 
HETATM   26  C1  UNL     1      29.428  -0.861  53.535  1.00  0.00     0.007 C 
ENDBRANCH  24  25
BRANCH  24  27
HETATM   27  N1  UNL     1      27.987   2.553  54.009  1.00  0.00     0.084 N 
HETATM   28  H7  UNL     1      27.972   3.042  53.087  1.00  0.00     0.313 HD
HETATM   29  H8  UNL     1      28.855   2.837  54.502  1.00  0.00     0.313 HD
ENDBRANCH  24  27
ENDBRANCH  23  24
ENDBRANCH   1  23
TORSDOF 7
ENDMDL
MODEL 3
REMARK VINA RESULT:      -7.5      3.933      5.925
REMARK  7 active torsions:
REMARK  status: ('A' for Active; 'I' for Inactive)
REMARK    1  A    between atoms: C2_2  and  C3_3 
REMARK    2  A    between atoms: C3_3  and  N1_4 
REMARK    3  A    between atoms: C3_3  and  C4_5 
REMARK    4  A    between atoms: C4_5  and  N2_6 
REMARK    5  A    between atoms: C8_13  and  N6_14 
REMARK    6  A    between atoms: N6_14  and  C9_15 
REMARK    7  A    between atoms: C12_18  and  O1_19 
ROOT
HETATM    1  N2  UNL     1      26.651   2.003  53.123  1.00  0.00    -0.383 N 
HETATM    2  C5  UNL     1      27.199   2.418  51.854  1.00  0.00     0.105 C 
HETATM    3  C6  UNL     1      26.497   2.827  50.790  1.00  0.00     0.136 C 
HETATM    4  N3  UNL     1      25.090   2.953  50.638  1.00  0.00    -0.239 N 
HETATM    5  N4  UNL     1      24.656   3.187  49.328  1.00  0.00    -0.161 NA
HETATM    6  C7  UNL     1      23.374   3.317  49.088  1.00  0.00     0.258 A 
HETATM    7  N5  UNL     1      22.414   3.224  50.132  1.00  0.00    -0.220 NA
HETATM    8  C8  UNL     1      22.764   3.005  51.376  1.00  0.00     0.158 A 
HETATM    9  C16 UNL     1      24.171   2.851  51.717  1.00  0.00     0.101 A 
HETATM   10  C17 UNL     1      24.288   2.645  53.017  1.00  0.00     0.028 C 
HETATM   11  C18 UNL     1      25.497   2.446  53.797  1.00  0.00     0.152 C 
ENDROOT
BRANCH   8  12
HETATM   12  N6  UNL     1      21.720   2.937  52.317  1.00  0.00    -0.339 N 
HETATM   13  H14 UNL     1      21.545   3.828  52.838  1.00  0.00     0.167 HD
BRANCH  12  14
HETATM   14  C9  UNL     1      20.946   1.772  52.560  1.00  0.00     0.035 A 
HETATM   15  C10 UNL     1      19.682   1.698  51.970  1.00  0.00     0.032 A 
HETATM   16  C11 UNL     1      18.835   0.623  52.137  1.00  0.00     0.041 A 
HETATM   17  C12 UNL     1      19.208  -0.447  52.909  1.00  0.00     0.090 A 
HETATM   18  C14 UNL     1      20.457  -0.406  53.509  1.00  0.00     0.069 A 
HETATM   19 CL1  UNL     1      21.079  -1.711  54.533  1.00  0.00    -0.081 Cl
HETATM   20  C15 UNL     1      21.289   0.690  53.323  1.00  0.00     0.056 A 
BRANCH  17  21
HETATM   21  O1  UNL     1      18.508  -1.608  53.195  1.00  0.00    -0.354 OA
HETATM   22  C13 UNL     1      17.113  -1.667  52.977  1.00  0.00     0.210 C 
ENDBRANCH  17  21
ENDBRANCH  12  14
ENDBRANCH   8  12
BRANCH   1  23
HETATM   23  C4  UNL     1      27.457   0.954  53.777  1.00  0.00     0.157 C 
BRANCH  23  24
HETATM   24  C3  UNL     1      28.916   1.147  53.536  1.00  0.00     0.235 C 
BRANCH  24  25
HETATM   25  C2  UNL     1      29.648  -0.161  53.766  1.00  0.00     0.032 C 
HETATM   26  C1  UNL     1      28.907  -1.342  53.235  1.00  0.00     0.007 C 
ENDBRANCH  24  25
BRANCH  24  27
HETATM   27  N1  UNL     1      29.416   2.093  54.515  1.00  0.00     0.084 N 
HETATM   28  H7  UNL     1      28.615   2.643  54.898  1.00  0.00     0.313 HD
HETATM   29  H8  UNL     1      30.093   2.766  54.108  1.00  0.00     0.313 HD
ENDBRANCH  24  27
ENDBRANCH  23  24
ENDBRANCH   1  23
TORSDOF 7
ENDMDL
MODEL 4
REMARK VINA RESULT:      -7.4      2.537      3.006
REMARK  7 active torsions:
REMARK  status: ('A' for Active; 'I' for Inactive)
REMARK    1  A    between atoms: C2_2  and  C3_3 
REMARK    2  A    between atoms: C3_3  and  N1_4 
REMARK    3  A    between atoms: C3_3  and  C4_5 
REMARK    4  A    between atoms: C4_5  and  N2_6 
REMARK    5  A    between atoms: C8_13  and  N6_14 
REMARK    6  A    between atoms: N6_14  and  C9_15 
REMARK    7  A    between atoms: C12_18  and  O1_19 
ROOT
HETATM    1  N2  UNL     1      26.481   0.283  53.629  1.00  0.00    -0.383 N 
HETATM    2  C5  UNL     1      25.519  -0.666  54.136  1.00  0.00     0.105 C 
HETATM    3  C6  UNL     1      24.189  -0.586  54.002  1.00  0.00     0.136 C 
HETATM    4  N3  UNL     1      23.411   0.410  53.354  1.00  0.00    -0.239 N 
HETATM    5  N4  UNL     1      22.033   0.327  53.586  1.00  0.00    -0.161 NA
HETATM    6  C7  UNL     1      21.233   1.205  53.031  1.00  0.00     0.258 A 
HETATM    7  N5  UNL     1      21.736   2.241  52.198  1.00  0.00    -0.220 NA
HETATM    8  C8  UNL     1      23.017   2.366  51.947  1.00  0.00     0.158 A 
HETATM    9  C16 UNL     1      23.965   1.427  52.529  1.00  0.00     0.101 A 
HETATM   10  C17 UNL     1      25.188   1.740  52.140  1.00  0.00     0.028 C 
HETATM   11  C18 UNL     1      26.440   1.079  52.468  1.00  0.00     0.152 C 
ENDROOT
BRANCH   8  12
HETATM   12  N6  UNL     1      23.388   3.430  51.106  1.00  0.00    -0.339 N 
HETATM   13  H14 UNL     1      23.976   4.163  51.566  1.00  0.00     0.167 HD
BRANCH  12  14
HETATM   14  C9  UNL     1      23.016   3.528  49.739  1.00  0.00     0.035 A 
HETATM   15  C10 UNL     1      22.635   2.355  49.084  1.00  0.00     0.032 A 
HETATM   16  C11 UNL     1      22.259   2.322  47.758  1.00  0.00     0.041 A 
HETATM   17  C12 UNL     1      22.242   3.469  47.007  1.00  0.00     0.090 A 
HETATM   18  C14 UNL     1      22.615   4.652  47.627  1.00  0.00     0.069 A 
HETATM   19 CL1  UNL     1      22.644   6.213  46.789  1.00  0.00    -0.081 Cl
HETATM   20  C15 UNL     1      22.989   4.655  48.964  1.00  0.00     0.056 A 
BRANCH  17  21
HETATM   21  O1  UNL     1      21.899   3.641  45.675  1.00  0.00    -0.354 OA
HETATM   22  C13 UNL     1      20.543   3.788  45.306  1.00  0.00     0.210 C 
ENDBRANCH  17  21
ENDBRANCH  12  14
ENDBRANCH   8  12
BRANCH   1  23
HETATM   23  C4  UNL     1      27.673   0.404  54.490  1.00  0.00     0.157 C 
BRANCH  23  24
HETATM   24  C3  UNL     1      28.858   0.892  53.729  1.00  0.00     0.235 C 
BRANCH  24  25
HETATM   25  C2  UNL     1      29.923  -0.187  53.696  1.00  0.00     0.032 C 
HETATM   26  C1  UNL     1      29.384  -1.523  53.310  1.00  0.00     0.007 C 
ENDBRANCH  24  25
BRANCH  24  27
HETATM   27  N1  UNL     1      29.419   2.024  54.440  1.00  0.00     0.084 N 
HETATM   28  H7  UNL     1      28.772   2.839  54.350  1.00  0.00     0.313 HD
HETATM   29  H8  UNL     1      30.342   2.313  54.064  1.00  0.00     0.313 HD
ENDBRANCH  24  27
ENDBRANCH  23  24
ENDBRANCH   1  23
TORSDOF 7
ENDMDL
MODEL 5
REMARK VINA RESULT:      -7.4      3.949      5.991
REMARK  7 active torsions:
REMARK  status: ('A' for Active; 'I' for Inactive)
REMARK    1  A    between atoms: C2_2  and  C3_3 
REMARK    2  A    between atoms: C3_3  and  N1_4 
REMARK    3  A    between atoms: C3_3  and  C4_5 
REMARK    4  A    between atoms: C4_5  and  N2_6 
REMARK    5  A    between atoms: C8_13  and  N6_14 
REMARK    6  A    between atoms: N6_14  and  C9_15 
REMARK    7  A    between atoms: C12_18  and  O1_19 
ROOT
HETATM    1  N2  UNL     1      26.612   1.942  53.078  1.00  0.00    -0.383 N 
HETATM    2  C5  UNL     1      27.126   2.382  51.803  1.00  0.00     0.105 C 
HETATM    3  C6  UNL     1      26.396   2.787  50.757  1.00  0.00     0.136 C 
HETATM    4  N3  UNL     1      24.984   2.885  50.633  1.00  0.00    -0.239 N 
HETATM    5  N4  UNL     1      24.521   3.123  49.334  1.00  0.00    -0.161 NA
HETATM    6  C7  UNL     1      23.232   3.229  49.119  1.00  0.00     0.258 A 
HETATM    7  N5  UNL     1      22.294   3.104  50.180  1.00  0.00    -0.220 NA
HETATM    8  C8  UNL     1      22.672   2.881  51.415  1.00  0.00     0.158 A 
HETATM    9  C16 UNL     1      24.088   2.753  51.728  1.00  0.00     0.101 A 
HETATM   10  C17 UNL     1      24.234   2.536  53.023  1.00  0.00     0.028 C 
HETATM   11  C18 UNL     1      25.461   2.353  53.778  1.00  0.00     0.152 C 
ENDROOT
BRANCH   8  12
HETATM   12  N6  UNL     1      21.648   2.781  52.374  1.00  0.00    -0.339 N 
HETATM   13  H14 UNL     1      21.626   3.562  53.070  1.00  0.00     0.167 HD
BRANCH  12  14
HETATM   14  C9  UNL     1      20.703   1.722  52.419  1.00  0.00     0.035 A 
HETATM   15  C10 UNL     1      20.818   0.792  53.455  1.00  0.00     0.032 A 
HETATM   16  C11 UNL     1      19.967  -0.281  53.601  1.00  0.00     0.041 A 
HETATM   17  C12 UNL     1      18.943  -0.488  52.712  1.00  0.00     0.090 A 
HETATM   18  C14 UNL     1      18.800   0.416  51.671  1.00  0.00     0.069 A 
HETATM   19 CL1  UNL     1      17.528   0.283  50.444  1.00  0.00    -0.081 Cl
HETATM   20  C15 UNL     1      19.674   1.489  51.549  1.00  0.00     0.056 A 
BRANCH  17  21
HETATM   21  O1  UNL     1      17.992  -1.496  52.687  1.00  0.00    -0.354 OA
HETATM   22  C13 UNL     1      17.957  -2.463  53.717  1.00  0.00     0.210 C 
ENDBRANCH  17  21
ENDBRANCH  12  14
ENDBRANCH   8  12
BRANCH   1  23
HETATM   23  C4  UNL     1      27.451   0.904  53.706  1.00  0.00     0.157 C 
BRANCH  23  24
HETATM   24  C3  UNL     1      28.903   1.228  53.600  1.00  0.00     0.235 C 
BRANCH  24  25
HETATM   25  C2  UNL     1      29.715  -0.052  53.632  1.00  0.00     0.032 C 
HETATM   26  C1  UNL     1      28.912  -1.258  53.276  1.00  0.00     0.007 C 
ENDBRANCH  24  25
BRANCH  24  27
HETATM   27  N1  UNL     1      29.281   2.002  54.767  1.00  0.00     0.084 N 
HETATM   28  H7  UNL     1      30.292   1.839  54.972  1.00  0.00     0.313 HD
HETATM   29  H8  UNL     1      28.742   1.735  55.613  1.00  0.00     0.313 HD
ENDBRANCH  24  27
ENDBRANCH  23  24
ENDBRANCH   1  23
TORSDOF 7
ENDMDL
MODEL 6
REMARK VINA RESULT:      -7.3      3.034      6.620
REMARK  7 active torsions:
REMARK  status: ('A' for Active; 'I' for Inactive)
REMARK    1  A    between atoms: C2_2  and  C3_3 
REMARK    2  A    between atoms: C3_3  and  N1_4 
REMARK    3  A    between atoms: C3_3  and  C4_5 
REMARK    4  A    between atoms: C4_5  and  N2_6 
REMARK    5  A    between atoms: C8_13  and  N6_14 
REMARK    6  A    between atoms: N6_14  and  C9_15 
REMARK    7  A    between atoms: C12_18  and  O1_19 
ROOT
HETATM    1  N2  UNL     1      24.222   6.193  49.830  1.00  0.00    -0.383 N 
HETATM    2  C5  UNL     1      23.436   5.847  48.670  1.00  0.00     0.105 C 
HETATM    3  C6  UNL     1      22.778   4.698  48.480  1.00  0.00     0.136 C 
HETATM    4  N3  UNL     1      22.684   3.565  49.333  1.00  0.00    -0.239 N 
HETATM    5  N4  UNL     1      22.110   2.431  48.747  1.00  0.00    -0.161 NA
HETATM    6  C7  UNL     1      21.982   1.335  49.457  1.00  0.00     0.258 A 
HETATM    7  N5  UNL     1      22.416   1.276  50.809  1.00  0.00    -0.220 NA
HETATM    8  C8  UNL     1      22.960   2.308  51.407  1.00  0.00     0.158 A 
HETATM    9  C16 UNL     1      23.134   3.558  50.681  1.00  0.00     0.101 A 
HETATM   10  C17 UNL     1      23.695   4.453  51.475  1.00  0.00     0.028 C 
HETATM   11  C18 UNL     1      24.047   5.831  51.180  1.00  0.00     0.152 C 
ENDROOT
BRANCH   8  12
HETATM   12  N6  UNL     1      23.345   2.123  52.747  1.00  0.00    -0.339 N 
HETATM   13  H14 UNL     1      22.654   2.474  53.450  1.00  0.00     0.167 HD
BRANCH  12  14
HETATM   14  C9  UNL     1      24.561   1.509  53.146  1.00  0.00     0.035 A 
HETATM   15  C10 UNL     1      24.527   0.152  53.476  1.00  0.00     0.032 A 
HETATM   16  C11 UNL     1      25.639  -0.552  53.883  1.00  0.00     0.041 A 
HETATM   17  C12 UNL     1      26.859   0.065  53.984  1.00  0.00     0.090 A 
HETATM   18  C14 UNL     1      26.929   1.412  53.664  1.00  0.00     0.069 A 
HETATM   19 CL1  UNL     1      28.433   2.346  53.745  1.00  0.00    -0.081 Cl
HETATM   20  C15 UNL     1      25.792   2.096  53.256  1.00  0.00     0.056 A 
BRANCH  17  21
HETATM   21  O1  UNL     1      28.081  -0.464  54.370  1.00  0.00    -0.354 OA
HETATM   22  C13 UNL     1      28.905  -1.110  53.421  1.00  0.00     0.210 C 
ENDBRANCH  17  21
ENDBRANCH  12  14
ENDBRANCH   8  12
BRANCH   1  23
HETATM   23  C4  UNL     1      25.371   7.058  49.505  1.00  0.00     0.157 C 
BRANCH  23  24
HETATM   24  C3  UNL     1      26.037   6.641  48.238  1.00  0.00     0.235 C 
BRANCH  24  25
HETATM   25  C2  UNL     1      27.351   5.954  48.555  1.00  0.00     0.032 C 
HETATM   26  C1  UNL     1      27.181   4.523  48.939  1.00  0.00     0.007 C 
ENDBRANCH  24  25
BRANCH  24  27
HETATM   27  N1  UNL     1      26.352   7.834  47.476  1.00  0.00     0.084 N 
HETATM   28  H7  UNL     1      25.848   7.798  46.562  1.00  0.00     0.313 HD
HETATM   29  H8  UNL     1      27.366   7.920  47.273  1.00  0.00     0.313 HD
ENDBRANCH  24  27
ENDBRANCH  23  24
ENDBRANCH   1  23
TORSDOF 7
ENDMDL
MODEL 7
REMARK VINA RESULT:      -7.1      3.858      5.482
REMARK  7 active torsions:
REMARK  status: ('A' for Active; 'I' for Inactive)
REMARK    1  A    between atoms: C2_2  and  C3_3 
REMARK    2  A    between atoms: C3_3  and  N1_4 
REMARK    3  A    between atoms: C3_3  and  C4_5 
REMARK    4  A    between atoms: C4_5  and  N2_6 
REMARK    5  A    between atoms: C8_13  and  N6_14 
REMARK    6  A    between atoms: N6_14  and  C9_15 
REMARK    7  A    between atoms: C12_18  and  O1_19 
ROOT
HETATM    1  N2  UNL     1      25.888   2.529  51.254  1.00  0.00    -0.383 N 
HETATM    2  C5  UNL     1      24.681   3.023  51.871  1.00  0.00     0.105 C 
HETATM    3  C6  UNL     1      24.139   4.232  51.681  1.00  0.00     0.136 C 
HETATM    4  N3  UNL     1      24.590   5.299  50.859  1.00  0.00    -0.239 N 
HETATM    5  N4  UNL     1      23.928   6.516  51.055  1.00  0.00    -0.161 NA
HETATM    6  C7  UNL     1      24.276   7.560  50.342  1.00  0.00     0.258 A 
HETATM    7  N5  UNL     1      25.314   7.481  49.374  1.00  0.00    -0.220 NA
HETATM    8  C8  UNL     1      25.967   6.367  49.150  1.00  0.00     0.158 A 
HETATM    9  C16 UNL     1      25.634   5.167  49.904  1.00  0.00     0.101 A 
HETATM   10  C17 UNL     1      26.411   4.172  49.512  1.00  0.00     0.028 C 
HETATM   11  C18 UNL     1      26.429   2.798  49.982  1.00  0.00     0.152 C 
ENDROOT
BRANCH   8  12
HETATM   12  N6  UNL     1      26.970   6.417  48.165  1.00  0.00    -0.339 N 
HETATM   13  H14 UNL     1      26.661   6.109  47.213  1.00  0.00     0.167 HD
BRANCH  12  14
HETATM   14  C9  UNL     1      28.300   6.851  48.407  1.00  0.00     0.035 A 
HETATM   15  C10 UNL     1      29.319   5.901  48.315  1.00  0.00     0.032 A 
HETATM   16  C11 UNL     1      30.647   6.198  48.534  1.00  0.00     0.041 A 
HETATM   17  C12 UNL     1      31.034   7.472  48.862  1.00  0.00     0.090 A 
HETATM   18  C14 UNL     1      30.046   8.440  48.962  1.00  0.00     0.069 A 
HETATM   19 CL1  UNL     1      30.389  10.128  49.377  1.00  0.00    -0.081 Cl
HETATM   20  C15 UNL     1      28.717   8.111  48.736  1.00  0.00     0.056 A 
BRANCH  17  21
HETATM   21  O1  UNL     1      32.303   7.965  49.118  1.00  0.00    -0.354 OA
HETATM   22  C13 UNL     1      33.313   7.867  48.134  1.00  0.00     0.210 C 
ENDBRANCH  17  21
ENDBRANCH  12  14
ENDBRANCH   8  12
BRANCH   1  23
HETATM   23  C4  UNL     1      26.638   1.603  52.126  1.00  0.00     0.157 C 
BRANCH  23  24
HETATM   24  C3  UNL     1      26.992   2.236  53.429  1.00  0.00     0.235 C 
BRANCH  24  25
HETATM   25  C2  UNL     1      28.497   2.393  53.526  1.00  0.00     0.032 C 
HETATM   26  C1  UNL     1      29.158   1.247  54.214  1.00  0.00     0.007 C 
ENDBRANCH  24  25
BRANCH  24  27
HETATM   27  N1  UNL     1      26.587   1.339  54.493  1.00  0.00     0.084 N 
HETATM   28  H7  UNL     1      27.192   1.505  55.328  1.00  0.00     0.313 HD
HETATM   29  H8  UNL     1      26.683   0.340  54.230  1.00  0.00     0.313 HD
ENDBRANCH  24  27
ENDBRANCH  23  24
ENDBRANCH   1  23
TORSDOF 7
ENDMDL
MODEL 8
REMARK VINA RESULT:      -7.1      1.864      2.537
REMARK  7 active torsions:
REMARK  status: ('A' for Active; 'I' for Inactive)
REMARK    1  A    between atoms: C2_2  and  C3_3 
REMARK    2  A    between atoms: C3_3  and  N1_4 
REMARK    3  A    between atoms: C3_3  and  C4_5 
REMARK    4  A    between atoms: C4_5  and  N2_6 
REMARK    5  A    between atoms: C8_13  and  N6_14 
REMARK    6  A    between atoms: N6_14  and  C9_15 
REMARK    7  A    between atoms: C12_18  and  O1_19 
ROOT
HETATM    1  N2  UNL     1      24.992   0.820  53.105  1.00  0.00    -0.383 N 
HETATM    2  C5  UNL     1      23.738   0.202  52.745  1.00  0.00     0.105 C 
HETATM    3  C6  UNL     1      22.615   0.844  52.402  1.00  0.00     0.136 C 
HETATM    4  N3  UNL     1      22.372   2.241  52.308  1.00  0.00    -0.239 N 
HETATM    5  N4  UNL     1      21.029   2.597  52.147  1.00  0.00    -0.161 NA
HETATM    6  C7  UNL     1      20.706   3.865  52.051  1.00  0.00     0.258 A 
HETATM    7  N5  UNL     1      21.695   4.885  52.108  1.00  0.00    -0.220 NA
HETATM    8  C8  UNL     1      22.967   4.608  52.258  1.00  0.00     0.158 A 
HETATM    9  C16 UNL     1      23.399   3.222  52.371  1.00  0.00     0.101 A 
HETATM   10  C17 UNL     1      24.712   3.181  52.509  1.00  0.00     0.028 C 
HETATM   11  C18 UNL     1      25.573   2.019  52.649  1.00  0.00     0.152 C 
ENDROOT
BRANCH   8  12
HETATM   12  N6  UNL     1      23.845   5.706  52.297  1.00  0.00    -0.339 N 
HETATM   13  H14 UNL     1      24.193   5.951  53.253  1.00  0.00     0.167 HD
BRANCH  12  14
HETATM   14  C9  UNL     1      24.250   6.439  51.151  1.00  0.00     0.035 A 
HETATM   15  C10 UNL     1      23.521   7.584  50.821  1.00  0.00     0.032 A 
HETATM   16  C11 UNL     1      23.813   8.374  49.730  1.00  0.00     0.041 A 
HETATM   17  C12 UNL     1      24.859   8.061  48.900  1.00  0.00     0.090 A 
HETATM   18  C14 UNL     1      25.603   6.930  49.198  1.00  0.00     0.069 A 
HETATM   19 CL1  UNL     1      26.983   6.398  48.221  1.00  0.00    -0.081 Cl
HETATM   20  C15 UNL     1      25.286   6.153  50.304  1.00  0.00     0.056 A 
BRANCH  17  21
HETATM   21  O1  UNL     1      25.307   8.721  47.766  1.00  0.00    -0.354 OA
HETATM   22  C13 UNL     1      26.006   9.943  47.888  1.00  0.00     0.210 C 
ENDBRANCH  17  21
ENDBRANCH  12  14
ENDBRANCH   8  12
BRANCH   1  23
HETATM   23  C4  UNL     1      25.746   0.041  54.106  1.00  0.00     0.157 C 
BRANCH  23  24
HETATM   24  C3  UNL     1      27.219   0.190  53.926  1.00  0.00     0.235 C 
BRANCH  24  25
HETATM   25  C2  UNL     1      27.755  -0.979  53.122  1.00  0.00     0.032 C 
HETATM   26  C1  UNL     1      29.197  -1.252  53.385  1.00  0.00     0.007 C 
ENDBRANCH  24  25
BRANCH  24  27
HETATM   27  N1  UNL     1      27.843   0.130  55.234  1.00  0.00     0.084 N 
HETATM   28  H7  UNL     1      27.491  -0.711  55.742  1.00  0.00     0.313 HD
HETATM   29  H8  UNL     1      27.629   0.962  55.816  1.00  0.00     0.313 HD
ENDBRANCH  24  27
ENDBRANCH  23  24
ENDBRANCH   1  23
TORSDOF 7
ENDMDL
MODEL 9
REMARK VINA RESULT:      -7.0      6.118      9.337
REMARK  7 active torsions:
REMARK  status: ('A' for Active; 'I' for Inactive)
REMARK    1  A    between atoms: C2_2  and  C3_3 
REMARK    2  A    between atoms: C3_3  and  N1_4 
REMARK    3  A    between atoms: C3_3  and  C4_5 
REMARK    4  A    between atoms: C4_5  and  N2_6 
REMARK    5  A    between atoms: C8_13  and  N6_14 
REMARK    6  A    between atoms: N6_14  and  C9_15 
REMARK    7  A    between atoms: C12_18  and  O1_19 
ROOT
HETATM    1  N2  UNL     1      25.138   6.536  48.580  1.00  0.00    -0.383 N 
HETATM    2  C5  UNL     1      25.023   7.589  47.600  1.00  0.00     0.105 C 
HETATM    3  C6  UNL     1      26.034   8.305  47.092  1.00  0.00     0.136 C 
HETATM    4  N3  UNL     1      27.424   8.219  47.371  1.00  0.00    -0.239 N 
HETATM    5  N4  UNL     1      28.198   9.261  46.847  1.00  0.00    -0.161 NA
HETATM    6  C7  UNL     1      29.493   9.268  47.054  1.00  0.00     0.258 A 
HETATM    7  N5  UNL     1      30.127   8.238  47.801  1.00  0.00    -0.220 NA
HETATM    8  C8  UNL     1      29.451   7.240  48.315  1.00  0.00     0.158 A 
HETATM    9  C16 UNL     1      28.010   7.165  48.125  1.00  0.00     0.101 A 
HETATM   10  C17 UNL     1      27.543   6.082  48.721  1.00  0.00     0.028 C 
HETATM   11  C18 UNL     1      26.174   5.604  48.787  1.00  0.00     0.152 C 
ENDROOT
BRANCH   8  12
HETATM   12  N6  UNL     1      30.195   6.284  49.030  1.00  0.00    -0.339 N 
HETATM   13  H14 UNL     1      29.811   6.052  49.976  1.00  0.00     0.167 HD
BRANCH  12  14
HETATM   14  C9  UNL     1      31.373   5.664  48.537  1.00  0.00     0.035 A 
HETATM   15  C10 UNL     1      31.230   4.712  47.524  1.00  0.00     0.032 A 
HETATM   16  C11 UNL     1      32.297   4.038  46.970  1.00  0.00     0.041 A 
HETATM   17  C12 UNL     1      33.576   4.278  47.400  1.00  0.00     0.090 A 
HETATM   18  C14 UNL     1      33.754   5.217  48.405  1.00  0.00     0.069 A 
HETATM   19 CL1  UNL     1      35.344   5.635  49.065  1.00  0.00    -0.081 Cl
HETATM   20  C15 UNL     1      32.661   5.881  48.945  1.00  0.00     0.056 A 
BRANCH  17  21
HETATM   21  O1  UNL     1      34.767   3.710  46.974  1.00  0.00    -0.354 OA
HETATM   22  C13 UNL     1      35.099   3.708  45.600  1.00  0.00     0.210 C 
ENDBRANCH  17  21
ENDBRANCH  12  14
ENDBRANCH   8  12
BRANCH   1  23
HETATM   23  C4  UNL     1      23.971   6.461  49.479  1.00  0.00     0.157 C 
BRANCH  23  24
HETATM   24  C3  UNL     1      24.340   5.925  50.821  1.00  0.00     0.235 C 
BRANCH  24  25
HETATM   25  C2  UNL     1      23.192   5.103  51.374  1.00  0.00     0.032 C 
HETATM   26  C1  UNL     1      23.476   4.548  52.729  1.00  0.00     0.007 C 
ENDBRANCH  24  25
BRANCH  24  27
HETATM   27  N1  UNL     1      24.534   7.047  51.719  1.00  0.00     0.084 N 
HETATM   28  H7  UNL     1      25.164   6.754  52.499  1.00  0.00     0.313 HD
HETATM   29  H8  UNL     1      23.645   7.377  52.141  1.00  0.00     0.313 HD
ENDBRANCH  24  27
ENDBRANCH  23  24
ENDBRANCH   1  23
TORSDOF 7
ENDMDL
