MODEL 1
REMARK VINA RESULT:      -8.4      0.000      0.000
REMARK  6 active torsions:
REMARK  status: ('A' for Active; 'I' for Inactive)
REMARK    1  A    between atoms: N1_2  and  C2_3 
REMARK    2  A    between atoms: C2_3  and  C3_4 
REMARK    3  A    between atoms: C4_6  and  O2_7 
REMARK    4  A    between atoms: C9_14  and  N4_15 
REMARK    5  A    between atoms: N4_15  and  C10_16 
REMARK    6  A    between atoms: C18_26  and  O3_27 
ROOT
HETATM    1  C3  UNL     1      20.675   0.618  50.776  1.00  0.00     0.215 C 
HETATM    2  O1  UNL     1      19.646   0.457  51.717  1.00  0.00    -0.317 OA
HETATM    3  C4  UNL     1      19.355  -0.320  52.836  1.00  0.00     0.182 C 
HETATM    4  C6  UNL     1      20.099  -0.822  53.804  1.00  0.00     0.096 C 
HETATM    5  C7  UNL     1      21.561  -0.704  54.004  1.00  0.00     0.076 A 
HETATM    6  N2  UNL     1      21.926  -1.571  54.962  1.00  0.00    -0.241 NA
HETATM    7  C8  UNL     1      23.209  -1.668  55.345  1.00  0.00     0.236 A 
HETATM    8  N3  UNL     1      24.167  -0.913  54.791  1.00  0.00    -0.224 NA
HETATM    9  C9  UNL     1      23.904  -0.037  53.847  1.00  0.00     0.142 A 
HETATM   10  C16 UNL     1      22.589   0.069  53.448  1.00  0.00     0.041 A 
HETATM   11  C17 UNL     1      22.531   1.118  52.403  1.00  0.00     0.052 C 
HETATM   12  C18 UNL     1      21.827   1.430  51.318  1.00  0.00     0.078 C 
ENDROOT
BRANCH   9  13
HETATM   13  N4  UNL     1      24.922   0.758  53.261  1.00  0.00    -0.340 N 
HETATM   14  H13 UNL     1      25.102   1.622  52.731  1.00  0.00     0.167 HD
BRANCH  13  15
HETATM   15  C10 UNL     1      26.279   0.335  53.318  1.00  0.00     0.035 A 
HETATM   16  C11 UNL     1      26.892  -0.851  52.948  1.00  0.00     0.032 A 
HETATM   17  C12 UNL     1      28.222  -1.160  53.070  1.00  0.00     0.046 A 
HETATM   18  C13 UNL     1      29.036  -0.202  53.610  1.00  0.00     0.138 A 
HETATM   19  F1  UNL     1      30.348  -0.532  53.718  1.00  0.00    -0.204 F 
HETATM   20  C14 UNL     1      28.485   1.016  54.005  1.00  0.00     0.074 A 
HETATM   21 CL1  UNL     1      29.690   2.110  54.674  1.00  0.00    -0.081 Cl
HETATM   22  C15 UNL     1      27.144   1.287  53.867  1.00  0.00     0.056 A 
ENDBRANCH  13  15
ENDBRANCH   9  13
BRANCH  12  23
HETATM   23  O3  UNL     1      22.391   2.607  50.856  1.00  0.00    -0.357 OA
HETATM   24  C19 UNL     1      23.749   2.827  50.583  1.00  0.00     0.209 C 
ENDBRANCH  12  23
BRANCH   3  25
HETATM   25  O2  UNL     1      18.034  -0.675  53.041  1.00  0.00    -0.336 OA
HETATM   26  C5  UNL     1      17.690  -1.978  53.406  1.00  0.00     0.212 C 
ENDBRANCH   3  25
BRANCH   1  27
HETATM   27  C2  UNL     1      20.079   1.309  49.574  1.00  0.00     0.308 C 
BRANCH  27  28
HETATM   28  N1  UNL     1      21.082   1.257  48.527  1.00  0.00     0.082 N 
HETATM   29  C1  UNL     1      21.086   2.438  47.689  1.00  0.00     0.306 C 
HETATM   30  H4  UNL     1      21.111   0.368  48.024  1.00  0.00     0.315 HD
ENDBRANCH  27  28
ENDBRANCH   1  27
TORSDOF 6
ENDMDL
MODEL 2
REMARK VINA RESULT:      -8.2      1.999      4.155
REMARK  6 active torsions:
REMARK  status: ('A' for Active; 'I' for Inactive)
REMARK    1  A    between atoms: N1_2  and  C2_3 
REMARK    2  A    between atoms: C2_3  and  C3_4 
REMARK    3  A    between atoms: C4_6  and  O2_7 
REMARK    4  A    between atoms: C9_14  and  N4_15 
REMARK    5  A    between atoms: N4_15  and  C10_16 
REMARK    6  A    between atoms: C18_26  and  O3_27 
ROOT
HETATM    1  C3  UNL     1      20.747   0.315  52.859  1.00  0.00     0.215 C 
HETATM    2  O1  UNL     1      20.548   0.319  51.469  1.00  0.00    -0.317 OA
HETATM    3  C4  UNL     1      20.917   1.070  50.356  1.00  0.00     0.182 C 
HETATM    4  C6  UNL     1      22.011   1.736  50.039  1.00  0.00     0.096 C 
HETATM    5  C7  UNL     1      23.257   1.897  50.823  1.00  0.00     0.076 A 
HETATM    6  N2  UNL     1      24.001   2.851  50.240  1.00  0.00    -0.241 NA
HETATM    7  C8  UNL     1      25.194   3.197  50.751  1.00  0.00     0.236 A 
HETATM    8  N3  UNL     1      25.684   2.610  51.851  1.00  0.00    -0.224 NA
HETATM    9  C9  UNL     1      25.027   1.667  52.488  1.00  0.00     0.142 A 
HETATM   10  C16 UNL     1      23.801   1.306  51.971  1.00  0.00     0.041 A 
HETATM   11  C17 UNL     1      23.264   0.226  52.830  1.00  0.00     0.052 C 
HETATM   12  C18 UNL     1      22.093  -0.250  53.246  1.00  0.00     0.078 C 
ENDROOT
BRANCH   9  13
HETATM   13  N4  UNL     1      25.549   1.051  53.655  1.00  0.00    -0.340 N 
HETATM   14  H13 UNL     1      25.313   0.738  54.607  1.00  0.00     0.167 HD
BRANCH  13  15
HETATM   15  C10 UNL     1      26.919   0.672  53.709  1.00  0.00     0.035 A 
HETATM   16  C11 UNL     1      28.066   1.396  53.989  1.00  0.00     0.032 A 
HETATM   17  C12 UNL     1      29.353   0.925  53.992  1.00  0.00     0.046 A 
HETATM   18  C13 UNL     1      29.532  -0.397  53.688  1.00  0.00     0.138 A 
HETATM   19  F1  UNL     1      30.815  -0.838  53.699  1.00  0.00    -0.204 F 
HETATM   20  C14 UNL     1      28.420  -1.185  53.394  1.00  0.00     0.074 A 
HETATM   21 CL1  UNL     1      28.857  -2.850  53.030  1.00  0.00    -0.081 Cl
HETATM   22  C15 UNL     1      27.144  -0.674  53.402  1.00  0.00     0.056 A 
ENDBRANCH  13  15
ENDBRANCH   9  13
BRANCH  12  23
HETATM   23  O3  UNL     1      22.415  -1.321  54.063  1.00  0.00    -0.357 OA
HETATM   24  C19 UNL     1      23.042  -1.250  55.316  1.00  0.00     0.209 C 
ENDBRANCH  12  23
BRANCH   3  25
HETATM   25  O2  UNL     1      19.997   1.184  49.329  1.00  0.00    -0.336 OA
HETATM   26  C5  UNL     1      19.911   2.351  48.570  1.00  0.00     0.212 C 
ENDBRANCH   3  25
BRANCH   1  27
HETATM   27  C2  UNL     1      19.644  -0.519  53.467  1.00  0.00     0.308 C 
BRANCH  27  28
HETATM   28  N1  UNL     1      18.568  -0.554  52.494  1.00  0.00     0.082 N 
HETATM   29  C1  UNL     1      17.376  -1.206  52.995  1.00  0.00     0.306 C 
HETATM   30  H4  UNL     1      18.863  -0.845  51.560  1.00  0.00     0.315 HD
ENDBRANCH  27  28
ENDBRANCH   1  27
TORSDOF 6
ENDMDL
MODEL 3
REMARK VINA RESULT:      -8.1      4.339      7.228
REMARK  6 active torsions:
REMARK  status: ('A' for Active; 'I' for Inactive)
REMARK    1  A    between atoms: N1_2  and  C2_3 
REMARK    2  A    between atoms: C2_3  and  C3_4 
REMARK    3  A    between atoms: C4_6  and  O2_7 
REMARK    4  A    between atoms: C9_14  and  N4_15 
REMARK    5  A    between atoms: N4_15  and  C10_16 
REMARK    6  A    between atoms: C18_26  and  O3_27 
ROOT
HETATM    1  C3  UNL     1      25.714   2.116  51.772  1.00  0.00     0.215 C 
HETATM    2  O1  UNL     1      26.496   0.954  51.859  1.00  0.00    -0.317 OA
HETATM    3  C4  UNL     1      26.722  -0.099  52.742  1.00  0.00     0.182 C 
HETATM    4  C6  UNL     1      25.943  -0.754  53.583  1.00  0.00     0.096 C 
HETATM    5  C7  UNL     1      24.503  -0.553  53.859  1.00  0.00     0.076 A 
HETATM    6  N2  UNL     1      24.182  -1.261  54.954  1.00  0.00    -0.241 NA
HETATM    7  C8  UNL     1      22.925  -1.258  55.427  1.00  0.00     0.236 A 
HETATM    8  N3  UNL     1      21.951  -0.557  54.831  1.00  0.00    -0.224 NA
HETATM    9  C9  UNL     1      22.172   0.164  53.754  1.00  0.00     0.142 A 
HETATM   10  C16 UNL     1      23.460   0.167  53.262  1.00  0.00     0.041 A 
HETATM   11  C17 UNL     1      23.464   1.019  52.050  1.00  0.00     0.052 C 
HETATM   12  C18 UNL     1      24.286   1.820  51.378  1.00  0.00     0.078 C 
ENDROOT
BRANCH   9  13
HETATM   13  N4  UNL     1      21.139   0.908  53.128  1.00  0.00    -0.340 N 
HETATM   14  H13 UNL     1      20.878   1.841  52.782  1.00  0.00     0.167 HD
BRANCH  13  15
HETATM   15  C10 UNL     1      19.905   0.278  52.800  1.00  0.00     0.035 A 
HETATM   16  C11 UNL     1      19.196  -0.738  53.418  1.00  0.00     0.032 A 
HETATM   17  C12 UNL     1      18.012  -1.286  52.995  1.00  0.00     0.046 A 
HETATM   18  C13 UNL     1      17.469  -0.782  51.845  1.00  0.00     0.138 A 
HETATM   19  F1  UNL     1      16.297  -1.341  51.450  1.00  0.00    -0.204 F 
HETATM   20  C14 UNL     1      18.132   0.243  51.171  1.00  0.00     0.074 A 
HETATM   21 CL1  UNL     1      17.276   0.751  49.720  1.00  0.00    -0.081 Cl
HETATM   22  C15 UNL     1      19.318   0.765  51.628  1.00  0.00     0.056 A 
ENDBRANCH  13  15
ENDBRANCH   9  13
BRANCH  12  23
HETATM   23  O3  UNL     1      23.539   2.273  50.303  1.00  0.00    -0.357 OA
HETATM   24  C19 UNL     1      22.367   1.689  49.801  1.00  0.00     0.209 C 
ENDBRANCH  12  23
BRANCH   3  25
HETATM   25  O2  UNL     1      28.002  -0.617  52.804  1.00  0.00    -0.336 OA
HETATM   26  C5  UNL     1      28.879  -0.245  53.824  1.00  0.00     0.212 C 
ENDBRANCH   3  25
BRANCH   1  27
HETATM   27  C2  UNL     1      26.357   3.013  50.741  1.00  0.00     0.308 C 
BRANCH  27  28
HETATM   28  N1  UNL     1      25.697   4.301  50.843  1.00  0.00     0.082 N 
HETATM   29  C1  UNL     1      25.791   5.081  49.627  1.00  0.00     0.306 C 
HETATM   30  H4  UNL     1      25.910   4.809  51.704  1.00  0.00     0.315 HD
ENDBRANCH  27  28
ENDBRANCH   1  27
TORSDOF 6
ENDMDL
MODEL 4
REMARK VINA RESULT:      -7.6      4.233      6.635
REMARK  6 active torsions:
REMARK  status: ('A' for Active; 'I' for Inactive)
REMARK    1  A    between atoms: N1_2  and  C2_3 
REMARK    2  A    between atoms: C2_3  and  C3_4 
REMARK    3  A    between atoms: C4_6  and  O2_7 
REMARK    4  A    between atoms: C9_14  and  N4_15 
REMARK    5  A    between atoms: N4_15  and  C10_16 
REMARK    6  A    between atoms: C18_26  and  O3_27 
ROOT
HETATM    1  C3  UNL     1      25.076   0.568  53.896  1.00  0.00     0.215 C 
HETATM    2  O1  UNL     1      24.102  -0.330  53.433  1.00  0.00    -0.317 OA
HETATM    3  C4  UNL     1      22.723  -0.384  53.248  1.00  0.00     0.182 C 
HETATM    4  C6  UNL     1      21.823   0.519  52.904  1.00  0.00     0.096 C 
HETATM    5  C7  UNL     1      22.022   1.952  52.591  1.00  0.00     0.076 A 
HETATM    6  N2  UNL     1      20.816   2.543  52.542  1.00  0.00    -0.241 NA
HETATM    7  C8  UNL     1      20.707   3.853  52.270  1.00  0.00     0.236 A 
HETATM    8  N3  UNL     1      21.785   4.616  52.042  1.00  0.00    -0.224 NA
HETATM    9  C9  UNL     1      23.004   4.125  52.070  1.00  0.00     0.142 A 
HETATM   10  C16 UNL     1      23.125   2.780  52.347  1.00  0.00     0.041 A 
HETATM   11  C17 UNL     1      24.569   2.453  52.304  1.00  0.00     0.052 C 
HETATM   12  C18 UNL     1      25.434   1.611  52.864  1.00  0.00     0.078 C 
ENDROOT
BRANCH   9  13
HETATM   13  N4  UNL     1      24.142   4.938  51.831  1.00  0.00    -0.340 N 
HETATM   14  H13 UNL     1      25.019   5.283  52.243  1.00  0.00     0.167 HD
BRANCH  13  15
HETATM   15  C10 UNL     1      24.271   5.638  50.599  1.00  0.00     0.035 A 
HETATM   16  C11 UNL     1      23.949   5.286  49.299  1.00  0.00     0.032 A 
HETATM   17  C12 UNL     1      24.139   6.044  48.173  1.00  0.00     0.046 A 
HETATM   18  C13 UNL     1      24.705   7.279  48.342  1.00  0.00     0.138 A 
HETATM   19  F1  UNL     1      24.880   8.009  47.212  1.00  0.00    -0.204 F 
HETATM   20  C14 UNL     1      25.054   7.697  49.625  1.00  0.00     0.074 A 
HETATM   21 CL1  UNL     1      25.764   9.307  49.633  1.00  0.00    -0.081 Cl
HETATM   22  C15 UNL     1      24.847   6.906  50.730  1.00  0.00     0.056 A 
ENDBRANCH  13  15
ENDBRANCH   9  13
BRANCH  12  23
HETATM   23  O3  UNL     1      26.655   1.924  52.291  1.00  0.00    -0.357 OA
HETATM   24  C19 UNL     1      26.855   2.644  51.104  1.00  0.00     0.209 C 
ENDBRANCH  12  23
BRANCH   3  25
HETATM   25  O2  UNL     1      22.099  -1.601  53.447  1.00  0.00    -0.336 OA
HETATM   26  C5  UNL     1      20.963  -1.703  54.252  1.00  0.00     0.212 C 
ENDBRANCH   3  25
BRANCH   1  27
HETATM   27  C2  UNL     1      26.299  -0.242  54.255  1.00  0.00     0.308 C 
BRANCH  27  28
HETATM   28  N1  UNL     1      27.189   0.648  54.975  1.00  0.00     0.082 N 
HETATM   29  C1  UNL     1      28.585   0.288  54.833  1.00  0.00     0.306 C 
HETATM   30  H4  UNL     1      26.888   0.853  55.930  1.00  0.00     0.315 HD
ENDBRANCH  27  28
ENDBRANCH   1  27
TORSDOF 6
ENDMDL
MODEL 5
REMARK VINA RESULT:      -7.6      2.210      2.773
REMARK  6 active torsions:
REMARK  status: ('A' for Active; 'I' for Inactive)
REMARK    1  A    between atoms: N1_2  and  C2_3 
REMARK    2  A    between atoms: C2_3  and  C3_4 
REMARK    3  A    between atoms: C4_6  and  O2_7 
REMARK    4  A    between atoms: C9_14  and  N4_15 
REMARK    5  A    between atoms: N4_15  and  C10_16 
REMARK    6  A    between atoms: C18_26  and  O3_27 
ROOT
HETATM    1  C3  UNL     1      21.647   2.812  49.733  1.00  0.00     0.215 C 
HETATM    2  O1  UNL     1      20.788   3.279  50.740  1.00  0.00    -0.317 OA
HETATM    3  C4  UNL     1      20.190   2.818  51.911  1.00  0.00     0.182 C 
HETATM    4  C6  UNL     1      20.581   1.981  52.855  1.00  0.00     0.096 C 
HETATM    5  C7  UNL     1      21.855   1.234  52.960  1.00  0.00     0.076 A 
HETATM    6  N2  UNL     1      21.726   0.320  53.936  1.00  0.00    -0.241 NA
HETATM    7  C8  UNL     1      22.745  -0.498  54.245  1.00  0.00     0.236 A 
HETATM    8  N3  UNL     1      23.917  -0.437  53.599  1.00  0.00    -0.224 NA
HETATM    9  C9  UNL     1      24.134   0.426  52.632  1.00  0.00     0.142 A 
HETATM   10  C16 UNL     1      23.094   1.270  52.308  1.00  0.00     0.041 A 
HETATM   11  C17 UNL     1      23.571   2.156  51.220  1.00  0.00     0.052 C 
HETATM   12  C18 UNL     1      23.094   2.813  50.166  1.00  0.00     0.078 C 
ENDROOT
BRANCH   9  13
HETATM   13  N4  UNL     1      25.376   0.485  51.949  1.00  0.00    -0.340 N 
HETATM   14  H13 UNL     1      25.834   0.333  51.040  1.00  0.00     0.167 HD
BRANCH  13  15
HETATM   15  C10 UNL     1      26.556   0.864  52.648  1.00  0.00     0.035 A 
HETATM   16  C11 UNL     1      26.978   2.083  53.153  1.00  0.00     0.032 A 
HETATM   17  C12 UNL     1      28.160   2.338  53.799  1.00  0.00     0.046 A 
HETATM   18  C13 UNL     1      29.017   1.284  53.969  1.00  0.00     0.138 A 
HETATM   19  F1  UNL     1      30.178   1.563  54.613  1.00  0.00    -0.204 F 
HETATM   20  C14 UNL     1      28.654   0.028  53.484  1.00  0.00     0.074 A 
HETATM   21 CL1  UNL     1      29.885  -1.190  53.799  1.00  0.00    -0.081 Cl
HETATM   22  C15 UNL     1      27.460  -0.186  52.840  1.00  0.00     0.056 A 
ENDBRANCH  13  15
ENDBRANCH   9  13
BRANCH  12  23
HETATM   23  O3  UNL     1      24.195   3.447  49.616  1.00  0.00    -0.357 OA
HETATM   24  C19 UNL     1      25.429   3.666  50.247  1.00  0.00     0.209 C 
ENDBRANCH  12  23
BRANCH   3  25
HETATM   25  O2  UNL     1      18.926   3.291  52.211  1.00  0.00    -0.336 OA
HETATM   26  C5  UNL     1      18.105   3.828  51.218  1.00  0.00     0.212 C 
ENDBRANCH   3  25
BRANCH   1  27
HETATM   27  C2  UNL     1      21.468   3.716  48.537  1.00  0.00     0.308 C 
BRANCH  27  28
HETATM   28  N1  UNL     1      21.621   5.076  49.020  1.00  0.00     0.082 N 
HETATM   29  C1  UNL     1      20.449   5.894  48.783  1.00  0.00     0.306 C 
HETATM   30  H4  UNL     1      22.511   5.508  48.766  1.00  0.00     0.315 HD
ENDBRANCH  27  28
ENDBRANCH   1  27
TORSDOF 6
ENDMDL
MODEL 6
REMARK VINA RESULT:      -7.3      3.896      5.595
REMARK  6 active torsions:
REMARK  status: ('A' for Active; 'I' for Inactive)
REMARK    1  A    between atoms: N1_2  and  C2_3 
REMARK    2  A    between atoms: C2_3  and  C3_4 
REMARK    3  A    between atoms: C4_6  and  O2_7 
REMARK    4  A    between atoms: C9_14  and  N4_15 
REMARK    5  A    between atoms: N4_15  and  C10_16 
REMARK    6  A    between atoms: C18_26  and  O3_27 
ROOT
HETATM    1  C3  UNL     1      21.645   0.721  51.083  1.00  0.00     0.215 C 
HETATM    2  O1  UNL     1      21.795   0.532  52.466  1.00  0.00    -0.317 OA
HETATM    3  C4  UNL     1      22.800   0.246  53.386  1.00  0.00     0.182 C 
HETATM    4  C6  UNL     1      24.079   0.567  53.454  1.00  0.00     0.096 C 
HETATM    5  C7  UNL     1      24.881   1.380  52.511  1.00  0.00     0.076 A 
HETATM    6  N2  UNL     1      26.177   1.241  52.833  1.00  0.00    -0.241 NA
HETATM    7  C8  UNL     1      27.129   1.880  52.134  1.00  0.00     0.236 A 
HETATM    8  N3  UNL     1      26.826   2.672  51.097  1.00  0.00    -0.224 NA
HETATM    9  C9  UNL     1      25.585   2.869  50.710  1.00  0.00     0.142 A 
HETATM   10  C16 UNL     1      24.602   2.217  51.423  1.00  0.00     0.041 A 
HETATM   11  C17 UNL     1      23.301   2.601  50.827  1.00  0.00     0.052 C 
HETATM   12  C18 UNL     1      22.085   2.096  50.640  1.00  0.00     0.078 C 
ENDROOT
BRANCH   9  13
HETATM   13  N4  UNL     1      25.270   3.707  49.610  1.00  0.00    -0.340 N 
HETATM   14  H13 UNL     1      24.771   3.747  48.710  1.00  0.00     0.167 HD
BRANCH  13  15
HETATM   15  C10 UNL     1      25.775   5.036  49.558  1.00  0.00     0.035 A 
HETATM   16  C11 UNL     1      25.361   6.205  50.174  1.00  0.00     0.032 A 
HETATM   17  C12 UNL     1      25.919   7.449  50.033  1.00  0.00     0.046 A 
HETATM   18  C13 UNL     1      27.000   7.555  49.200  1.00  0.00     0.138 A 
HETATM   19  F1  UNL     1      27.534   8.796  49.079  1.00  0.00    -0.204 F 
HETATM   20  C14 UNL     1      27.470   6.417  48.547  1.00  0.00     0.074 A 
HETATM   21 CL1  UNL     1      28.860   6.759  47.524  1.00  0.00    -0.081 Cl
HETATM   22  C15 UNL     1      26.881   5.187  48.714  1.00  0.00     0.056 A 
ENDBRANCH  13  15
ENDBRANCH   9  13
BRANCH  12  23
HETATM   23  O3  UNL     1      21.385   3.093  49.981  1.00  0.00    -0.357 OA
HETATM   24  C19 UNL     1      21.851   4.385  49.695  1.00  0.00     0.209 C 
ENDBRANCH  12  23
BRANCH   3  25
HETATM   25  O2  UNL     1      22.463  -0.529  54.481  1.00  0.00    -0.336 OA
HETATM   26  C5  UNL     1      21.437  -1.471  54.405  1.00  0.00     0.212 C 
ENDBRANCH   3  25
BRANCH   1  27
HETATM   27  C2  UNL     1      20.184   0.519  50.760  1.00  0.00     0.308 C 
BRANCH  27  28
HETATM   28  N1  UNL     1      19.494   0.380  52.029  1.00  0.00     0.082 N 
HETATM   29  C1  UNL     1      18.254  -0.360  51.920  1.00  0.00     0.306 C 
HETATM   30  H4  UNL     1      19.437   1.247  52.566  1.00  0.00     0.315 HD
ENDBRANCH  27  28
ENDBRANCH   1  27
TORSDOF 6
ENDMDL
MODEL 7
REMARK VINA RESULT:      -7.2      4.015      5.945
REMARK  6 active torsions:
REMARK  status: ('A' for Active; 'I' for Inactive)
REMARK    1  A    between atoms: N1_2  and  C2_3 
REMARK    2  A    between atoms: C2_3  and  C3_4 
REMARK    3  A    between atoms: C4_6  and  O2_7 
REMARK    4  A    between atoms: C9_14  and  N4_15 
REMARK    5  A    between atoms: N4_15  and  C10_16 
REMARK    6  A    between atoms: C18_26  and  O3_27 
ROOT
HETATM    1  C3  UNL     1      24.292   6.359  48.718  1.00  0.00     0.215 C 
HETATM    2  O1  UNL     1      23.447   7.030  49.615  1.00  0.00    -0.317 OA
HETATM    3  C4  UNL     1      22.396   6.746  50.485  1.00  0.00     0.182 C 
HETATM    4  C6  UNL     1      22.112   5.705  51.246  1.00  0.00     0.096 C 
HETATM    5  C7  UNL     1      22.873   4.446  51.415  1.00  0.00     0.076 A 
HETATM    6  N2  UNL     1      22.099   3.574  52.081  1.00  0.00    -0.241 NA
HETATM    7  C8  UNL     1      22.550   2.343  52.373  1.00  0.00     0.236 A 
HETATM    8  N3  UNL     1      23.777   1.941  52.015  1.00  0.00    -0.224 NA
HETATM    9  C9  UNL     1      24.603   2.726  51.361  1.00  0.00     0.142 A 
HETATM   10  C16 UNL     1      24.149   3.991  51.058  1.00  0.00     0.041 A 
HETATM   11  C17 UNL     1      25.244   4.693  50.349  1.00  0.00     0.052 C 
HETATM   12  C18 UNL     1      25.413   5.630  49.421  1.00  0.00     0.078 C 
ENDROOT
BRANCH   9  13
HETATM   13  N4  UNL     1      25.901   2.295  50.982  1.00  0.00    -0.340 N 
HETATM   14  H13 UNL     1      26.568   2.254  50.200  1.00  0.00     0.167 HD
BRANCH  13  15
HETATM   15  C10 UNL     1      26.729   1.617  51.919  1.00  0.00     0.035 A 
HETATM   16  C11 UNL     1      27.620   2.085  52.870  1.00  0.00     0.032 A 
HETATM   17  C12 UNL     1      28.390   1.329  53.716  1.00  0.00     0.046 A 
HETATM   18  C13 UNL     1      28.270  -0.031  53.617  1.00  0.00     0.138 A 
HETATM   19  F1  UNL     1      29.041  -0.756  54.466  1.00  0.00    -0.204 F 
HETATM   20  C14 UNL     1      27.390  -0.571  52.680  1.00  0.00     0.074 A 
HETATM   21 CL1  UNL     1      27.380  -2.330  52.708  1.00  0.00    -0.081 Cl
HETATM   22  C15 UNL     1      26.636   0.223  51.849  1.00  0.00     0.056 A 
ENDBRANCH  13  15
ENDBRANCH   9  13
BRANCH  12  23
HETATM   23  O3  UNL     1      26.786   5.750  49.283  1.00  0.00    -0.357 OA
HETATM   24  C19 UNL     1      27.636   4.850  48.622  1.00  0.00     0.209 C 
ENDBRANCH  12  23
BRANCH   3  25
HETATM   25  O2  UNL     1      21.412   7.705  50.633  1.00  0.00    -0.336 OA
HETATM   26  C5  UNL     1      20.877   8.362  49.523  1.00  0.00     0.212 C 
ENDBRANCH   3  25
BRANCH   1  27
HETATM   27  C2  UNL     1      24.861   7.395  47.778  1.00  0.00     0.308 C 
BRANCH  27  28
HETATM   28  N1  UNL     1      25.587   8.345  48.600  1.00  0.00     0.082 N 
HETATM   29  C1  UNL     1      25.591   9.683  48.046  1.00  0.00     0.306 C 
HETATM   30  H4  UNL     1      26.495   8.005  48.923  1.00  0.00     0.315 HD
ENDBRANCH  27  28
ENDBRANCH   1  27
TORSDOF 6
ENDMDL
MODEL 8
REMARK VINA RESULT:      -7.2      4.644      7.833
REMARK  6 active torsions:
REMARK  status: ('A' for Active; 'I' for Inactive)
REMARK    1  A    between atoms: N1_2  and  C2_3 
REMARK    2  A    between atoms: C2_3  and  C3_4 
REMARK    3  A    between atoms: C4_6  and  O2_7 
REMARK    4  A    between atoms: C9_14  and  N4_15 
REMARK    5  A    between atoms: N4_15  and  C10_16 
REMARK    6  A    between atoms: C18_26  and  O3_27 
ROOT
HETATM    1  C3  UNL     1      24.039  -0.000  53.251  1.00  0.00     0.215 C 
HETATM    2  O1  UNL     1      25.209   0.392  53.919  1.00  0.00    -0.317 OA
HETATM    3  C4  UNL     1      26.476   0.887  53.620  1.00  0.00     0.182 C 
HETATM    4  C6  UNL     1      26.928   1.703  52.685  1.00  0.00     0.096 C 
HETATM    5  C7  UNL     1      26.176   2.380  51.605  1.00  0.00     0.076 A 
HETATM    6  N2  UNL     1      27.061   2.906  50.742  1.00  0.00    -0.241 NA
HETATM    7  C8  UNL     1      26.643   3.584  49.661  1.00  0.00     0.236 A 
HETATM    8  N3  UNL     1      25.341   3.760  49.402  1.00  0.00    -0.224 NA
HETATM    9  C9  UNL     1      24.404   3.282  50.190  1.00  0.00     0.142 A 
HETATM   10  C16 UNL     1      24.824   2.585  51.302  1.00  0.00     0.041 A 
HETATM   11  C17 UNL     1      23.610   2.166  52.041  1.00  0.00     0.052 C 
HETATM   12  C18 UNL     1      23.195   1.179  52.830  1.00  0.00     0.078 C 
ENDROOT
BRANCH   9  13
HETATM   13  N4  UNL     1      23.025   3.469  49.910  1.00  0.00    -0.340 N 
HETATM   14  H13 UNL     1      22.169   2.995  49.592  1.00  0.00     0.167 HD
BRANCH  13  15
HETATM   15  C10 UNL     1      22.438   4.758  50.049  1.00  0.00     0.035 A 
HETATM   16  C11 UNL     1      22.884   5.912  50.671  1.00  0.00     0.032 A 
HETATM   17  C12 UNL     1      22.215   7.105  50.762  1.00  0.00     0.046 A 
HETATM   18  C13 UNL     1      20.979   7.171  50.179  1.00  0.00     0.138 A 
HETATM   19  F1  UNL     1      20.339   8.363  50.282  1.00  0.00    -0.204 F 
HETATM   20  C14 UNL     1      20.468   6.045  49.536  1.00  0.00     0.074 A 
HETATM   21 CL1  UNL     1      18.872   6.330  48.854  1.00  0.00    -0.081 Cl
HETATM   22  C15 UNL     1      21.171   4.866  49.468  1.00  0.00     0.056 A 
ENDBRANCH  13  15
ENDBRANCH   9  13
BRANCH  12  23
HETATM   23  O3  UNL     1      21.883   1.499  53.138  1.00  0.00    -0.357 OA
HETATM   24  C19 UNL     1      20.899   1.929  52.235  1.00  0.00     0.209 C 
ENDBRANCH  12  23
BRANCH   3  25
HETATM   25  O2  UNL     1      27.526   0.486  54.425  1.00  0.00    -0.336 OA
HETATM   26  C5  UNL     1      28.849   0.744  54.062  1.00  0.00     0.212 C 
ENDBRANCH   3  25
BRANCH   1  27
HETATM   27  C2  UNL     1      23.258  -0.881  54.197  1.00  0.00     0.308 C 
BRANCH  27  28
HETATM   28  N1  UNL     1      22.113  -1.373  53.453  1.00  0.00     0.082 N 
HETATM   29  C1  UNL     1      20.971  -1.658  54.298  1.00  0.00     0.306 C 
HETATM   30  H4  UNL     1      22.342  -2.100  52.773  1.00  0.00     0.315 HD
ENDBRANCH  27  28
ENDBRANCH   1  27
TORSDOF 6
ENDMDL
MODEL 9
REMARK VINA RESULT:      -6.9      4.394      7.366
REMARK  6 active torsions:
REMARK  status: ('A' for Active; 'I' for Inactive)
REMARK    1  A    between atoms: N1_2  and  C2_3 
REMARK    2  A    between atoms: C2_3  and  C3_4 
REMARK    3  A    between atoms: C4_6  and  O2_7 
REMARK    4  A    between atoms: C9_14  and  N4_15 
REMARK    5  A    between atoms: N4_15  and  C10_16 
REMARK    6  A    between atoms: C18_26  and  O3_27 
ROOT
HETATM    1  C3  UNL     1      23.962   6.150  49.160  1.00  0.00     0.215 C 
HETATM    2  O1  UNL     1      25.203   6.023  48.516  1.00  0.00    -0.317 OA
HETATM    3  C4  UNL     1      26.470   5.502  48.767  1.00  0.00     0.182 C 
HETATM    4  C6  UNL     1      26.897   4.453  49.447  1.00  0.00     0.096 C 
HETATM    5  C7  UNL     1      26.105   3.451  50.196  1.00  0.00     0.076 A 
HETATM    6  N2  UNL     1      26.950   2.716  50.936  1.00  0.00    -0.241 NA
HETATM    7  C8  UNL     1      26.491   1.724  51.716  1.00  0.00     0.236 A 
HETATM    8  N3  UNL     1      25.185   1.433  51.788  1.00  0.00    -0.224 NA
HETATM    9  C9  UNL     1      24.285   2.099  51.099  1.00  0.00     0.142 A 
HETATM   10  C16 UNL     1      24.748   3.118  50.295  1.00  0.00     0.041 A 
HETATM   11  C17 UNL     1      23.572   3.704  49.609  1.00  0.00     0.052 C 
HETATM   12  C18 UNL     1      23.161   4.871  49.123  1.00  0.00     0.078 C 
ENDROOT
BRANCH   9  13
HETATM   13  N4  UNL     1      22.903   1.789  51.180  1.00  0.00    -0.340 N 
HETATM   14  H13 UNL     1      21.977   2.006  50.788  1.00  0.00     0.167 HD
BRANCH  13  15
HETATM   15  C10 UNL     1      22.439   0.844  52.138  1.00  0.00     0.035 A 
HETATM   16  C11 UNL     1      23.106   0.100  53.097  1.00  0.00     0.032 A 
HETATM   17  C12 UNL     1      22.552  -0.807  53.963  1.00  0.00     0.046 A 
HETATM   18  C13 UNL     1      21.200  -1.003  53.878  1.00  0.00     0.138 A 
HETATM   19  F1  UNL     1      20.677  -1.904  54.746  1.00  0.00    -0.204 F 
HETATM   20  C14 UNL     1      20.467  -0.286  52.933  1.00  0.00     0.074 A 
HETATM   21 CL1  UNL     1      18.752  -0.678  52.981  1.00  0.00    -0.081 Cl
HETATM   22  C15 UNL     1      21.061   0.614  52.082  1.00  0.00     0.056 A 
ENDBRANCH  13  15
ENDBRANCH   9  13
BRANCH  12  23
HETATM   23  O3  UNL     1      21.899   4.617  48.612  1.00  0.00    -0.357 OA
HETATM   24  C19 UNL     1      20.683   4.739  49.302  1.00  0.00     0.209 C 
ENDBRANCH  12  23
BRANCH   3  25
HETATM   25  O2  UNL     1      27.553   6.167  48.222  1.00  0.00    -0.336 OA
HETATM   26  C5  UNL     1      28.842   5.637  48.316  1.00  0.00     0.212 C 
ENDBRANCH   3  25
BRANCH   1  27
HETATM   27  C2  UNL     1      23.206   7.253  48.459  1.00  0.00     0.308 C 
BRANCH  27  28
HETATM   28  N1  UNL     1      23.120   6.873  47.061  1.00  0.00     0.082 N 
HETATM   29  C1  UNL     1      21.970   7.442  46.390  1.00  0.00     0.306 C 
HETATM   30  H4  UNL     1      23.273   5.877  46.893  1.00  0.00     0.315 HD
ENDBRANCH  27  28
ENDBRANCH   1  27
TORSDOF 6
ENDMDL
