MODEL 1
REMARK VINA RESULT:      -8.1      0.000      0.000
REMARK  3 active torsions:
REMARK  status: ('A' for Active; 'I' for Inactive)
REMARK       I    between atoms: C2_2  and  N1_4 
REMARK    1  A    between atoms: N1_4  and  C3_5 
REMARK    2  A    between atoms: C8_10  and  N2_11 
REMARK    3  A    between atoms: N2_11  and  C9_12 
ROOT
HETATM    1  C3  UNL     1      26.155  -0.308  53.100  1.00  0.00     0.036 A 
HETATM    2  C4  UNL     1      25.274  -0.817  54.023  1.00  0.00     0.030 A 
HETATM    3  C5  UNL     1      23.978  -0.413  53.960  1.00  0.00     0.011 A 
HETATM    4  C6  UNL     1      23.522   0.476  53.019  1.00  0.00    -0.035 A 
HETATM    5  C7  UNL     1      22.095   0.885  52.995  1.00  0.00     0.050 C 
HETATM    6  C8  UNL     1      24.377   1.026  52.056  1.00  0.00     0.057 A 
HETATM    7  C16 UNL     1      25.678   0.583  52.164  1.00  0.00     0.060 A 
ENDROOT
BRANCH   6   8
HETATM    8  N2  UNL     1      23.914   1.940  51.087  1.00  0.00    -0.188 N 
HETATM    9  H10 UNL     1      23.122   1.573  50.481  1.00  0.00     0.184 HD
BRANCH   8  10
HETATM   10  C9  UNL     1      24.357   3.256  50.824  1.00  0.00     0.727 A 
HETATM   11  N3  UNL     1      23.787   4.391  51.245  1.00  0.00    -0.074 NA
HETATM   12  C10 UNL     1      24.222   5.629  50.985  1.00  0.00     0.147 A 
HETATM   13  C11 UNL     1      25.343   5.737  50.225  1.00  0.00     0.005 A 
HETATM   14  C12 UNL     1      25.985   4.617  49.757  1.00  0.00     0.068 A 
HETATM   15  C15 UNL     1      25.874   7.085  49.905  1.00  0.00     0.190 C 
HETATM   16  N4  UNL     1      25.446   3.453  50.089  1.00  0.00    -0.066 NA
HETATM   17  C13 UNL     1      27.212   4.723  48.925  1.00  0.00     0.107 C 
HETATM   18  C14 UNL     1      27.321   6.082  48.311  1.00  0.00     0.090 C 
HETATM   19  N5  UNL     1      26.726   7.099  48.757  1.00  0.00    -0.301 NA
ENDBRANCH   8  10
ENDBRANCH   6   8
BRANCH   1  20
HETATM   20  N1  UNL     1      27.517  -0.718  53.148  1.00  0.00    -0.327 N 
HETATM   21  C2  UNL     1      28.548  -0.146  53.935  1.00  0.00     0.218 C 
HETATM   22  C1  UNL     1      29.940  -0.692  53.876  1.00  0.00     0.117 C 
HETATM   23  O1  UNL     1      28.291   0.836  54.697  1.00  0.00    -0.274 OA
HETATM   24  H4  UNL     1      27.791  -1.513  52.550  1.00  0.00     0.169 HD
ENDBRANCH   1  20
TORSDOF 3
ENDMDL
MODEL 2
REMARK VINA RESULT:      -7.9      0.855      1.691
REMARK  3 active torsions:
REMARK  status: ('A' for Active; 'I' for Inactive)
REMARK       I    between atoms: C2_2  and  N1_4 
REMARK    1  A    between atoms: N1_4  and  C3_5 
REMARK    2  A    between atoms: C8_10  and  N2_11 
REMARK    3  A    between atoms: N2_11  and  C9_12 
ROOT
HETATM    1  C3  UNL     1      26.488  -0.048  52.702  1.00  0.00     0.036 A 
HETATM    2  C4  UNL     1      25.553  -0.668  53.495  1.00  0.00     0.030 A 
HETATM    3  C5  UNL     1      24.269  -0.226  53.433  1.00  0.00     0.011 A 
HETATM    4  C6  UNL     1      23.876   0.803  52.616  1.00  0.00    -0.035 A 
HETATM    5  C7  UNL     1      22.458   1.246  52.587  1.00  0.00     0.050 C 
HETATM    6  C8  UNL     1      24.787   1.470  51.787  1.00  0.00     0.057 A 
HETATM    7  C16 UNL     1      26.073   0.984  51.889  1.00  0.00     0.060 A 
ENDROOT
BRANCH   6   8
HETATM    8  N2  UNL     1      24.388   2.529  50.946  1.00  0.00    -0.188 N 
HETATM    9  H10 UNL     1      23.343   2.574  50.763  1.00  0.00     0.184 HD
BRANCH   8  10
HETATM   10  C9  UNL     1      25.184   3.520  50.327  1.00  0.00     0.727 A 
HETATM   11  N3  UNL     1      26.247   3.315  49.541  1.00  0.00    -0.074 NA
HETATM   12  C10 UNL     1      26.989   4.267  48.963  1.00  0.00     0.147 A 
HETATM   13  C11 UNL     1      26.625   5.554  49.201  1.00  0.00     0.005 A 
HETATM   14  C12 UNL     1      25.545   5.844  49.997  1.00  0.00     0.068 A 
HETATM   15  C15 UNL     1      27.409   6.654  48.587  1.00  0.00     0.190 C 
HETATM   16  N4  UNL     1      24.899   4.805  50.506  1.00  0.00    -0.066 NA
HETATM   17  C13 UNL     1      25.138   7.248  50.264  1.00  0.00     0.107 C 
HETATM   18  C14 UNL     1      26.269   8.189  49.994  1.00  0.00     0.090 C 
HETATM   19  N5  UNL     1      27.251   7.906  49.258  1.00  0.00    -0.301 NA
ENDBRANCH   8  10
ENDBRANCH   6   8
BRANCH   1  20
HETATM   20  N1  UNL     1      27.838  -0.494  52.751  1.00  0.00    -0.327 N 
HETATM   21  C2  UNL     1      28.672  -0.551  53.896  1.00  0.00     0.218 C 
HETATM   22  C1  UNL     1      30.079  -1.046  53.787  1.00  0.00     0.117 C 
HETATM   23  O1  UNL     1      28.222  -0.179  55.023  1.00  0.00    -0.274 OA
HETATM   24  H4  UNL     1      28.263  -0.809  51.865  1.00  0.00     0.169 HD
ENDBRANCH   1  20
TORSDOF 3
ENDMDL
MODEL 3
REMARK VINA RESULT:      -7.9      2.184      2.883
REMARK  3 active torsions:
REMARK  status: ('A' for Active; 'I' for Inactive)
REMARK       I    between atoms: C2_2  and  N1_4 
REMARK    1  A    between atoms: N1_4  and  C3_5 
REMARK    2  A    between atoms: C8_10  and  N2_11 
REMARK    3  A    between atoms: N2_11  and  C9_12 
ROOT
HETATM    1  C3  UNL     1      25.076  -0.798  54.349  1.00  0.00     0.036 A 
HETATM    2  C4  UNL     1      24.401  -1.296  55.437  1.00  0.00     0.030 A 
HETATM    3  C5  UNL     1      23.042  -1.270  55.412  1.00  0.00     0.011 A 
HETATM    4  C6  UNL     1      22.327  -0.771  54.353  1.00  0.00    -0.035 A 
HETATM    5  C7  UNL     1      20.842  -0.767  54.378  1.00  0.00     0.050 C 
HETATM    6  C8  UNL     1      22.964  -0.251  53.219  1.00  0.00     0.057 A 
HETATM    7  C16 UNL     1      24.339  -0.300  53.296  1.00  0.00     0.060 A 
ENDROOT
BRANCH   6   8
HETATM    8  N2  UNL     1      22.234   0.264  52.128  1.00  0.00    -0.188 N 
HETATM    9  H10 UNL     1      21.387  -0.315  51.855  1.00  0.00     0.184 HD
BRANCH   8  10
HETATM   10  C9  UNL     1      22.479   1.430  51.367  1.00  0.00     0.727 A 
HETATM   11  N3  UNL     1      22.519   1.519  50.032  1.00  0.00    -0.074 NA
HETATM   12  C10 UNL     1      22.752   2.632  49.328  1.00  0.00     0.147 A 
HETATM   13  C11 UNL     1      22.967   3.770  50.038  1.00  0.00     0.005 A 
HETATM   14  C12 UNL     1      22.941   3.758  51.411  1.00  0.00     0.068 A 
HETATM   15  C15 UNL     1      23.230   5.037  49.312  1.00  0.00     0.190 C 
HETATM   16  N4  UNL     1      22.699   2.587  51.980  1.00  0.00    -0.066 NA
HETATM   17  C13 UNL     1      23.175   4.998  52.196  1.00  0.00     0.107 C 
HETATM   18  C14 UNL     1      23.881   6.025  51.371  1.00  0.00     0.090 C 
HETATM   19  N5  UNL     1      23.891   6.021  50.111  1.00  0.00    -0.301 NA
ENDBRANCH   8  10
ENDBRANCH   6   8
BRANCH   1  20
HETATM   20  N1  UNL     1      26.498  -0.814  54.354  1.00  0.00    -0.327 N 
HETATM   21  C2  UNL     1      27.359   0.284  54.604  1.00  0.00     0.218 C 
HETATM   22  C1  UNL     1      28.844   0.107  54.573  1.00  0.00     0.117 C 
HETATM   23  O1  UNL     1      26.867   1.427  54.855  1.00  0.00    -0.274 OA
HETATM   24  H4  UNL     1      26.960  -1.715  54.155  1.00  0.00     0.169 HD
ENDBRANCH   1  20
TORSDOF 3
ENDMDL
MODEL 4
REMARK VINA RESULT:      -7.9      2.499      3.119
REMARK  3 active torsions:
REMARK  status: ('A' for Active; 'I' for Inactive)
REMARK       I    between atoms: C2_2  and  N1_4 
REMARK    1  A    between atoms: N1_4  and  C3_5 
REMARK    2  A    between atoms: C8_10  and  N2_11 
REMARK    3  A    between atoms: N2_11  and  C9_12 
ROOT
HETATM    1  C3  UNL     1      25.111  -0.790  54.337  1.00  0.00     0.036 A 
HETATM    2  C4  UNL     1      24.450  -1.280  55.437  1.00  0.00     0.030 A 
HETATM    3  C5  UNL     1      23.091  -1.259  55.427  1.00  0.00     0.011 A 
HETATM    4  C6  UNL     1      22.363  -0.772  54.372  1.00  0.00    -0.035 A 
HETATM    5  C7  UNL     1      20.878  -0.772  54.414  1.00  0.00     0.050 C 
HETATM    6  C8  UNL     1      22.985  -0.260  53.226  1.00  0.00     0.057 A 
HETATM    7  C16 UNL     1      24.361  -0.305  53.287  1.00  0.00     0.060 A 
ENDROOT
BRANCH   6   8
HETATM    8  N2  UNL     1      22.241   0.242  52.139  1.00  0.00    -0.188 N 
HETATM    9  H10 UNL     1      21.376  -0.326  51.899  1.00  0.00     0.184 HD
BRANCH   8  10
HETATM   10  C9  UNL     1      22.491   1.383  51.343  1.00  0.00     0.727 A 
HETATM   11  N3  UNL     1      22.913   2.579  51.770  1.00  0.00    -0.074 NA
HETATM   12  C10 UNL     1      23.145   3.648  51.000  1.00  0.00     0.147 A 
HETATM   13  C11 UNL     1      22.932   3.500  49.668  1.00  0.00     0.005 A 
HETATM   14  C12 UNL     1      22.499   2.302  49.153  1.00  0.00     0.068 A 
HETATM   15  C15 UNL     1      23.173   4.651  48.763  1.00  0.00     0.190 C 
HETATM   16  N4  UNL     1      22.308   1.327  50.029  1.00  0.00    -0.066 NA
HETATM   17  C13 UNL     1      22.263   2.130  47.697  1.00  0.00     0.107 C 
HETATM   18  C14 UNL     1      22.081   3.454  47.027  1.00  0.00     0.090 C 
HETATM   19  N5  UNL     1      22.488   4.543  47.513  1.00  0.00    -0.301 NA
ENDBRANCH   8  10
ENDBRANCH   6   8
BRANCH   1  20
HETATM   20  N1  UNL     1      26.533  -0.802  54.325  1.00  0.00    -0.327 N 
HETATM   21  C2  UNL     1      27.394   0.297  54.571  1.00  0.00     0.218 C 
HETATM   22  C1  UNL     1      28.879   0.125  54.522  1.00  0.00     0.117 C 
HETATM   23  O1  UNL     1      26.902   1.437  54.836  1.00  0.00    -0.274 OA
HETATM   24  H4  UNL     1      26.995  -1.701  54.115  1.00  0.00     0.169 HD
ENDBRANCH   1  20
TORSDOF 3
ENDMDL
MODEL 5
REMARK VINA RESULT:      -7.7      2.117      3.414
REMARK  3 active torsions:
REMARK  status: ('A' for Active; 'I' for Inactive)
REMARK       I    between atoms: C2_2  and  N1_4 
REMARK    1  A    between atoms: N1_4  and  C3_5 
REMARK    2  A    between atoms: C8_10  and  N2_11 
REMARK    3  A    between atoms: N2_11  and  C9_12 
ROOT
HETATM    1  C3  UNL     1      26.452   1.898  52.305  1.00  0.00     0.036 A 
HETATM    2  C4  UNL     1      25.297   2.158  53.000  1.00  0.00     0.030 A 
HETATM    3  C5  UNL     1      24.393   3.007  52.442  1.00  0.00     0.011 A 
HETATM    4  C6  UNL     1      24.590   3.606  51.224  1.00  0.00    -0.035 A 
HETATM    5  C7  UNL     1      23.569   4.526  50.660  1.00  0.00     0.050 C 
HETATM    6  C8  UNL     1      25.750   3.376  50.473  1.00  0.00     0.057 A 
HETATM    7  C16 UNL     1      26.631   2.510  51.084  1.00  0.00     0.060 A 
ENDROOT
BRANCH   6   8
HETATM    8  N2  UNL     1      25.958   3.989  49.221  1.00  0.00    -0.188 N 
HETATM    9  H10 UNL     1      25.378   3.580  48.430  1.00  0.00     0.184 HD
BRANCH   8  10
HETATM   10  C9  UNL     1      26.820   5.059  48.888  1.00  0.00     0.727 A 
HETATM   11  N3  UNL     1      26.497   6.355  48.821  1.00  0.00    -0.074 NA
HETATM   12  C10 UNL     1      27.328   7.354  48.504  1.00  0.00     0.147 A 
HETATM   13  C11 UNL     1      28.613   7.015  48.225  1.00  0.00     0.005 A 
HETATM   14  C12 UNL     1      29.021   5.705  48.272  1.00  0.00     0.068 A 
HETATM   15  C15 UNL     1      29.582   8.080  47.867  1.00  0.00     0.190 C 
HETATM   16  N4  UNL     1      28.094   4.817  48.600  1.00  0.00    -0.066 NA
HETATM   17  C13 UNL     1      30.424   5.323  47.969  1.00  0.00     0.107 C 
HETATM   18  C14 UNL     1      31.109   6.395  47.183  1.00  0.00     0.090 C 
HETATM   19  N5  UNL     1      30.721   7.594  47.154  1.00  0.00    -0.301 NA
ENDBRANCH   8  10
ENDBRANCH   6   8
BRANCH   1  20
HETATM   20  N1  UNL     1      27.412   1.013  52.871  1.00  0.00    -0.327 N 
HETATM   21  C2  UNL     1      28.473   1.358  53.745  1.00  0.00     0.218 C 
HETATM   22  C1  UNL     1      29.406   0.308  54.259  1.00  0.00     0.117 C 
HETATM   23  O1  UNL     1      28.634   2.567  54.096  1.00  0.00    -0.274 OA
HETATM   24  H4  UNL     1      27.336   0.014  52.623  1.00  0.00     0.169 HD
ENDBRANCH   1  20
TORSDOF 3
ENDMDL
MODEL 6
REMARK VINA RESULT:      -7.4      1.658      2.430
REMARK  3 active torsions:
REMARK  status: ('A' for Active; 'I' for Inactive)
REMARK       I    between atoms: C2_2  and  N1_4 
REMARK    1  A    between atoms: N1_4  and  C3_5 
REMARK    2  A    between atoms: C8_10  and  N2_11 
REMARK    3  A    between atoms: N2_11  and  C9_12 
ROOT
HETATM    1  C3  UNL     1      26.407   0.146  52.901  1.00  0.00     0.036 A 
HETATM    2  C4  UNL     1      25.392  -0.763  53.078  1.00  0.00     0.030 A 
HETATM    3  C5  UNL     1      24.117  -0.293  53.133  1.00  0.00     0.011 A 
HETATM    4  C6  UNL     1      23.811   1.040  53.021  1.00  0.00    -0.035 A 
HETATM    5  C7  UNL     1      22.400   1.499  53.088  1.00  0.00     0.050 C 
HETATM    6  C8  UNL     1      24.806   2.008  52.840  1.00  0.00     0.057 A 
HETATM    7  C16 UNL     1      26.078   1.479  52.791  1.00  0.00     0.060 A 
ENDROOT
BRANCH   6   8
HETATM    8  N2  UNL     1      24.497   3.379  52.724  1.00  0.00    -0.188 N 
HETATM    9  H10 UNL     1      24.400   3.886  53.652  1.00  0.00     0.184 HD
BRANCH   8  10
HETATM   10  C9  UNL     1      24.303   4.150  51.555  1.00  0.00     0.727 A 
HETATM   11  N3  UNL     1      24.901   3.971  50.372  1.00  0.00    -0.074 NA
HETATM   12  C10 UNL     1      24.704   4.713  49.275  1.00  0.00     0.147 A 
HETATM   13  C11 UNL     1      23.818   5.736  49.380  1.00  0.00     0.005 A 
HETATM   14  C12 UNL     1      23.164   5.982  50.563  1.00  0.00     0.068 A 
HETATM   15  C15 UNL     1      23.558   6.593  48.197  1.00  0.00     0.190 C 
HETATM   16  N4  UNL     1      23.454   5.171  51.569  1.00  0.00    -0.066 NA
HETATM   17  C13 UNL     1      22.193   7.099  50.688  1.00  0.00     0.107 C 
HETATM   18  C14 UNL     1      22.409   8.115  49.613  1.00  0.00     0.090 C 
HETATM   19  N5  UNL     1      23.009   7.870  48.532  1.00  0.00    -0.301 NA
ENDBRANCH   8  10
ENDBRANCH   6   8
BRANCH   1  20
HETATM   20  N1  UNL     1      27.749  -0.324  52.840  1.00  0.00    -0.327 N 
HETATM   21  C2  UNL     1      28.634  -0.506  53.932  1.00  0.00     0.218 C 
HETATM   22  C1  UNL     1      30.024  -1.011  53.707  1.00  0.00     0.117 C 
HETATM   23  O1  UNL     1      28.246  -0.241  55.111  1.00  0.00    -0.274 OA
HETATM   24  H4  UNL     1      28.125  -0.557  51.908  1.00  0.00     0.169 HD
ENDBRANCH   1  20
TORSDOF 3
ENDMDL
MODEL 7
REMARK VINA RESULT:      -7.4      4.744      7.832
REMARK  3 active torsions:
REMARK  status: ('A' for Active; 'I' for Inactive)
REMARK       I    between atoms: C2_2  and  N1_4 
REMARK    1  A    between atoms: N1_4  and  C3_5 
REMARK    2  A    between atoms: C8_10  and  N2_11 
REMARK    3  A    between atoms: N2_11  and  C9_12 
ROOT
HETATM    1  C3  UNL     1      18.772   1.044  51.437  1.00  0.00     0.036 A 
HETATM    2  C4  UNL     1      17.628   0.352  51.124  1.00  0.00     0.030 A 
HETATM    3  C5  UNL     1      17.340  -0.765  51.843  1.00  0.00     0.011 A 
HETATM    4  C6  UNL     1      18.141  -1.222  52.859  1.00  0.00    -0.035 A 
HETATM    5  C7  UNL     1      17.778  -2.449  53.614  1.00  0.00     0.050 C 
HETATM    6  C8  UNL     1      19.318  -0.556  53.221  1.00  0.00     0.057 A 
HETATM    7  C16 UNL     1      19.563   0.568  52.461  1.00  0.00     0.060 A 
ENDROOT
BRANCH   6   8
HETATM    8  N2  UNL     1      20.145  -1.021  54.264  1.00  0.00    -0.188 N 
HETATM    9  H10 UNL     1      19.624  -1.506  55.053  1.00  0.00     0.184 HD
BRANCH   8  10
HETATM   10  C9  UNL     1      21.549  -0.928  54.392  1.00  0.00     0.727 A 
HETATM   11  N3  UNL     1      22.308  -1.526  55.318  1.00  0.00    -0.074 NA
HETATM   12  C10 UNL     1      23.638  -1.426  55.424  1.00  0.00     0.147 A 
HETATM   13  C11 UNL     1      24.268  -0.647  54.508  1.00  0.00     0.005 A 
HETATM   14  C12 UNL     1      23.557  -0.001  53.526  1.00  0.00     0.068 A 
HETATM   15  C15 UNL     1      25.743  -0.499  54.574  1.00  0.00     0.190 C 
HETATM   16  N4  UNL     1      22.245  -0.187  53.538  1.00  0.00    -0.066 NA
HETATM   17  C13 UNL     1      24.236   0.853  52.518  1.00  0.00     0.107 C 
HETATM   18  C14 UNL     1      25.587   1.274  53.002  1.00  0.00     0.090 C 
HETATM   19  N5  UNL     1      26.226   0.667  53.902  1.00  0.00    -0.301 NA
ENDBRANCH   8  10
ENDBRANCH   6   8
BRANCH   1  20
HETATM   20  N1  UNL     1      19.093   2.215  50.697  1.00  0.00    -0.327 N 
HETATM   21  C2  UNL     1      18.769   3.552  51.041  1.00  0.00     0.218 C 
HETATM   22  C1  UNL     1      19.179   4.685  50.155  1.00  0.00     0.117 C 
HETATM   23  O1  UNL     1      18.127   3.791  52.109  1.00  0.00    -0.274 OA
HETATM   24  H4  UNL     1      19.616   2.088  49.817  1.00  0.00     0.169 HD
ENDBRANCH   1  20
TORSDOF 3
ENDMDL
MODEL 8
REMARK VINA RESULT:      -7.3      2.063      2.592
REMARK  3 active torsions:
REMARK  status: ('A' for Active; 'I' for Inactive)
REMARK       I    between atoms: C2_2  and  N1_4 
REMARK    1  A    between atoms: N1_4  and  C3_5 
REMARK    2  A    between atoms: C8_10  and  N2_11 
REMARK    3  A    between atoms: N2_11  and  C9_12 
ROOT
HETATM    1  C3  UNL     1      26.387   0.158  52.968  1.00  0.00     0.036 A 
HETATM    2  C4  UNL     1      25.414  -0.761  53.280  1.00  0.00     0.030 A 
HETATM    3  C5  UNL     1      24.124  -0.335  53.323  1.00  0.00     0.011 A 
HETATM    4  C6  UNL     1      23.761   0.964  53.068  1.00  0.00    -0.035 A 
HETATM    5  C7  UNL     1      22.336   1.376  53.128  1.00  0.00     0.050 C 
HETATM    6  C8  UNL     1      24.712   1.941  52.746  1.00  0.00     0.057 A 
HETATM    7  C16 UNL     1      26.002   1.457  52.717  1.00  0.00     0.060 A 
ENDROOT
BRANCH   6   8
HETATM    8  N2  UNL     1      24.345   3.277  52.484  1.00  0.00    -0.188 N 
HETATM    9  H10 UNL     1      24.339   3.905  53.340  1.00  0.00     0.184 HD
BRANCH   8  10
HETATM   10  C9  UNL     1      23.991   3.876  51.254  1.00  0.00     0.727 A 
HETATM   11  N3  UNL     1      24.063   5.177  50.949  1.00  0.00    -0.074 NA
HETATM   12  C10 UNL     1      23.724   5.726  49.777  1.00  0.00     0.147 A 
HETATM   13  C11 UNL     1      23.267   4.883  48.816  1.00  0.00     0.005 A 
HETATM   14  C12 UNL     1      23.165   3.534  49.054  1.00  0.00     0.068 A 
HETATM   15  C15 UNL     1      22.875   5.434  47.495  1.00  0.00     0.190 C 
HETATM   16  N4  UNL     1      23.534   3.125  50.258  1.00  0.00    -0.066 NA
HETATM   17  C13 UNL     1      22.666   2.603  48.009  1.00  0.00     0.107 C 
HETATM   18  C14 UNL     1      21.886   3.341  46.968  1.00  0.00     0.090 C 
HETATM   19  N5  UNL     1      21.995   4.579  46.762  1.00  0.00    -0.301 NA
ENDBRANCH   8  10
ENDBRANCH   6   8
BRANCH   1  20
HETATM   20  N1  UNL     1      27.744  -0.266  52.919  1.00  0.00    -0.327 N 
HETATM   21  C2  UNL     1      28.725  -0.095  53.929  1.00  0.00     0.218 C 
HETATM   22  C1  UNL     1      30.118  -0.598  53.727  1.00  0.00     0.117 C 
HETATM   23  O1  UNL     1      28.419   0.491  55.012  1.00  0.00    -0.274 OA
HETATM   24  H4  UNL     1      28.056  -0.749  52.062  1.00  0.00     0.169 HD
ENDBRANCH   1  20
TORSDOF 3
ENDMDL
MODEL 9
REMARK VINA RESULT:      -7.3      2.873      7.318
REMARK  3 active torsions:
REMARK  status: ('A' for Active; 'I' for Inactive)
REMARK       I    between atoms: C2_2  and  N1_4 
REMARK    1  A    between atoms: N1_4  and  C3_5 
REMARK    2  A    between atoms: C8_10  and  N2_11 
REMARK    3  A    between atoms: N2_11  and  C9_12 
ROOT
HETATM    1  C3  UNL     1      23.160   4.923  49.086  1.00  0.00     0.036 A 
HETATM    2  C4  UNL     1      23.457   6.014  48.306  1.00  0.00     0.030 A 
HETATM    3  C5  UNL     1      24.759   6.391  48.204  1.00  0.00     0.011 A 
HETATM    4  C6  UNL     1      25.776   5.731  48.846  1.00  0.00    -0.035 A 
HETATM    5  C7  UNL     1      27.182   6.186  48.700  1.00  0.00     0.050 C 
HETATM    6  C8  UNL     1      25.530   4.613  49.653  1.00  0.00     0.057 A 
HETATM    7  C16 UNL     1      24.196   4.273  49.721  1.00  0.00     0.060 A 
ENDROOT
BRANCH   6   8
HETATM    8  N2  UNL     1      26.572   3.931  50.314  1.00  0.00    -0.188 N 
HETATM    9  H10 UNL     1      27.540   4.327  50.133  1.00  0.00     0.184 HD
BRANCH   8  10
HETATM   10  C9  UNL     1      26.495   2.810  51.172  1.00  0.00     0.727 A 
HETATM   11  N3  UNL     1      25.453   1.982  51.315  1.00  0.00    -0.074 NA
HETATM   12  C10 UNL     1      25.399   0.925  52.132  1.00  0.00     0.147 A 
HETATM   13  C11 UNL     1      26.504   0.674  52.881  1.00  0.00     0.005 A 
HETATM   14  C12 UNL     1      27.613   1.478  52.789  1.00  0.00     0.068 A 
HETATM   15  C15 UNL     1      26.504  -0.486  53.807  1.00  0.00     0.190 C 
HETATM   16  N4  UNL     1      27.531   2.492  51.940  1.00  0.00    -0.066 NA
HETATM   17  C13 UNL     1      28.827   1.213  53.604  1.00  0.00     0.107 C 
HETATM   18  C14 UNL     1      28.498   0.355  54.783  1.00  0.00     0.090 C 
HETATM   19  N5  UNL     1      27.476  -0.379  54.849  1.00  0.00    -0.301 NA
ENDBRANCH   8  10
ENDBRANCH   6   8
BRANCH   1  20
HETATM   20  N1  UNL     1      21.804   4.510  49.206  1.00  0.00    -0.327 N 
HETATM   21  C2  UNL     1      20.899   4.860  50.240  1.00  0.00     0.218 C 
HETATM   22  C1  UNL     1      19.495   4.343  50.227  1.00  0.00     0.117 C 
HETATM   23  O1  UNL     1      21.281   5.617  51.184  1.00  0.00    -0.274 OA
HETATM   24  H4  UNL     1      21.432   3.891  48.469  1.00  0.00     0.169 HD
ENDBRANCH   1  20
TORSDOF 3
ENDMDL
