MODEL 1
REMARK VINA RESULT:      -8.9      0.000      0.000
REMARK  6 active torsions:
REMARK  status: ('A' for Active; 'I' for Inactive)
REMARK    1  A    between atoms: C4_5  and  N1_6 
REMARK    2  A    between atoms: N1_6  and  C5_7 
REMARK    3  A    between atoms: C9_13  and  O1_14 
REMARK    4  A    between atoms: O1_14  and  C10_15 
REMARK    5  A    between atoms: C10_15  and  C11_16 
REMARK    6  A    between atoms: C11_16  and  N4_17 
ROOT
HETATM    1  C5  UNL     1      23.622  -0.009  53.456  1.00  0.00     0.144 A 
HETATM    2  N2  UNL     1      23.515  -1.016  54.374  1.00  0.00    -0.223 NA
HETATM    3  C6  UNL     1      22.274  -1.190  54.913  1.00  0.00     0.236 A 
HETATM    4  N3  UNL     1      21.205  -0.452  54.599  1.00  0.00    -0.241 NA
HETATM    5  C7  UNL     1      21.258   0.563  53.690  1.00  0.00     0.077 A 
HETATM    6  C8  UNL     1      20.162   1.321  53.375  1.00  0.00     0.072 A 
HETATM    7  C9  UNL     1      20.312   2.328  52.454  1.00  0.00     0.107 A 
HETATM    8  C16 UNL     1      21.539   2.563  51.863  1.00  0.00     0.136 A 
HETATM    9  C17 UNL     1      22.622   1.772  52.210  1.00  0.00     0.121 A 
HETATM   10  C18 UNL     1      22.525   0.747  53.132  1.00  0.00     0.075 A 
HETATM   11  O3  UNL     1      23.867   1.983  51.635  1.00  0.00    -0.345 OA
HETATM   12  C19 UNL     1      24.129   3.013  50.697  1.00  0.00     0.202 C 
HETATM   13  C20 UNL     1      22.899   3.587  50.073  1.00  0.00     0.202 C 
HETATM   14  O4  UNL     1      21.772   3.549  50.933  1.00  0.00    -0.344 OA
ENDROOT
BRANCH   1  15
HETATM   15  N1  UNL     1      24.900   0.206  52.892  1.00  0.00    -0.340 N 
HETATM   16  H3  UNL     1      24.538   0.641  51.995  1.00  0.00     0.167 HD
BRANCH  15  17
HETATM   17  C4  UNL     1      26.285   0.040  53.144  1.00  0.00     0.035 A 
HETATM   18  C3  UNL     1      26.818  -1.192  52.833  1.00  0.00     0.032 A 
HETATM   19  C2  UNL     1      28.145  -1.375  53.046  1.00  0.00     0.046 A 
HETATM   20  C1  UNL     1      28.922  -0.355  53.555  1.00  0.00     0.138 A 
HETATM   21  F1  UNL     1      30.253  -0.633  53.738  1.00  0.00    -0.204 F 
HETATM   22  C22 UNL     1      28.343   0.865  53.852  1.00  0.00     0.074 A 
HETATM   23  C21 UNL     1      27.002   1.101  53.656  1.00  0.00     0.056 A 
HETATM   24 CL1  UNL     1      29.458   2.049  54.488  1.00  0.00    -0.081 Cl
ENDBRANCH  15  17
ENDBRANCH   1  15
BRANCH   7  25
HETATM   25  O1  UNL     1      19.315   3.182  52.030  1.00  0.00    -0.346 OA
BRANCH  25  26
HETATM   26  C10 UNL     1      18.030   2.786  51.584  1.00  0.00     0.206 C 
BRANCH  26  27
HETATM   27  C11 UNL     1      17.116   3.993  51.605  1.00  0.00     0.299 C 
BRANCH  27  28
HETATM   28  N4  UNL     1      15.724   3.611  51.717  1.00  0.00     0.094 N 
HETATM   29  C12 UNL     1      15.226   4.065  53.017  1.00  0.00     0.298 C 
HETATM   30  C13 UNL     1      13.775   3.691  53.088  1.00  0.00     0.198 C 
HETATM   31  O2  UNL     1      13.602   2.328  52.858  1.00  0.00    -0.388 OA
HETATM   32  C14 UNL     1      14.809   1.654  52.741  1.00  0.00     0.198 C 
HETATM   33  C15 UNL     1      15.524   2.194  51.521  1.00  0.00     0.298 C 
ENDBRANCH  27  28
ENDBRANCH  26  27
ENDBRANCH  25  26
ENDBRANCH   7  25
TORSDOF 6
ENDMDL
MODEL 2
REMARK VINA RESULT:      -8.8      1.400      1.678
REMARK  6 active torsions:
REMARK  status: ('A' for Active; 'I' for Inactive)
REMARK    1  A    between atoms: C4_5  and  N1_6 
REMARK    2  A    between atoms: N1_6  and  C5_7 
REMARK    3  A    between atoms: C9_13  and  O1_14 
REMARK    4  A    between atoms: O1_14  and  C10_15 
REMARK    5  A    between atoms: C10_15  and  C11_16 
REMARK    6  A    between atoms: C11_16  and  N4_17 
ROOT
HETATM    1  C5  UNL     1      23.642   0.124  53.294  1.00  0.00     0.144 A 
HETATM    2  N2  UNL     1      23.450  -0.912  54.164  1.00  0.00    -0.223 NA
HETATM    3  C6  UNL     1      22.195  -1.017  54.685  1.00  0.00     0.236 A 
HETATM    4  N3  UNL     1      21.186  -0.189  54.398  1.00  0.00    -0.241 NA
HETATM    5  C7  UNL     1      21.324   0.860  53.536  1.00  0.00     0.077 A 
HETATM    6  C8  UNL     1      20.289   1.710  53.249  1.00  0.00     0.072 A 
HETATM    7  C9  UNL     1      20.523   2.743  52.376  1.00  0.00     0.107 A 
HETATM    8  C16 UNL     1      21.770   2.913  51.805  1.00  0.00     0.136 A 
HETATM    9  C17 UNL     1      22.788   2.029  52.123  1.00  0.00     0.121 A 
HETATM   10  C18 UNL     1      22.606   0.974  52.997  1.00  0.00     0.075 A 
HETATM   11  O3  UNL     1      24.052   2.173  51.567  1.00  0.00    -0.345 OA
HETATM   12  C19 UNL     1      24.399   3.222  50.678  1.00  0.00     0.202 C 
HETATM   13  C20 UNL     1      23.220   3.912  50.072  1.00  0.00     0.202 C 
HETATM   14  O4  UNL     1      22.085   3.920  50.922  1.00  0.00    -0.344 OA
ENDROOT
BRANCH   1  15
HETATM   15  N1  UNL     1      24.938   0.270  52.749  1.00  0.00    -0.340 N 
HETATM   16  H3  UNL     1      24.608   0.632  51.809  1.00  0.00     0.167 HD
BRANCH  15  17
HETATM   17  C4  UNL     1      26.312   0.103  53.053  1.00  0.00     0.035 A 
HETATM   18  C3  UNL     1      26.849  -1.138  52.788  1.00  0.00     0.032 A 
HETATM   19  C2  UNL     1      28.167  -1.322  53.051  1.00  0.00     0.046 A 
HETATM   20  C1  UNL     1      28.931  -0.295  53.564  1.00  0.00     0.138 A 
HETATM   21  F1  UNL     1      30.253  -0.575  53.800  1.00  0.00    -0.204 F 
HETATM   22  C22 UNL     1      28.349   0.934  53.813  1.00  0.00     0.074 A 
HETATM   23  C21 UNL     1      27.016   1.171  53.566  1.00  0.00     0.056 A 
HETATM   24 CL1  UNL     1      29.447   2.127  54.461  1.00  0.00    -0.081 Cl
ENDBRANCH  15  17
ENDBRANCH   1  15
BRANCH   7  25
HETATM   25  O1  UNL     1      19.597   3.687  51.983  1.00  0.00    -0.346 OA
BRANCH  25  26
HETATM   26  C10 UNL     1      18.251   3.419  51.632  1.00  0.00     0.206 C 
BRANCH  26  27
HETATM   27  C11 UNL     1      18.231   2.693  50.304  1.00  0.00     0.299 C 
BRANCH  27  28
HETATM   28  N4  UNL     1      17.426   1.491  50.360  1.00  0.00     0.094 N 
HETATM   29  C12 UNL     1      16.510   1.605  51.497  1.00  0.00     0.298 C 
HETATM   30  C13 UNL     1      15.664   0.366  51.507  1.00  0.00     0.198 C 
HETATM   31  O2  UNL     1      16.460  -0.777  51.531  1.00  0.00    -0.388 OA
HETATM   32  C14 UNL     1      17.809  -0.481  51.657  1.00  0.00     0.198 C 
HETATM   33  C15 UNL     1      18.229   0.292  50.426  1.00  0.00     0.298 C 
ENDBRANCH  27  28
ENDBRANCH  26  27
ENDBRANCH  25  26
ENDBRANCH   7  25
TORSDOF 6
ENDMDL
MODEL 3
REMARK VINA RESULT:      -8.7      2.087      3.391
REMARK  6 active torsions:
REMARK  status: ('A' for Active; 'I' for Inactive)
REMARK    1  A    between atoms: C4_5  and  N1_6 
REMARK    2  A    between atoms: N1_6  and  C5_7 
REMARK    3  A    between atoms: C9_13  and  O1_14 
REMARK    4  A    between atoms: O1_14  and  C10_15 
REMARK    5  A    between atoms: C10_15  and  C11_16 
REMARK    6  A    between atoms: C11_16  and  N4_17 
ROOT
HETATM    1  C5  UNL     1      24.572   1.756  51.742  1.00  0.00     0.144 A 
HETATM    2  N2  UNL     1      25.118   2.639  50.853  1.00  0.00    -0.223 NA
HETATM    3  C6  UNL     1      24.285   3.065  49.861  1.00  0.00     0.236 A 
HETATM    4  N3  UNL     1      23.014   2.675  49.723  1.00  0.00    -0.241 NA
HETATM    5  C7  UNL     1      22.422   1.796  50.582  1.00  0.00     0.077 A 
HETATM    6  C8  UNL     1      21.121   1.394  50.434  1.00  0.00     0.072 A 
HETATM    7  C9  UNL     1      20.611   0.501  51.343  1.00  0.00     0.107 A 
HETATM    8  C16 UNL     1      21.395   0.025  52.378  1.00  0.00     0.136 A 
HETATM    9  C17 UNL     1      22.705   0.459  52.490  1.00  0.00     0.121 A 
HETATM   10  C18 UNL     1      23.268   1.356  51.602  1.00  0.00     0.075 A 
HETATM   11  O3  UNL     1      23.518   0.000  53.517  1.00  0.00    -0.345 OA
HETATM   12  C19 UNL     1      23.093  -0.943  54.487  1.00  0.00     0.202 C 
HETATM   13  C20 UNL     1      21.609  -1.096  54.568  1.00  0.00     0.202 C 
HETATM   14  O4  UNL     1      20.960  -0.869  53.328  1.00  0.00    -0.344 OA
ENDROOT
BRANCH   1  15
HETATM   15  N1  UNL     1      25.417   1.283  52.772  1.00  0.00    -0.340 N 
HETATM   16  H3  UNL     1      24.708   1.421  53.548  1.00  0.00     0.167 HD
BRANCH  15  17
HETATM   17  C4  UNL     1      26.712   0.763  53.017  1.00  0.00     0.035 A 
HETATM   18  C3  UNL     1      27.671   1.673  53.406  1.00  0.00     0.032 A 
HETATM   19  C2  UNL     1      28.916   1.203  53.665  1.00  0.00     0.046 A 
HETATM   20  C1  UNL     1      29.199  -0.142  53.541  1.00  0.00     0.138 A 
HETATM   21  F1  UNL     1      30.486  -0.525  53.823  1.00  0.00    -0.204 F 
HETATM   22  C22 UNL     1      28.205  -1.018  53.148  1.00  0.00     0.074 A 
HETATM   23  C21 UNL     1      26.926  -0.591  52.872  1.00  0.00     0.056 A 
HETATM   24 CL1  UNL     1      28.721  -2.682  53.038  1.00  0.00    -0.081 Cl
ENDBRANCH  15  17
ENDBRANCH   1  15
BRANCH   7  25
HETATM   25  O1  UNL     1      19.328  -0.007  51.336  1.00  0.00    -0.346 OA
BRANCH  25  26
HETATM   26  C10 UNL     1      18.163   0.703  51.716  1.00  0.00     0.206 C 
BRANCH  26  27
HETATM   27  C11 UNL     1      17.399   1.087  50.467  1.00  0.00     0.299 C 
BRANCH  27  28
HETATM   28  N4  UNL     1      16.503   2.198  50.705  1.00  0.00     0.094 N 
HETATM   29  C12 UNL     1      17.183   3.159  51.577  1.00  0.00     0.298 C 
HETATM   30  C13 UNL     1      16.247   4.314  51.773  1.00  0.00     0.198 C 
HETATM   31  O2  UNL     1      15.016   3.879  52.260  1.00  0.00    -0.388 OA
HETATM   32  C14 UNL     1      15.011   2.521  52.546  1.00  0.00     0.198 C 
HETATM   33  C15 UNL     1      15.232   1.776  51.248  1.00  0.00     0.298 C 
ENDBRANCH  27  28
ENDBRANCH  26  27
ENDBRANCH  25  26
ENDBRANCH   7  25
TORSDOF 6
ENDMDL
MODEL 4
REMARK VINA RESULT:      -8.7      2.180      3.628
REMARK  6 active torsions:
REMARK  status: ('A' for Active; 'I' for Inactive)
REMARK    1  A    between atoms: C4_5  and  N1_6 
REMARK    2  A    between atoms: N1_6  and  C5_7 
REMARK    3  A    between atoms: C9_13  and  O1_14 
REMARK    4  A    between atoms: O1_14  and  C10_15 
REMARK    5  A    between atoms: C10_15  and  C11_16 
REMARK    6  A    between atoms: C11_16  and  N4_17 
ROOT
HETATM    1  C5  UNL     1      24.797   2.271  51.576  1.00  0.00     0.144 A 
HETATM    2  N2  UNL     1      25.599   3.102  50.845  1.00  0.00    -0.223 NA
HETATM    3  C6  UNL     1      24.985   4.202  50.324  1.00  0.00     0.236 A 
HETATM    4  N3  UNL     1      23.690   4.493  50.487  1.00  0.00    -0.241 NA
HETATM    5  C7  UNL     1      22.848   3.698  51.207  1.00  0.00     0.077 A 
HETATM    6  C8  UNL     1      21.520   3.995  51.367  1.00  0.00     0.072 A 
HETATM    7  C9  UNL     1      20.747   3.132  52.102  1.00  0.00     0.107 A 
HETATM    8  C16 UNL     1      21.299   1.996  52.664  1.00  0.00     0.136 A 
HETATM    9  C17 UNL     1      22.646   1.734  52.478  1.00  0.00     0.121 A 
HETATM   10  C18 UNL     1      23.469   2.569  51.746  1.00  0.00     0.075 A 
HETATM   11  O3  UNL     1      23.231   0.602  53.028  1.00  0.00    -0.345 OA
HETATM   12  C19 UNL     1      22.511  -0.362  53.779  1.00  0.00     0.202 C 
HETATM   13  C20 UNL     1      21.188   0.125  54.273  1.00  0.00     0.202 C 
HETATM   14  O4  UNL     1      20.594   1.083  53.413  1.00  0.00    -0.344 OA
ENDROOT
BRANCH   1  15
HETATM   15  N1  UNL     1      25.402   1.113  52.116  1.00  0.00    -0.340 N 
HETATM   16  H3  UNL     1      24.517   0.528  52.106  1.00  0.00     0.167 HD
BRANCH  15  17
HETATM   17  C4  UNL     1      26.639   0.600  52.579  1.00  0.00     0.035 A 
HETATM   18  C3  UNL     1      27.532   1.522  53.080  1.00  0.00     0.032 A 
HETATM   19  C2  UNL     1      28.718   1.060  53.548  1.00  0.00     0.046 A 
HETATM   20  C1  UNL     1      29.007  -0.289  53.519  1.00  0.00     0.138 A 
HETATM   21  F1  UNL     1      30.231  -0.663  54.012  1.00  0.00    -0.204 F 
HETATM   22  C22 UNL     1      28.079  -1.177  53.008  1.00  0.00     0.074 A 
HETATM   23  C21 UNL     1      26.863  -0.759  52.519  1.00  0.00     0.056 A 
HETATM   24 CL1  UNL     1      28.594  -2.846  53.040  1.00  0.00    -0.081 Cl
ENDBRANCH  15  17
ENDBRANCH   1  15
BRANCH   7  25
HETATM   25  O1  UNL     1      19.398   3.280  52.356  1.00  0.00    -0.346 OA
BRANCH  25  26
HETATM   26  C10 UNL     1      18.421   3.655  51.401  1.00  0.00     0.206 C 
BRANCH  26  27
HETATM   27  C11 UNL     1      17.921   2.409  50.703  1.00  0.00     0.299 C 
BRANCH  27  28
HETATM   28  N4  UNL     1      17.537   1.381  51.648  1.00  0.00     0.094 N 
HETATM   29  C12 UNL     1      18.184   0.128  51.251  1.00  0.00     0.298 C 
HETATM   30  C13 UNL     1      17.800  -0.906  52.267  1.00  0.00     0.198 C 
HETATM   31  O2  UNL     1      16.415  -0.995  52.387  1.00  0.00    -0.388 OA
HETATM   32  C14 UNL     1      15.752  -0.200  51.463  1.00  0.00     0.198 C 
HETATM   33  C15 UNL     1      16.104   1.242  51.760  1.00  0.00     0.298 C 
ENDBRANCH  27  28
ENDBRANCH  26  27
ENDBRANCH  25  26
ENDBRANCH   7  25
TORSDOF 6
ENDMDL
MODEL 5
REMARK VINA RESULT:      -8.5      1.888      3.297
REMARK  6 active torsions:
REMARK  status: ('A' for Active; 'I' for Inactive)
REMARK    1  A    between atoms: C4_5  and  N1_6 
REMARK    2  A    between atoms: N1_6  and  C5_7 
REMARK    3  A    between atoms: C9_13  and  O1_14 
REMARK    4  A    between atoms: O1_14  and  C10_15 
REMARK    5  A    between atoms: C10_15  and  C11_16 
REMARK    6  A    between atoms: C11_16  and  N4_17 
ROOT
HETATM    1  C5  UNL     1      24.808   2.304  51.585  1.00  0.00     0.144 A 
HETATM    2  N2  UNL     1      25.615   3.158  50.887  1.00  0.00    -0.223 NA
HETATM    3  C6  UNL     1      25.007   4.278  50.404  1.00  0.00     0.236 A 
HETATM    4  N3  UNL     1      23.713   4.568  50.574  1.00  0.00    -0.241 NA
HETATM    5  C7  UNL     1      22.865   3.751  51.262  1.00  0.00     0.077 A 
HETATM    6  C8  UNL     1      21.538   4.048  51.429  1.00  0.00     0.072 A 
HETATM    7  C9  UNL     1      20.759   3.163  52.130  1.00  0.00     0.107 A 
HETATM    8  C16 UNL     1      21.305   2.005  52.652  1.00  0.00     0.136 A 
HETATM    9  C17 UNL     1      22.652   1.744  52.460  1.00  0.00     0.121 A 
HETATM   10  C18 UNL     1      23.480   2.602  51.761  1.00  0.00     0.075 A 
HETATM   11  O3  UNL     1      23.230   0.591  52.971  1.00  0.00    -0.345 OA
HETATM   12  C19 UNL     1      22.504  -0.397  53.684  1.00  0.00     0.202 C 
HETATM   13  C20 UNL     1      21.181   0.078  54.192  1.00  0.00     0.202 C 
HETATM   14  O4  UNL     1      20.594   1.069  53.366  1.00  0.00    -0.344 OA
ENDROOT
BRANCH   1  15
HETATM   15  N1  UNL     1      25.406   1.125  52.084  1.00  0.00    -0.340 N 
HETATM   16  H3  UNL     1      24.526   0.537  52.024  1.00  0.00     0.167 HD
BRANCH  15  17
HETATM   17  C4  UNL     1      26.634   0.597  52.555  1.00  0.00     0.035 A 
HETATM   18  C3  UNL     1      27.535   1.508  53.061  1.00  0.00     0.032 A 
HETATM   19  C2  UNL     1      28.713   1.031  53.535  1.00  0.00     0.046 A 
HETATM   20  C1  UNL     1      28.986  -0.320  53.507  1.00  0.00     0.138 A 
HETATM   21  F1  UNL     1      30.203  -0.710  54.007  1.00  0.00    -0.204 F 
HETATM   22  C22 UNL     1      28.051  -1.198  52.990  1.00  0.00     0.074 A 
HETATM   23  C21 UNL     1      26.842  -0.764  52.495  1.00  0.00     0.056 A 
HETATM   24 CL1  UNL     1      28.545  -2.872  53.025  1.00  0.00    -0.081 Cl
ENDBRANCH  15  17
ENDBRANCH   1  15
BRANCH   7  25
HETATM   25  O1  UNL     1      19.411   3.307  52.385  1.00  0.00    -0.346 OA
BRANCH  25  26
HETATM   26  C10 UNL     1      18.423   3.624  51.419  1.00  0.00     0.206 C 
BRANCH  26  27
HETATM   27  C11 UNL     1      17.597   2.385  51.145  1.00  0.00     0.299 C 
BRANCH  27  28
HETATM   28  N4  UNL     1      16.187   2.692  51.039  1.00  0.00     0.094 N 
HETATM   29  C12 UNL     1      16.051   4.054  50.517  1.00  0.00     0.298 C 
HETATM   30  C13 UNL     1      14.583   4.329  50.381  1.00  0.00     0.198 C 
HETATM   31  O2  UNL     1      13.924   4.115  51.590  1.00  0.00    -0.388 OA
HETATM   32  C14 UNL     1      14.799   3.822  52.625  1.00  0.00     0.198 C 
HETATM   33  C15 UNL     1      15.488   2.516  52.290  1.00  0.00     0.298 C 
ENDBRANCH  27  28
ENDBRANCH  26  27
ENDBRANCH  25  26
ENDBRANCH   7  25
TORSDOF 6
ENDMDL
MODEL 6
REMARK VINA RESULT:      -8.2      2.110      3.378
REMARK  6 active torsions:
REMARK  status: ('A' for Active; 'I' for Inactive)
REMARK    1  A    between atoms: C4_5  and  N1_6 
REMARK    2  A    between atoms: N1_6  and  C5_7 
REMARK    3  A    between atoms: C9_13  and  O1_14 
REMARK    4  A    between atoms: O1_14  and  C10_15 
REMARK    5  A    between atoms: C10_15  and  C11_16 
REMARK    6  A    between atoms: C11_16  and  N4_17 
ROOT
HETATM    1  C5  UNL     1      23.276   2.937  52.619  1.00  0.00     0.144 A 
HETATM    2  N2  UNL     1      23.991   4.072  52.354  1.00  0.00    -0.223 NA
HETATM    3  C6  UNL     1      23.280   5.100  51.809  1.00  0.00     0.236 A 
HETATM    4  N3  UNL     1      21.973   5.051  51.533  1.00  0.00    -0.241 NA
HETATM    5  C7  UNL     1      21.214   3.944  51.779  1.00  0.00     0.077 A 
HETATM    6  C8  UNL     1      19.876   3.896  51.489  1.00  0.00     0.072 A 
HETATM    7  C9  UNL     1      19.195   2.737  51.764  1.00  0.00     0.107 A 
HETATM    8  C16 UNL     1      19.848   1.652  52.319  1.00  0.00     0.136 A 
HETATM    9  C17 UNL     1      21.202   1.744  52.596  1.00  0.00     0.121 A 
HETATM   10  C18 UNL     1      21.934   2.887  52.338  1.00  0.00     0.075 A 
HETATM   11  O3  UNL     1      21.886   0.673  53.153  1.00  0.00    -0.345 OA
HETATM   12  C19 UNL     1      21.278  -0.575  53.446  1.00  0.00     0.202 C 
HETATM   13  C20 UNL     1      19.785  -0.520  53.494  1.00  0.00     0.202 C 
HETATM   14  O4  UNL     1      19.239   0.457  52.624  1.00  0.00    -0.344 OA
ENDROOT
BRANCH   1  15
HETATM   15  N1  UNL     1      23.989   1.848  53.169  1.00  0.00    -0.340 N 
HETATM   16  H3  UNL     1      23.175   1.476  53.737  1.00  0.00     0.167 HD
BRANCH  15  17
HETATM   17  C4  UNL     1      25.259   1.219  53.171  1.00  0.00     0.035 A 
HETATM   18  C3  UNL     1      26.312   1.972  53.645  1.00  0.00     0.032 A 
HETATM   19  C2  UNL     1      27.537   1.391  53.677  1.00  0.00     0.046 A 
HETATM   20  C1  UNL     1      27.709   0.092  53.248  1.00  0.00     0.138 A 
HETATM   21  F1  UNL     1      28.984  -0.411  53.315  1.00  0.00    -0.204 F 
HETATM   22  C22 UNL     1      26.623  -0.626  52.781  1.00  0.00     0.074 A 
HETATM   23  C21 UNL     1      25.361  -0.082  52.727  1.00  0.00     0.056 A 
HETATM   24 CL1  UNL     1      27.005  -2.253  52.277  1.00  0.00    -0.081 Cl
ENDBRANCH  15  17
ENDBRANCH   1  15
BRANCH   7  25
HETATM   25  O1  UNL     1      17.853   2.521  51.531  1.00  0.00    -0.346 OA
BRANCH  25  26
HETATM   26  C10 UNL     1      17.063   3.213  50.580  1.00  0.00     0.206 C 
BRANCH  26  27
HETATM   27  C11 UNL     1      16.128   4.150  51.314  1.00  0.00     0.299 C 
BRANCH  27  28
HETATM   28  N4  UNL     1      15.310   3.446  52.279  1.00  0.00     0.094 N 
HETATM   29  C12 UNL     1      14.118   2.945  51.591  1.00  0.00     0.298 C 
HETATM   30  C13 UNL     1      13.310   2.189  52.604  1.00  0.00     0.198 C 
HETATM   31  O2  UNL     1      13.034   2.985  53.713  1.00  0.00    -0.388 OA
HETATM   32  C14 UNL     1      13.468   4.292  53.547  1.00  0.00     0.198 C 
HETATM   33  C15 UNL     1      14.976   4.264  53.421  1.00  0.00     0.298 C 
ENDBRANCH  27  28
ENDBRANCH  26  27
ENDBRANCH  25  26
ENDBRANCH   7  25
TORSDOF 6
ENDMDL
MODEL 7
REMARK VINA RESULT:      -8.1      5.294      8.877
REMARK  6 active torsions:
REMARK  status: ('A' for Active; 'I' for Inactive)
REMARK    1  A    between atoms: C4_5  and  N1_6 
REMARK    2  A    between atoms: N1_6  and  C5_7 
REMARK    3  A    between atoms: C9_13  and  O1_14 
REMARK    4  A    between atoms: O1_14  and  C10_15 
REMARK    5  A    between atoms: C10_15  and  C11_16 
REMARK    6  A    between atoms: C11_16  and  N4_17 
ROOT
HETATM    1  C5  UNL     1      24.495   2.002  52.109  1.00  0.00     0.144 A 
HETATM    2  N2  UNL     1      25.446   1.048  52.337  1.00  0.00    -0.223 NA
HETATM    3  C6  UNL     1      26.638   1.243  51.705  1.00  0.00     0.236 A 
HETATM    4  N3  UNL     1      26.908   2.280  50.906  1.00  0.00    -0.241 NA
HETATM    5  C7  UNL     1      25.995   3.260  50.645  1.00  0.00     0.077 A 
HETATM    6  C8  UNL     1      26.272   4.317  49.821  1.00  0.00     0.072 A 
HETATM    7  C9  UNL     1      25.289   5.251  49.612  1.00  0.00     0.107 A 
HETATM    8  C16 UNL     1      24.055   5.123  50.221  1.00  0.00     0.136 A 
HETATM    9  C17 UNL     1      23.817   4.037  51.047  1.00  0.00     0.121 A 
HETATM   10  C18 UNL     1      24.771   3.068  51.291  1.00  0.00     0.075 A 
HETATM   11  O3  UNL     1      22.588   3.878  51.673  1.00  0.00    -0.345 OA
HETATM   12  C19 UNL     1      21.502   4.773  51.498  1.00  0.00     0.202 C 
HETATM   13  C20 UNL     1      21.897   6.096  50.927  1.00  0.00     0.202 C 
HETATM   14  O4  UNL     1      23.019   6.013  50.063  1.00  0.00    -0.344 OA
ENDROOT
BRANCH   1  15
HETATM   15  N1  UNL     1      23.243   1.819  52.739  1.00  0.00    -0.340 N 
HETATM   16  H3  UNL     1      23.121   2.836  53.010  1.00  0.00     0.167 HD
BRANCH  15  17
HETATM   17  C4  UNL     1      22.272   0.834  53.049  1.00  0.00     0.035 A 
HETATM   18  C3  UNL     1      22.605  -0.059  54.044  1.00  0.00     0.032 A 
HETATM   19  C2  UNL     1      21.689  -1.001  54.377  1.00  0.00     0.046 A 
HETATM   20  C1  UNL     1      20.470  -1.053  53.734  1.00  0.00     0.138 A 
HETATM   21  F1  UNL     1      19.607  -2.042  54.135  1.00  0.00    -0.204 F 
HETATM   22  C22 UNL     1      20.179  -0.136  52.741  1.00  0.00     0.074 A 
HETATM   23  C21 UNL     1      21.074   0.839  52.366  1.00  0.00     0.056 A 
HETATM   24 CL1  UNL     1      18.599  -0.334  52.025  1.00  0.00    -0.081 Cl
ENDBRANCH  15  17
ENDBRANCH   1  15
BRANCH   7  25
HETATM   25  O1  UNL     1      25.402   6.370  48.812  1.00  0.00    -0.346 OA
BRANCH  25  26
HETATM   26  C10 UNL     1      26.500   7.265  48.803  1.00  0.00     0.206 C 
BRANCH  26  27
HETATM   27  C11 UNL     1      26.400   8.168  50.013  1.00  0.00     0.299 C 
BRANCH  27  28
HETATM   28  N4  UNL     1      27.014   9.457  49.775  1.00  0.00     0.094 N 
HETATM   29  C12 UNL     1      26.423  10.030  48.563  1.00  0.00     0.298 C 
HETATM   30  C13 UNL     1      27.049  11.378  48.363  1.00  0.00     0.198 C 
HETATM   31  O2  UNL     1      28.438  11.281  48.327  1.00  0.00    -0.388 OA
HETATM   32  C14 UNL     1      28.877   9.965  48.365  1.00  0.00     0.198 C 
HETATM   33  C15 UNL     1      28.454   9.376  49.693  1.00  0.00     0.298 C 
ENDBRANCH  27  28
ENDBRANCH  26  27
ENDBRANCH  25  26
ENDBRANCH   7  25
TORSDOF 6
ENDMDL
MODEL 8
REMARK VINA RESULT:      -7.9      2.822      3.359
REMARK  6 active torsions:
REMARK  status: ('A' for Active; 'I' for Inactive)
REMARK    1  A    between atoms: C4_5  and  N1_6 
REMARK    2  A    between atoms: N1_6  and  C5_7 
REMARK    3  A    between atoms: C9_13  and  O1_14 
REMARK    4  A    between atoms: O1_14  and  C10_15 
REMARK    5  A    between atoms: C10_15  and  C11_16 
REMARK    6  A    between atoms: C11_16  and  N4_17 
ROOT
HETATM    1  C5  UNL     1      23.767   0.943  52.458  1.00  0.00     0.144 A 
HETATM    2  N2  UNL     1      23.204  -0.054  53.204  1.00  0.00    -0.223 NA
HETATM    3  C6  UNL     1      21.892   0.123  53.527  1.00  0.00     0.236 A 
HETATM    4  N3  UNL     1      21.161   1.183  53.165  1.00  0.00    -0.241 NA
HETATM    5  C7  UNL     1      21.675   2.205  52.421  1.00  0.00     0.077 A 
HETATM    6  C8  UNL     1      20.925   3.292  52.057  1.00  0.00     0.072 A 
HETATM    7  C9  UNL     1      21.529   4.276  51.315  1.00  0.00     0.107 A 
HETATM    8  C16 UNL     1      22.857   4.165  50.947  1.00  0.00     0.136 A 
HETATM    9  C17 UNL     1      23.578   3.049  51.336  1.00  0.00     0.121 A 
HETATM   10  C18 UNL     1      23.019   2.030  52.085  1.00  0.00     0.075 A 
HETATM   11  O3  UNL     1      24.912   2.908  50.984  1.00  0.00    -0.345 OA
HETATM   12  C19 UNL     1      25.631   3.881  50.243  1.00  0.00     0.202 C 
HETATM   13  C20 UNL     1      24.757   4.861  49.531  1.00  0.00     0.202 C 
HETATM   14  O4  UNL     1      23.534   5.105  50.205  1.00  0.00    -0.344 OA
ENDROOT
BRANCH   1  15
HETATM   15  N1  UNL     1      25.132   0.795  52.121  1.00  0.00    -0.340 N 
HETATM   16  H3  UNL     1      25.016   1.099  51.112  1.00  0.00     0.167 HD
BRANCH  15  17
HETATM   17  C4  UNL     1      26.391   0.427  52.658  1.00  0.00     0.035 A 
HETATM   18  C3  UNL     1      26.746  -0.898  52.527  1.00  0.00     0.032 A 
HETATM   19  C2  UNL     1      27.953  -1.278  53.014  1.00  0.00     0.046 A 
HETATM   20  C1  UNL     1      28.787  -0.359  53.617  1.00  0.00     0.138 A 
HETATM   21  F1  UNL     1      29.987  -0.835  54.081  1.00  0.00    -0.204 F 
HETATM   22  C22 UNL     1      28.389   0.960  53.725  1.00  0.00     0.074 A 
HETATM   23  C21 UNL     1      27.174   1.396  53.249  1.00  0.00     0.056 A 
HETATM   24 CL1  UNL     1      29.554   1.996  54.512  1.00  0.00    -0.081 Cl
ENDBRANCH  15  17
ENDBRANCH   1  15
BRANCH   7  25
HETATM   25  O1  UNL     1      20.922   5.433  50.871  1.00  0.00    -0.346 OA
BRANCH  25  26
HETATM   26  C10 UNL     1      19.787   5.491  50.024  1.00  0.00     0.206 C 
BRANCH  26  27
HETATM   27  C11 UNL     1      20.233   5.245  48.598  1.00  0.00     0.299 C 
BRANCH  27  28
HETATM   28  N4  UNL     1      19.540   4.122  48.005  1.00  0.00     0.094 N 
HETATM   29  C12 UNL     1      19.136   4.496  46.647  1.00  0.00     0.298 C 
HETATM   30  C13 UNL     1      18.456   3.303  46.045  1.00  0.00     0.198 C 
HETATM   31  O2  UNL     1      17.406   2.870  46.851  1.00  0.00    -0.388 OA
HETATM   32  C14 UNL     1      17.185   3.714  47.930  1.00  0.00     0.198 C 
HETATM   33  C15 UNL     1      18.420   3.679  48.803  1.00  0.00     0.298 C 
ENDBRANCH  27  28
ENDBRANCH  26  27
ENDBRANCH  25  26
ENDBRANCH   7  25
TORSDOF 6
ENDMDL
MODEL 9
REMARK VINA RESULT:      -7.7      3.669      4.993
REMARK  6 active torsions:
REMARK  status: ('A' for Active; 'I' for Inactive)
REMARK    1  A    between atoms: C4_5  and  N1_6 
REMARK    2  A    between atoms: N1_6  and  C5_7 
REMARK    3  A    between atoms: C9_13  and  O1_14 
REMARK    4  A    between atoms: O1_14  and  C10_15 
REMARK    5  A    between atoms: C10_15  and  C11_16 
REMARK    6  A    between atoms: C11_16  and  N4_17 
ROOT
HETATM    1  C5  UNL     1      25.296   2.389  51.194  1.00  0.00     0.144 A 
HETATM    2  N2  UNL     1      26.279   2.300  52.140  1.00  0.00    -0.223 NA
HETATM    3  C6  UNL     1      25.965   1.568  53.246  1.00  0.00     0.236 A 
HETATM    4  N3  UNL     1      24.791   0.960  53.441  1.00  0.00    -0.241 NA
HETATM    5  C7  UNL     1      23.777   1.017  52.530  1.00  0.00     0.077 A 
HETATM    6  C8  UNL     1      22.573   0.398  52.736  1.00  0.00     0.072 A 
HETATM    7  C9  UNL     1      21.609   0.516  51.767  1.00  0.00     0.107 A 
HETATM    8  C16 UNL     1      21.854   1.241  50.615  1.00  0.00     0.136 A 
HETATM    9  C17 UNL     1      23.086   1.851  50.448  1.00  0.00     0.121 A 
HETATM   10  C18 UNL     1      24.091   1.764  51.393  1.00  0.00     0.075 A 
HETATM   11  O3  UNL     1      23.364   2.586  49.304  1.00  0.00    -0.345 OA
HETATM   12  C19 UNL     1      22.426   2.790  48.260  1.00  0.00     0.202 C 
HETATM   13  C20 UNL     1      21.277   1.834  48.288  1.00  0.00     0.202 C 
HETATM   14  O4  UNL     1      20.944   1.407  49.598  1.00  0.00    -0.344 OA
ENDROOT
BRANCH   1  15
HETATM   15  N1  UNL     1      25.585   3.156  50.043  1.00  0.00    -0.340 N 
HETATM   16  H3  UNL     1      25.260   2.420  49.352  1.00  0.00     0.167 HD
BRANCH  15  17
HETATM   17  C4  UNL     1      26.092   4.411  49.624  1.00  0.00     0.035 A 
HETATM   18  C3  UNL     1      27.252   4.384  48.881  1.00  0.00     0.032 A 
HETATM   19  C2  UNL     1      27.752   5.568  48.450  1.00  0.00     0.046 A 
HETATM   20  C1  UNL     1      27.110   6.752  48.750  1.00  0.00     0.138 A 
HETATM   21  F1  UNL     1      27.690   7.900  48.273  1.00  0.00    -0.204 F 
HETATM   22  C22 UNL     1      25.948   6.731  49.498  1.00  0.00     0.074 A 
HETATM   23  C21 UNL     1      25.401   5.556  49.960  1.00  0.00     0.056 A 
HETATM   24 CL1  UNL     1      25.258   8.308  49.792  1.00  0.00    -0.081 Cl
ENDBRANCH  15  17
ENDBRANCH   1  15
BRANCH   7  25
HETATM   25  O1  UNL     1      20.347  -0.039  51.818  1.00  0.00    -0.346 OA
BRANCH  25  26
HETATM   26  C10 UNL     1      19.565  -0.193  52.990  1.00  0.00     0.206 C 
BRANCH  26  27
HETATM   27  C11 UNL     1      18.298  -0.940  52.633  1.00  0.00     0.299 C 
BRANCH  27  28
HETATM   28  N4  UNL     1      17.305  -0.065  52.047  1.00  0.00     0.094 N 
HETATM   29  C12 UNL     1      16.025  -0.309  52.717  1.00  0.00     0.298 C 
HETATM   30  C13 UNL     1      15.028   0.637  52.117  1.00  0.00     0.198 C 
HETATM   31  O2  UNL     1      14.980   0.497  50.732  1.00  0.00    -0.388 OA
HETATM   32  C14 UNL     1      15.770  -0.550  50.279  1.00  0.00     0.198 C 
HETATM   33  C15 UNL     1      17.209  -0.220  50.615  1.00  0.00     0.298 C 
ENDBRANCH  27  28
ENDBRANCH  26  27
ENDBRANCH  25  26
ENDBRANCH   7  25
TORSDOF 6
ENDMDL
