MODEL 1
REMARK VINA RESULT:      -8.3      0.000      0.000
REMARK  8 active torsions:
REMARK  status: ('A' for Active; 'I' for Inactive)
REMARK    1  A    between atoms: O1_2  and  C2_3 
REMARK    2  A    between atoms: C6_9  and  N3_10 
REMARK    3  A    between atoms: N3_10  and  C7_11 
REMARK    4  A    between atoms: C7_11  and  C9_13 
REMARK    5  A    between atoms: C16_21  and  C17_22 
REMARK    6  A    between atoms: C17_22  and  C18_23 
REMARK    7  A    between atoms: C17_22  and  N4_25 
REMARK    8  A    between atoms: N4_25  and  O4_26 
ROOT
HETATM    1  C2  UNL     1      25.855  -0.585  53.164  1.00  0.00     0.054 C 
HETATM    2  C3  UNL     1      24.590  -0.376  53.337  1.00  0.00     0.046 C 
HETATM    3  C4  UNL     1      23.620   0.640  53.108  1.00  0.00     0.219 C 
HETATM    4  N1  UNL     1      22.675   1.451  52.964  1.00  0.00    -0.278 NA
HETATM    5  C5  UNL     1      22.998   2.711  52.338  1.00  0.00     0.171 C 
HETATM    6  N2  UNL     1      23.763   3.482  51.670  1.00  0.00    -0.231 NA
HETATM    7  C6  UNL     1      25.053   3.182  51.127  1.00  0.00     0.487 C 
HETATM    8  O2  UNL     1      25.322   1.802  51.371  1.00  0.00    -0.340 OA
HETATM    9  C15 UNL     1      26.361   1.696  52.232  1.00  0.00     0.185 C 
HETATM   10  C16 UNL     1      26.875   0.316  52.587  1.00  0.00     0.089 C 
ENDROOT
BRANCH   7  11
HETATM   11  N3  UNL     1      25.218   3.538  49.760  1.00  0.00     0.142 N 
HETATM   12  H8  UNL     1      24.617   2.942  49.135  1.00  0.00     0.322 HD
BRANCH  11  13
HETATM   13  C7  UNL     1      25.076   4.943  49.487  1.00  0.00     0.255 C 
HETATM   14  C8  UNL     1      23.881   5.193  48.640  1.00  0.00     0.048 C 
BRANCH  13  15
HETATM   15  C9  UNL     1      26.361   5.414  48.924  1.00  0.00    -0.026 A 
HETATM   16  C10 UNL     1      26.378   6.738  48.460  1.00  0.00     0.009 A 
HETATM   17  C11 UNL     1      27.528   7.298  47.912  1.00  0.00     0.001 A 
HETATM   18  C12 UNL     1      28.707   6.578  47.797  1.00  0.00     0.000 A 
HETATM   19  C13 UNL     1      28.698   5.272  48.252  1.00  0.00     0.001 A 
HETATM   20  C14 UNL     1      27.558   4.752  48.784  1.00  0.00     0.009 A 
ENDBRANCH  13  15
ENDBRANCH  11  13
ENDBRANCH   7  11
BRANCH  10  21
HETATM   21  C17 UNL     1      28.003   0.600  53.580  1.00  0.00     0.129 C 
BRANCH  21  22
HETATM   22  C18 UNL     1      28.395   2.031  53.465  1.00  0.00     0.413 C 
HETATM   23  O3  UNL     1      28.964   2.769  54.279  1.00  0.00    -0.428 OA
ENDBRANCH  21  22
BRANCH  21  24
HETATM   24  N4  UNL     1      29.123  -0.259  53.544  1.00  0.00    -0.201 NA
HETATM   25  H23 UNL     1      29.365  -0.678  54.491  1.00  0.00     0.154 HD
BRANCH  24  26
HETATM   26  O4  UNL     1      30.218   0.571  53.328  1.00  0.00    -0.315 OA
HETATM   27  H24 UNL     1      30.059   1.417  53.845  1.00  0.00     0.236 HD
ENDBRANCH  24  26
ENDBRANCH  21  24
ENDBRANCH  10  21
BRANCH   1  28
HETATM   28  O1  UNL     1      26.625  -1.674  53.459  1.00  0.00    -0.360 OA
HETATM   29  C1  UNL     1      26.919  -2.554  52.365  1.00  0.00     0.209 C 
ENDBRANCH   1  28
TORSDOF 8
ENDMDL
MODEL 2
REMARK VINA RESULT:      -7.9      1.188      1.239
REMARK  8 active torsions:
REMARK  status: ('A' for Active; 'I' for Inactive)
REMARK    1  A    between atoms: O1_2  and  C2_3 
REMARK    2  A    between atoms: C6_9  and  N3_10 
REMARK    3  A    between atoms: N3_10  and  C7_11 
REMARK    4  A    between atoms: C7_11  and  C9_13 
REMARK    5  A    between atoms: C16_21  and  C17_22 
REMARK    6  A    between atoms: C17_22  and  C18_23 
REMARK    7  A    between atoms: C17_22  and  N4_25 
REMARK    8  A    between atoms: N4_25  and  O4_26 
ROOT
HETATM    1  C2  UNL     1      25.345  -0.280  53.221  1.00  0.00     0.054 C 
HETATM    2  C3  UNL     1      24.063  -0.448  53.243  1.00  0.00     0.046 C 
HETATM    3  C4  UNL     1      22.875   0.239  52.863  1.00  0.00     0.219 C 
HETATM    4  N1  UNL     1      21.761   0.737  52.579  1.00  0.00    -0.278 NA
HETATM    5  C5  UNL     1      21.779   2.030  51.937  1.00  0.00     0.171 C 
HETATM    6  N2  UNL     1      22.363   2.984  51.325  1.00  0.00    -0.231 NA
HETATM    7  C6  UNL     1      23.739   3.068  50.942  1.00  0.00     0.487 C 
HETATM    8  O2  UNL     1      24.363   1.829  51.275  1.00  0.00    -0.340 OA
HETATM    9  C15 UNL     1      25.279   2.040  52.250  1.00  0.00     0.185 C 
HETATM   10  C16 UNL     1      26.123   0.873  52.721  1.00  0.00     0.089 C 
ENDROOT
BRANCH   7  11
HETATM   11  N3  UNL     1      23.956   3.442  49.586  1.00  0.00     0.142 N 
HETATM   12  H8  UNL     1      23.287   2.947  48.943  1.00  0.00     0.322 HD
BRANCH  11  13
HETATM   13  C7  UNL     1      23.996   4.862  49.358  1.00  0.00     0.255 C 
HETATM   14  C8  UNL     1      22.967   5.260  48.363  1.00  0.00     0.048 C 
BRANCH  13  15
HETATM   15  C9  UNL     1      25.389   5.211  49.003  1.00  0.00    -0.026 A 
HETATM   16  C10 UNL     1      25.599   6.529  48.571  1.00  0.00     0.009 A 
HETATM   17  C11 UNL     1      26.865   6.981  48.212  1.00  0.00     0.001 A 
HETATM   18  C12 UNL     1      27.976   6.153  48.262  1.00  0.00     0.000 A 
HETATM   19  C13 UNL     1      27.777   4.851  48.686  1.00  0.00     0.001 A 
HETATM   20  C14 UNL     1      26.526   4.440  49.032  1.00  0.00     0.009 A 
ENDBRANCH  13  15
ENDBRANCH  11  13
ENDBRANCH   7  11
BRANCH  10  21
HETATM   21  C17 UNL     1      26.995   1.485  53.819  1.00  0.00     0.129 C 
BRANCH  21  22
HETATM   22  C18 UNL     1      28.345   1.766  53.259  1.00  0.00     0.413 C 
HETATM   23  O3  UNL     1      29.018   2.804  53.286  1.00  0.00    -0.428 OA
ENDBRANCH  21  22
BRANCH  21  24
HETATM   24  N4  UNL     1      27.066   0.791  55.046  1.00  0.00    -0.201 NA
HETATM   25  H23 UNL     1      26.879   1.407  55.892  1.00  0.00     0.154 HD
BRANCH  24  26
HETATM   26  O4  UNL     1      28.412   0.489  55.223  1.00  0.00    -0.315 OA
HETATM   27  H24 UNL     1      28.463  -0.303  55.839  1.00  0.00     0.236 HD
ENDBRANCH  24  26
ENDBRANCH  21  24
ENDBRANCH  10  21
BRANCH   1  28
HETATM   28  O1  UNL     1      26.356  -1.094  53.648  1.00  0.00    -0.360 OA
HETATM   29  C1  UNL     1      26.932  -1.957  52.658  1.00  0.00     0.209 C 
ENDBRANCH   1  28
TORSDOF 8
ENDMDL
MODEL 3
REMARK VINA RESULT:      -7.9      3.669      6.925
REMARK  8 active torsions:
REMARK  status: ('A' for Active; 'I' for Inactive)
REMARK    1  A    between atoms: O1_2  and  C2_3 
REMARK    2  A    between atoms: C6_9  and  N3_10 
REMARK    3  A    between atoms: N3_10  and  C7_11 
REMARK    4  A    between atoms: C7_11  and  C9_13 
REMARK    5  A    between atoms: C16_21  and  C17_22 
REMARK    6  A    between atoms: C17_22  and  C18_23 
REMARK    7  A    between atoms: C17_22  and  N4_25 
REMARK    8  A    between atoms: N4_25  and  O4_26 
ROOT
HETATM    1  C2  UNL     1      19.248   1.090  51.975  1.00  0.00     0.054 C 
HETATM    2  C3  UNL     1      19.341   2.356  51.731  1.00  0.00     0.046 C 
HETATM    3  C4  UNL     1      20.313   3.396  51.760  1.00  0.00     0.219 C 
HETATM    4  N1  UNL     1      21.069   4.395  51.745  1.00  0.00    -0.278 NA
HETATM    5  C5  UNL     1      22.445   4.167  52.118  1.00  0.00     0.171 C 
HETATM    6  N2  UNL     1      23.444   3.412  52.357  1.00  0.00    -0.231 NA
HETATM    7  C6  UNL     1      23.501   1.984  52.288  1.00  0.00     0.487 C 
HETATM    8  O2  UNL     1      22.246   1.518  51.795  1.00  0.00    -0.340 OA
HETATM    9  C15 UNL     1      21.620   0.813  52.767  1.00  0.00     0.185 C 
HETATM   10  C16 UNL     1      20.291   0.157  52.451  1.00  0.00     0.089 C 
ENDROOT
BRANCH   7  11
HETATM   11  N3  UNL     1      24.603   1.469  51.550  1.00  0.00     0.142 N 
HETATM   12  H8  UNL     1      24.397   1.454  50.519  1.00  0.00     0.322 HD
BRANCH  11  13
HETATM   13  C7  UNL     1      25.866   2.087  51.854  1.00  0.00     0.255 C 
HETATM   14  C8  UNL     1      26.386   2.820  50.671  1.00  0.00     0.048 C 
BRANCH  13  15
HETATM   15  C9  UNL     1      26.755   1.030  52.385  1.00  0.00    -0.026 A 
HETATM   16  C10 UNL     1      27.938   1.475  52.994  1.00  0.00     0.009 A 
HETATM   17  C11 UNL     1      28.855   0.579  53.536  1.00  0.00     0.001 A 
HETATM   18  C12 UNL     1      28.645  -0.790  53.500  1.00  0.00     0.000 A 
HETATM   19  C13 UNL     1      27.480  -1.237  52.902  1.00  0.00     0.001 A 
HETATM   20  C14 UNL     1      26.603  -0.336  52.381  1.00  0.00     0.009 A 
ENDBRANCH  13  15
ENDBRANCH  11  13
ENDBRANCH   7  11
BRANCH  10  21
HETATM   21  C17 UNL     1      19.897  -0.505  53.772  1.00  0.00     0.129 C 
BRANCH  21  22
HETATM   22  C18 UNL     1      21.122  -0.708  54.593  1.00  0.00     0.413 C 
HETATM   23  O3  UNL     1      21.585  -1.742  55.089  1.00  0.00    -0.428 OA
ENDBRANCH  21  22
BRANCH  21  24
HETATM   24  N4  UNL     1      19.111  -1.675  53.697  1.00  0.00    -0.201 NA
HETATM   25  H23 UNL     1      18.891  -1.973  52.701  1.00  0.00     0.154 HD
BRANCH  24  26
HETATM   26  O4  UNL     1      17.851  -1.305  54.155  1.00  0.00    -0.315 OA
HETATM   27  H24 UNL     1      17.930  -0.374  54.525  1.00  0.00     0.236 HD
ENDBRANCH  24  26
ENDBRANCH  21  24
ENDBRANCH  10  21
BRANCH   1  28
HETATM   28  O1  UNL     1      18.183   0.240  51.876  1.00  0.00    -0.360 OA
HETATM   29  C1  UNL     1      16.949   0.823  51.434  1.00  0.00     0.209 C 
ENDBRANCH   1  28
TORSDOF 8
ENDMDL
MODEL 4
REMARK VINA RESULT:      -7.8      3.486      5.098
REMARK  8 active torsions:
REMARK  status: ('A' for Active; 'I' for Inactive)
REMARK    1  A    between atoms: O1_2  and  C2_3 
REMARK    2  A    between atoms: C6_9  and  N3_10 
REMARK    3  A    between atoms: N3_10  and  C7_11 
REMARK    4  A    between atoms: C7_11  and  C9_13 
REMARK    5  A    between atoms: C16_21  and  C17_22 
REMARK    6  A    between atoms: C17_22  and  C18_23 
REMARK    7  A    between atoms: C17_22  and  N4_25 
REMARK    8  A    between atoms: N4_25  and  O4_26 
ROOT
HETATM    1  C2  UNL     1      25.549   0.064  53.317  1.00  0.00     0.054 C 
HETATM    2  C3  UNL     1      25.039  -0.703  54.225  1.00  0.00     0.046 C 
HETATM    3  C4  UNL     1      23.767  -1.043  54.765  1.00  0.00     0.219 C 
HETATM    4  N1  UNL     1      22.713  -1.425  55.326  1.00  0.00    -0.278 NA
HETATM    5  C5  UNL     1      21.480  -0.861  54.832  1.00  0.00     0.171 C 
HETATM    6  N2  UNL     1      20.791  -0.221  53.971  1.00  0.00    -0.231 NA
HETATM    7  C6  UNL     1      21.240   0.352  52.739  1.00  0.00     0.487 C 
HETATM    8  O2  UNL     1      22.611  -0.001  52.564  1.00  0.00    -0.340 OA
HETATM    9  C15 UNL     1      23.371   1.118  52.627  1.00  0.00     0.185 C 
HETATM   10  C16 UNL     1      24.864   0.998  52.398  1.00  0.00     0.089 C 
ENDROOT
BRANCH   7  11
HETATM   11  N3  UNL     1      20.443   0.024  51.606  1.00  0.00     0.142 N 
HETATM   12  H8  UNL     1      19.783  -0.767  51.821  1.00  0.00     0.322 HD
BRANCH  11  13
HETATM   13  C7  UNL     1      19.782   1.146  50.997  1.00  0.00     0.255 C 
HETATM   14  C8  UNL     1      18.531   0.712  50.321  1.00  0.00     0.048 C 
BRANCH  13  15
HETATM   15  C9  UNL     1      20.771   1.819  50.126  1.00  0.00    -0.026 A 
HETATM   16  C10 UNL     1      21.206   1.086  49.012  1.00  0.00     0.009 A 
HETATM   17  C11 UNL     1      22.132   1.611  48.116  1.00  0.00     0.001 A 
HETATM   18  C12 UNL     1      22.668   2.879  48.281  1.00  0.00     0.000 A 
HETATM   19  C13 UNL     1      22.245   3.608  49.377  1.00  0.00     0.001 A 
HETATM   20  C14 UNL     1      21.337   3.067  50.235  1.00  0.00     0.009 A 
ENDBRANCH  13  15
ENDBRANCH  11  13
ENDBRANCH   7  11
BRANCH  10  21
HETATM   21  C17 UNL     1      25.367   2.432  52.574  1.00  0.00     0.129 C 
BRANCH  21  22
HETATM   22  C18 UNL     1      24.214   3.307  52.921  1.00  0.00     0.413 C 
HETATM   23  O3  UNL     1      23.873   4.399  52.450  1.00  0.00    -0.428 OA
ENDBRANCH  21  22
BRANCH  21  24
HETATM   24  N4  UNL     1      26.145   2.974  51.527  1.00  0.00    -0.201 NA
HETATM   25  H23 UNL     1      26.150   2.374  50.650  1.00  0.00     0.154 HD
BRANCH  24  26
HETATM   26  O4  UNL     1      27.465   2.853  51.948  1.00  0.00    -0.315 OA
HETATM   27  H24 UNL     1      27.978   3.617  51.546  1.00  0.00     0.236 HD
ENDBRANCH  24  26
ENDBRANCH  21  24
ENDBRANCH  10  21
BRANCH   1  28
HETATM   28  O1  UNL     1      26.848   0.250  52.935  1.00  0.00    -0.360 OA
HETATM   29  C1  UNL     1      27.848  -0.142  53.886  1.00  0.00     0.209 C 
ENDBRANCH   1  28
TORSDOF 8
ENDMDL
MODEL 5
REMARK VINA RESULT:      -7.7      2.767      6.820
REMARK  8 active torsions:
REMARK  status: ('A' for Active; 'I' for Inactive)
REMARK    1  A    between atoms: O1_2  and  C2_3 
REMARK    2  A    between atoms: C6_9  and  N3_10 
REMARK    3  A    between atoms: N3_10  and  C7_11 
REMARK    4  A    between atoms: C7_11  and  C9_13 
REMARK    5  A    between atoms: C16_21  and  C17_22 
REMARK    6  A    between atoms: C17_22  and  C18_23 
REMARK    7  A    between atoms: C17_22  and  N4_25 
REMARK    8  A    between atoms: N4_25  and  O4_26 
ROOT
HETATM    1  C2  UNL     1      23.575   6.072  50.060  1.00  0.00     0.054 C 
HETATM    2  C3  UNL     1      22.486   5.389  49.922  1.00  0.00     0.046 C 
HETATM    3  C4  UNL     1      22.028   4.047  50.048  1.00  0.00     0.219 C 
HETATM    4  N1  UNL     1      21.502   2.911  50.119  1.00  0.00    -0.278 NA
HETATM    5  C5  UNL     1      22.361   1.829  50.536  1.00  0.00     0.171 C 
HETATM    6  N2  UNL     1      23.435   1.366  51.045  1.00  0.00    -0.231 NA
HETATM    7  C6  UNL     1      24.549   2.100  51.560  1.00  0.00     0.487 C 
HETATM    8  O2  UNL     1      24.223   3.488  51.509  1.00  0.00    -0.340 OA
HETATM    9  C15 UNL     1      25.039   4.105  50.621  1.00  0.00     0.185 C 
HETATM   10  C16 UNL     1      24.923   5.605  50.447  1.00  0.00     0.089 C 
ENDROOT
BRANCH   7  11
HETATM   11  N3  UNL     1      24.985   1.689  52.851  1.00  0.00     0.142 N 
HETATM   12  H8  UNL     1      24.298   1.976  53.594  1.00  0.00     0.322 HD
BRANCH  11  13
HETATM   13  C7  UNL     1      25.353   0.301  52.943  1.00  0.00     0.255 C 
HETATM   14  C8  UNL     1      24.496  -0.402  53.933  1.00  0.00     0.048 C 
BRANCH  13  15
HETATM   15  C9  UNL     1      26.806   0.249  53.214  1.00  0.00    -0.026 A 
HETATM   16  C10 UNL     1      27.421  -0.997  53.020  1.00  0.00     0.009 A 
HETATM   17  C11 UNL     1      28.784  -1.174  53.238  1.00  0.00     0.001 A 
HETATM   18  C12 UNL     1      29.597  -0.132  53.657  1.00  0.00     0.000 A 
HETATM   19  C13 UNL     1      28.998   1.100  53.851  1.00  0.00     0.001 A 
HETATM   20  C14 UNL     1      27.663   1.242  53.628  1.00  0.00     0.009 A 
ENDBRANCH  13  15
ENDBRANCH  11  13
ENDBRANCH   7  11
BRANCH  10  21
HETATM   21  C17 UNL     1      25.961   5.919  49.368  1.00  0.00     0.129 C 
BRANCH  21  22
HETATM   22  C18 UNL     1      26.773   4.699  49.113  1.00  0.00     0.413 C 
HETATM   23  O3  UNL     1      27.908   4.584  48.635  1.00  0.00    -0.428 OA
ENDBRANCH  21  22
BRANCH  21  24
HETATM   24  N4  UNL     1      26.769   7.060  49.565  1.00  0.00    -0.201 NA
HETATM   25  H23 UNL     1      27.796   6.830  49.715  1.00  0.00     0.154 HD
BRANCH  24  26
HETATM   26  O4  UNL     1      26.415   7.551  50.817  1.00  0.00    -0.315 OA
HETATM   27  H24 UNL     1      26.362   6.767  51.442  1.00  0.00     0.236 HD
ENDBRANCH  24  26
ENDBRANCH  21  24
ENDBRANCH  10  21
BRANCH   1  28
HETATM   28  O1  UNL     1      23.815   7.407  49.889  1.00  0.00    -0.360 OA
HETATM   29  C1  UNL     1      22.660   8.239  49.716  1.00  0.00     0.209 C 
ENDBRANCH   1  28
TORSDOF 8
ENDMDL
MODEL 6
REMARK VINA RESULT:      -7.7      3.250      7.789
REMARK  8 active torsions:
REMARK  status: ('A' for Active; 'I' for Inactive)
REMARK    1  A    between atoms: O1_2  and  C2_3 
REMARK    2  A    between atoms: C6_9  and  N3_10 
REMARK    3  A    between atoms: N3_10  and  C7_11 
REMARK    4  A    between atoms: C7_11  and  C9_13 
REMARK    5  A    between atoms: C16_21  and  C17_22 
REMARK    6  A    between atoms: C17_22  and  C18_23 
REMARK    7  A    between atoms: C17_22  and  N4_25 
REMARK    8  A    between atoms: N4_25  and  O4_26 
ROOT
HETATM    1  C2  UNL     1      24.864   4.314  50.362  1.00  0.00     0.054 C 
HETATM    2  C3  UNL     1      25.969   3.645  50.416  1.00  0.00     0.046 C 
HETATM    3  C4  UNL     1      26.541   2.555  51.131  1.00  0.00     0.219 C 
HETATM    4  N1  UNL     1      27.158   1.616  51.688  1.00  0.00    -0.278 NA
HETATM    5  C5  UNL     1      26.435   0.882  52.699  1.00  0.00     0.171 C 
HETATM    6  N2  UNL     1      25.368   0.546  53.311  1.00  0.00    -0.231 NA
HETATM    7  C6  UNL     1      24.033   0.989  53.053  1.00  0.00     0.487 C 
HETATM    8  O2  UNL     1      24.062   1.822  51.895  1.00  0.00    -0.340 OA
HETATM    9  C15 UNL     1      23.736   3.088  52.248  1.00  0.00     0.185 C 
HETATM   10  C16 UNL     1      23.634   4.143  51.165  1.00  0.00     0.089 C 
ENDROOT
BRANCH   7  11
HETATM   11  N3  UNL     1      23.071  -0.055  52.951  1.00  0.00     0.142 N 
HETATM   12  H8  UNL     1      23.524  -1.000  53.036  1.00  0.00     0.322 HD
BRANCH  11  13
HETATM   13  C7  UNL     1      21.934   0.095  53.819  1.00  0.00     0.255 C 
HETATM   14  C8  UNL     1      21.982  -0.902  54.920  1.00  0.00     0.048 C 
BRANCH  13  15
HETATM   15  C9  UNL     1      20.723   0.043  52.971  1.00  0.00    -0.026 A 
HETATM   16  C10 UNL     1      19.630  -0.656  53.505  1.00  0.00     0.009 A 
HETATM   17  C11 UNL     1      18.433  -0.773  52.805  1.00  0.00     0.001 A 
HETATM   18  C12 UNL     1      18.263  -0.208  51.551  1.00  0.00     0.000 A 
HETATM   19  C13 UNL     1      19.336   0.483  51.017  1.00  0.00     0.001 A 
HETATM   20  C14 UNL     1      20.494   0.580  51.727  1.00  0.00     0.009 A 
ENDBRANCH  13  15
ENDBRANCH  11  13
ENDBRANCH   7  11
BRANCH  10  21
HETATM   21  C17 UNL     1      23.284   5.415  51.939  1.00  0.00     0.129 C 
BRANCH  21  22
HETATM   22  C18 UNL     1      22.130   6.078  51.276  1.00  0.00     0.413 C 
HETATM   23  O3  UNL     1      21.102   5.590  50.791  1.00  0.00    -0.428 OA
ENDBRANCH  21  22
BRANCH  21  24
HETATM   24  N4  UNL     1      24.336   6.320  52.200  1.00  0.00    -0.201 NA
HETATM   25  H23 UNL     1      24.408   6.602  53.222  1.00  0.00     0.154 HD
BRANCH  24  26
HETATM   26  O4  UNL     1      23.945   7.519  51.614  1.00  0.00    -0.315 OA
HETATM   27  H24 UNL     1      23.303   7.964  52.245  1.00  0.00     0.236 HD
ENDBRANCH  24  26
ENDBRANCH  21  24
ENDBRANCH  10  21
BRANCH   1  28
HETATM   28  O1  UNL     1      24.497   5.365  49.570  1.00  0.00    -0.360 OA
HETATM   29  C1  UNL     1      25.551   5.990  48.824  1.00  0.00     0.209 C 
ENDBRANCH   1  28
TORSDOF 8
ENDMDL
MODEL 7
REMARK VINA RESULT:      -7.6      2.431      4.667
REMARK  8 active torsions:
REMARK  status: ('A' for Active; 'I' for Inactive)
REMARK    1  A    between atoms: O1_2  and  C2_3 
REMARK    2  A    between atoms: C6_9  and  N3_10 
REMARK    3  A    between atoms: N3_10  and  C7_11 
REMARK    4  A    between atoms: C7_11  and  C9_13 
REMARK    5  A    between atoms: C16_21  and  C17_22 
REMARK    6  A    between atoms: C17_22  and  C18_23 
REMARK    7  A    between atoms: C17_22  and  N4_25 
REMARK    8  A    between atoms: N4_25  and  O4_26 
ROOT
HETATM    1  C2  UNL     1      22.719   0.081  53.445  1.00  0.00     0.054 C 
HETATM    2  C3  UNL     1      23.924  -0.288  53.738  1.00  0.00     0.046 C 
HETATM    3  C4  UNL     1      25.262  -0.047  53.315  1.00  0.00     0.219 C 
HETATM    4  N1  UNL     1      26.478   0.075  53.038  1.00  0.00    -0.278 NA
HETATM    5  C5  UNL     1      26.807   0.997  51.977  1.00  0.00     0.171 C 
HETATM    6  N2  UNL     1      26.527   1.945  51.172  1.00  0.00    -0.231 NA
HETATM    7  C6  UNL     1      25.291   2.655  51.049  1.00  0.00     0.487 C 
HETATM    8  O2  UNL     1      24.413   2.189  52.073  1.00  0.00    -0.340 OA
HETATM    9  C15 UNL     1      23.368   1.544  51.504  1.00  0.00     0.185 C 
HETATM   10  C16 UNL     1      22.263   1.018  52.397  1.00  0.00     0.089 C 
ENDROOT
BRANCH   7  11
HETATM   11  N3  UNL     1      25.418   4.072  51.041  1.00  0.00     0.142 N 
HETATM   12  H8  UNL     1      26.382   4.370  51.339  1.00  0.00     0.322 HD
BRANCH  11  13
HETATM   13  C7  UNL     1      24.998   4.702  49.818  1.00  0.00     0.255 C 
HETATM   14  C8  UNL     1      24.196   3.761  48.994  1.00  0.00     0.048 C 
BRANCH  13  15
HETATM   15  C9  UNL     1      26.209   5.244  49.164  1.00  0.00    -0.026 A 
HETATM   16  C10 UNL     1      26.122   6.569  48.713  1.00  0.00     0.009 A 
HETATM   17  C11 UNL     1      27.195   7.193  48.084  1.00  0.00     0.001 A 
HETATM   18  C12 UNL     1      28.398   6.537  47.874  1.00  0.00     0.000 A 
HETATM   19  C13 UNL     1      28.493   5.230  48.315  1.00  0.00     0.001 A 
HETATM   20  C14 UNL     1      27.425   4.647  48.927  1.00  0.00     0.009 A 
ENDBRANCH  13  15
ENDBRANCH  11  13
ENDBRANCH   7  11
BRANCH  10  21
HETATM   21  C17 UNL     1      21.302   0.344  51.416  1.00  0.00     0.129 C 
BRANCH  21  22
HETATM   22  C18 UNL     1      21.569   0.865  50.048  1.00  0.00     0.413 C 
HETATM   23  O3  UNL     1      20.803   1.008  49.087  1.00  0.00    -0.428 OA
ENDBRANCH  21  22
BRANCH  21  24
HETATM   24  N4  UNL     1      19.927   0.379  51.736  1.00  0.00    -0.201 NA
HETATM   25  H23 UNL     1      19.300   0.515  50.889  1.00  0.00     0.154 HD
BRANCH  24  26
HETATM   26  O4  UNL     1      19.735   1.578  52.412  1.00  0.00    -0.315 OA
HETATM   27  H24 UNL     1      20.534   1.719  53.004  1.00  0.00     0.236 HD
ENDBRANCH  24  26
ENDBRANCH  21  24
ENDBRANCH  10  21
BRANCH   1  28
HETATM   28  O1  UNL     1      21.521  -0.277  53.995  1.00  0.00    -0.360 OA
HETATM   29  C1  UNL     1      21.456  -1.591  54.567  1.00  0.00     0.209 C 
ENDBRANCH   1  28
TORSDOF 8
ENDMDL
MODEL 8
REMARK VINA RESULT:      -7.6      1.958      2.633
REMARK  8 active torsions:
REMARK  status: ('A' for Active; 'I' for Inactive)
REMARK    1  A    between atoms: O1_2  and  C2_3 
REMARK    2  A    between atoms: C6_9  and  N3_10 
REMARK    3  A    between atoms: N3_10  and  C7_11 
REMARK    4  A    between atoms: C7_11  and  C9_13 
REMARK    5  A    between atoms: C16_21  and  C17_22 
REMARK    6  A    between atoms: C17_22  and  C18_23 
REMARK    7  A    between atoms: C17_22  and  N4_25 
REMARK    8  A    between atoms: N4_25  and  O4_26 
ROOT
HETATM    1  C2  UNL     1      22.481   0.143  53.115  1.00  0.00     0.054 C 
HETATM    2  C3  UNL     1      21.402   0.856  53.141  1.00  0.00     0.046 C 
HETATM    3  C4  UNL     1      20.959   2.161  52.784  1.00  0.00     0.219 C 
HETATM    4  N1  UNL     1      20.447   3.274  52.519  1.00  0.00    -0.278 NA
HETATM    5  C5  UNL     1      21.314   4.252  51.907  1.00  0.00     0.171 C 
HETATM    6  N2  UNL     1      22.386   4.602  51.313  1.00  0.00    -0.231 NA
HETATM    7  C6  UNL     1      23.485   3.772  50.924  1.00  0.00     0.487 C 
HETATM    8  O2  UNL     1      23.141   2.421  51.224  1.00  0.00    -0.340 OA
HETATM    9  C15 UNL     1      23.961   1.959  52.198  1.00  0.00     0.185 C 
HETATM   10  C16 UNL     1      23.829   0.515  52.637  1.00  0.00     0.089 C 
ENDROOT
BRANCH   7  11
HETATM   11  N3  UNL     1      23.909   3.942  49.576  1.00  0.00     0.142 N 
HETATM   12  H8  UNL     1      23.295   3.403  48.913  1.00  0.00     0.322 HD
BRANCH  11  13
HETATM   13  C7  UNL     1      24.088   5.311  49.174  1.00  0.00     0.255 C 
HETATM   14  C8  UNL     1      23.158   5.658  48.069  1.00  0.00     0.048 C 
BRANCH  13  15
HETATM   15  C9  UNL     1      25.525   5.496  48.873  1.00  0.00    -0.026 A 
HETATM   16  C10 UNL     1      25.893   6.763  48.396  1.00  0.00     0.009 A 
HETATM   17  C11 UNL     1      27.215   7.062  48.081  1.00  0.00     0.001 A 
HETATM   18  C12 UNL     1      28.228   6.126  48.222  1.00  0.00     0.000 A 
HETATM   19  C13 UNL     1      27.873   4.875  48.691  1.00  0.00     0.001 A 
HETATM   20  C14 UNL     1      26.572   4.613  48.992  1.00  0.00     0.009 A 
ENDBRANCH  13  15
ENDBRANCH  11  13
ENDBRANCH   7  11
BRANCH  10  21
HETATM   21  C17 UNL     1      24.877   0.381  53.743  1.00  0.00     0.129 C 
BRANCH  21  22
HETATM   22  C18 UNL     1      25.893   1.456  53.575  1.00  0.00     0.413 C 
HETATM   23  O3  UNL     1      26.553   2.068  54.424  1.00  0.00    -0.428 OA
ENDBRANCH  21  22
BRANCH  21  24
HETATM   24  N4  UNL     1      25.474  -0.887  53.915  1.00  0.00    -0.201 NA
HETATM   25  H23 UNL     1      25.013  -1.471  54.673  1.00  0.00     0.154 HD
BRANCH  24  26
HETATM   26  O4  UNL     1      26.718  -0.636  54.484  1.00  0.00    -0.315 OA
HETATM   27  H24 UNL     1      26.622  -0.757  55.477  1.00  0.00     0.236 HD
ENDBRANCH  24  26
ENDBRANCH  21  24
ENDBRANCH  10  21
BRANCH   1  28
HETATM   28  O1  UNL     1      22.707  -1.143  53.517  1.00  0.00    -0.360 OA
HETATM   29  C1  UNL     1      21.817  -1.658  54.518  1.00  0.00     0.209 C 
ENDBRANCH   1  28
TORSDOF 8
ENDMDL
MODEL 9
REMARK VINA RESULT:      -7.1      3.593      7.103
REMARK  8 active torsions:
REMARK  status: ('A' for Active; 'I' for Inactive)
REMARK    1  A    between atoms: O1_2  and  C2_3 
REMARK    2  A    between atoms: C6_9  and  N3_10 
REMARK    3  A    between atoms: N3_10  and  C7_11 
REMARK    4  A    between atoms: C7_11  and  C9_13 
REMARK    5  A    between atoms: C16_21  and  C17_22 
REMARK    6  A    between atoms: C17_22  and  C18_23 
REMARK    7  A    between atoms: C17_22  and  N4_25 
REMARK    8  A    between atoms: N4_25  and  O4_26 
ROOT
HETATM    1  C2  UNL     1      21.378   5.523  50.939  1.00  0.00     0.054 C 
HETATM    2  C3  UNL     1      20.544   4.733  50.345  1.00  0.00     0.046 C 
HETATM    3  C4  UNL     1      20.357   3.344  50.100  1.00  0.00     0.219 C 
HETATM    4  N1  UNL     1      20.080   2.155  49.814  1.00  0.00    -0.278 NA
HETATM    5  C5  UNL     1      20.984   1.146  50.314  1.00  0.00     0.171 C 
HETATM    6  N2  UNL     1      21.932   0.746  51.067  1.00  0.00    -0.231 NA
HETATM    7  C6  UNL     1      22.668   1.507  52.029  1.00  0.00     0.487 C 
HETATM    8  O2  UNL     1      22.091   2.811  52.093  1.00  0.00    -0.340 OA
HETATM    9  C15 UNL     1      22.986   3.717  51.632  1.00  0.00     0.185 C 
HETATM   10  C16 UNL     1      22.619   5.186  51.669  1.00  0.00     0.089 C 
ENDROOT
BRANCH   7  11
HETATM   11  N3  UNL     1      22.781   0.896  53.310  1.00  0.00     0.142 N 
HETATM   12  H8  UNL     1      21.836   0.773  53.757  1.00  0.00     0.322 HD
BRANCH  11  13
HETATM   13  C7  UNL     1      23.564  -0.310  53.329  1.00  0.00     0.255 C 
HETATM   14  C8  UNL     1      23.175  -1.168  54.478  1.00  0.00     0.048 C 
BRANCH  13  15
HETATM   15  C9  UNL     1      24.988   0.090  53.291  1.00  0.00    -0.026 A 
HETATM   16  C10 UNL     1      25.872  -0.842  52.728  1.00  0.00     0.009 A 
HETATM   17  C11 UNL     1      27.235  -0.582  52.632  1.00  0.00     0.001 A 
HETATM   18  C12 UNL     1      27.784   0.607  53.087  1.00  0.00     0.000 A 
HETATM   19  C13 UNL     1      26.919   1.532  53.644  1.00  0.00     0.001 A 
HETATM   20  C14 UNL     1      25.590   1.248  53.723  1.00  0.00     0.009 A 
ENDBRANCH  13  15
ENDBRANCH  11  13
ENDBRANCH   7  11
BRANCH  10  21
HETATM   21  C17 UNL     1      23.839   5.874  51.054  1.00  0.00     0.129 C 
BRANCH  21  22
HETATM   22  C18 UNL     1      24.759   4.833  50.521  1.00  0.00     0.413 C 
HETATM   23  O3  UNL     1      25.358   4.778  49.440  1.00  0.00    -0.428 OA
ENDBRANCH  21  22
BRANCH  21  24
HETATM   24  N4  UNL     1      24.517   6.818  51.856  1.00  0.00    -0.201 NA
HETATM   25  H23 UNL     1      24.191   6.825  52.868  1.00  0.00     0.154 HD
BRANCH  24  26
HETATM   26  O4  UNL     1      24.072   8.061  51.418  1.00  0.00    -0.315 OA
HETATM   27  H24 UNL     1      24.745   8.743  51.719  1.00  0.00     0.236 HD
ENDBRANCH  24  26
ENDBRANCH  21  24
ENDBRANCH  10  21
BRANCH   1  28
HETATM   28  O1  UNL     1      21.376   6.884  51.070  1.00  0.00    -0.360 OA
HETATM   29  C1  UNL     1      20.829   7.623  49.969  1.00  0.00     0.209 C 
ENDBRANCH   1  28
TORSDOF 8
ENDMDL
