MODEL 1
REMARK VINA RESULT:      -8.3      0.000      0.000
REMARK  7 active torsions:
REMARK  status: ('A' for Active; 'I' for Inactive)
REMARK    1  A    between atoms: C2_2  and  C3_3 
REMARK    2  A    between atoms: C2_2  and  N2_8 
REMARK    3  A    between atoms: C3_3  and  C4_4 
REMARK    4  A    between atoms: C4_4  and  N1_5 
REMARK    5  A    between atoms: N2_8  and  C7_9 
REMARK    6  A    between atoms: C14_18  and  N5_19 
REMARK    7  A    between atoms: N5_19  and  C15_20 
ROOT
HETATM    1  C7  UNL     1      23.617  -0.392  53.841  1.00  0.00     0.029 A 
HETATM    2  C8  UNL     1      22.859  -1.119  54.732  1.00  0.00     0.031 A 
HETATM    3  C9  UNL     1      21.494  -1.299  54.659  1.00  0.00     0.035 A 
HETATM    4  C10 UNL     1      20.833  -0.700  53.607  1.00  0.00     0.069 A 
HETATM    5  N3  UNL     1      19.508  -0.836  53.480  1.00  0.00    -0.259 NA
HETATM    6  C11 UNL     1      18.890  -0.241  52.444  1.00  0.00     0.142 A 
HETATM    7  C12 UNL     1      19.522   0.513  51.484  1.00  0.00     0.089 A 
HETATM    8  C13 UNL     1      18.794   1.127  50.391  1.00  0.00     0.103 C 
HETATM    9  N4  UNL     1      18.213   1.622  49.497  1.00  0.00    -0.191 NA
HETATM   10  C14 UNL     1      20.889   0.650  51.620  1.00  0.00     0.067 A 
HETATM   11  C21 UNL     1      21.540   0.040  52.685  1.00  0.00     0.023 A 
HETATM   12  C22 UNL     1      22.893   0.174  52.824  1.00  0.00     0.045 A 
ENDROOT
BRANCH  10  13
HETATM   13  N5  UNL     1      21.599   1.406  50.675  1.00  0.00    -0.354 N 
HETATM   14  H19 UNL     1      21.593   0.934  49.737  1.00  0.00     0.166 HD
BRANCH  13  15
HETATM   15  C15 UNL     1      22.253   2.631  50.878  1.00  0.00     0.033 A 
HETATM   16  C16 UNL     1      21.702   3.614  51.679  1.00  0.00     0.029 A 
HETATM   17  C17 UNL     1      22.339   4.822  51.886  1.00  0.00     0.004 A 
HETATM   18  C18 UNL     1      23.566   5.006  51.249  1.00  0.00     0.019 A 
HETATM   19  C19 UNL     1      24.122   4.030  50.447  1.00  0.00     0.013 A 
HETATM   20 BR1  UNL     1      25.813   4.348  49.600  1.00  0.00    -0.051 Br
HETATM   21  C20 UNL     1      23.477   2.820  50.246  1.00  0.00     0.048 A 
ENDBRANCH  13  15
ENDBRANCH  10  13
BRANCH   1  22
HETATM   22  N2  UNL     1      25.010  -0.217  53.918  1.00  0.00    -0.386 N 
HETATM   23  H15 UNL     1      25.390   0.112  54.857  1.00  0.00     0.160 HD
BRANCH  22  24
HETATM   24  C2  UNL     1      26.005  -0.425  52.885  1.00  0.00     0.079 C 
HETATM   25  C1  UNL     1      26.043   0.755  51.951  1.00  0.00     0.032 C 
BRANCH  24  26
HETATM   26  C3  UNL     1      27.374  -0.714  53.396  1.00  0.00     0.055 C 
BRANCH  26  27
HETATM   27  C4  UNL     1      27.706   0.082  54.645  1.00  0.00     0.273 C 
BRANCH  27  28
HETATM   28  N1  UNL     1      29.059   0.624  54.479  1.00  0.00     0.080 N 
HETATM   29  C5  UNL     1      28.938   1.969  53.918  1.00  0.00     0.309 C 
HETATM   30  C6  UNL     1      29.823  -0.231  53.591  1.00  0.00     0.309 C 
ENDBRANCH  27  28
ENDBRANCH  26  27
ENDBRANCH  24  26
ENDBRANCH  22  24
ENDBRANCH   1  22
TORSDOF 7
ENDMDL
MODEL 2
REMARK VINA RESULT:      -8.1      1.668      6.045
REMARK  7 active torsions:
REMARK  status: ('A' for Active; 'I' for Inactive)
REMARK    1  A    between atoms: C2_2  and  C3_3 
REMARK    2  A    between atoms: C2_2  and  N2_8 
REMARK    3  A    between atoms: C3_3  and  C4_4 
REMARK    4  A    between atoms: C4_4  and  N1_5 
REMARK    5  A    between atoms: N2_8  and  C7_9 
REMARK    6  A    between atoms: C14_18  and  N5_19 
REMARK    7  A    between atoms: N5_19  and  C15_20 
ROOT
HETATM    1  C7  UNL     1      21.742  -0.705  53.550  1.00  0.00     0.029 A 
HETATM    2  C8  UNL     1      22.028  -1.416  54.695  1.00  0.00     0.031 A 
HETATM    3  C9  UNL     1      23.253  -1.453  55.328  1.00  0.00     0.035 A 
HETATM    4  C10 UNL     1      24.276  -0.718  54.767  1.00  0.00     0.069 A 
HETATM    5  N3  UNL     1      25.489  -0.713  55.333  1.00  0.00    -0.259 NA
HETATM    6  C11 UNL     1      26.468   0.013  54.764  1.00  0.00     0.142 A 
HETATM    7  C12 UNL     1      26.322   0.767  53.624  1.00  0.00     0.089 A 
HETATM    8  C13 UNL     1      27.422   1.528  53.064  1.00  0.00     0.103 C 
HETATM    9  N4  UNL     1      28.305   2.154  52.607  1.00  0.00    -0.191 NA
HETATM   10  C14 UNL     1      25.070   0.757  53.045  1.00  0.00     0.067 A 
HETATM   11  C21 UNL     1      24.049   0.012  53.621  1.00  0.00     0.023 A 
HETATM   12  C22 UNL     1      22.807   0.000  53.051  1.00  0.00     0.045 A 
ENDROOT
BRANCH  10  13
HETATM   13  N5  UNL     1      24.849   1.506  51.879  1.00  0.00    -0.354 N 
HETATM   14  H19 UNL     1      24.975   0.911  51.022  1.00  0.00     0.166 HD
BRANCH  13  15
HETATM   15  C15 UNL     1      24.505   2.864  51.787  1.00  0.00     0.033 A 
HETATM   16  C16 UNL     1      23.828   3.502  52.809  1.00  0.00     0.029 A 
HETATM   17  C17 UNL     1      23.485   4.838  52.729  1.00  0.00     0.004 A 
HETATM   18  C18 UNL     1      23.855   5.515  51.567  1.00  0.00     0.019 A 
HETATM   19  C19 UNL     1      24.531   4.884  50.542  1.00  0.00     0.013 A 
HETATM   20 BR1  UNL     1      25.009   5.876  48.971  1.00  0.00    -0.051 Br
HETATM   21  C20 UNL     1      24.871   3.545  50.631  1.00  0.00     0.048 A 
ENDBRANCH  13  15
ENDBRANCH  10  13
BRANCH   1  22
HETATM   22  N2  UNL     1      20.490  -0.665  52.913  1.00  0.00    -0.386 N 
HETATM   23  H15 UNL     1      19.808  -1.441  53.172  1.00  0.00     0.160 HD
BRANCH  22  24
HETATM   24  C2  UNL     1      19.998   0.294  51.945  1.00  0.00     0.079 C 
HETATM   25  C1  UNL     1      18.613  -0.086  51.491  1.00  0.00     0.032 C 
BRANCH  24  26
HETATM   26  C3  UNL     1      20.010   1.707  52.413  1.00  0.00     0.055 C 
BRANCH  26  27
HETATM   27  C4  UNL     1      20.527   2.663  51.352  1.00  0.00     0.273 C 
BRANCH  27  28
HETATM   28  N1  UNL     1      19.851   3.951  51.549  1.00  0.00     0.080 N 
HETATM   29  C5  UNL     1      18.416   3.736  51.369  1.00  0.00     0.309 C 
HETATM   30  C6  UNL     1      20.347   4.915  50.586  1.00  0.00     0.309 C 
ENDBRANCH  27  28
ENDBRANCH  26  27
ENDBRANCH  24  26
ENDBRANCH  22  24
ENDBRANCH   1  22
TORSDOF 7
ENDMDL
MODEL 3
REMARK VINA RESULT:      -7.9      3.279      5.229
REMARK  7 active torsions:
REMARK  status: ('A' for Active; 'I' for Inactive)
REMARK    1  A    between atoms: C2_2  and  C3_3 
REMARK    2  A    between atoms: C2_2  and  N2_8 
REMARK    3  A    between atoms: C3_3  and  C4_4 
REMARK    4  A    between atoms: C4_4  and  N1_5 
REMARK    5  A    between atoms: N2_8  and  C7_9 
REMARK    6  A    between atoms: C14_18  and  N5_19 
REMARK    7  A    between atoms: N5_19  and  C15_20 
ROOT
HETATM    1  C7  UNL     1      26.292   2.508  51.580  1.00  0.00     0.029 A 
HETATM    2  C8  UNL     1      27.104   1.573  52.184  1.00  0.00     0.031 A 
HETATM    3  C9  UNL     1      26.667   0.500  52.932  1.00  0.00     0.035 A 
HETATM    4  C10 UNL     1      25.306   0.353  53.090  1.00  0.00     0.069 A 
HETATM    5  N3  UNL     1      24.818  -0.668  53.806  1.00  0.00    -0.259 NA
HETATM    6  C11 UNL     1      23.485  -0.786  53.943  1.00  0.00     0.142 A 
HETATM    7  C12 UNL     1      22.562   0.073  53.396  1.00  0.00     0.089 A 
HETATM    8  C13 UNL     1      21.137  -0.115  53.583  1.00  0.00     0.103 C 
HETATM    9  N4  UNL     1      19.979  -0.264  53.722  1.00  0.00    -0.191 NA
HETATM   10  C14 UNL     1      23.071   1.123  52.659  1.00  0.00     0.067 A 
HETATM   11  C21 UNL     1      24.445   1.258  52.509  1.00  0.00     0.023 A 
HETATM   12  C22 UNL     1      24.953   2.297  51.781  1.00  0.00     0.045 A 
ENDROOT
BRANCH  10  13
HETATM   13  N5  UNL     1      22.185   2.039  52.071  1.00  0.00    -0.354 N 
HETATM   14  H19 UNL     1      21.745   2.655  52.799  1.00  0.00     0.166 HD
BRANCH  13  15
HETATM   15  C15 UNL     1      21.876   2.175  50.709  1.00  0.00     0.033 A 
HETATM   16  C16 UNL     1      21.701   1.068  49.899  1.00  0.00     0.029 A 
HETATM   17  C17 UNL     1      21.397   1.191  48.558  1.00  0.00     0.004 A 
HETATM   18  C18 UNL     1      21.273   2.486  48.055  1.00  0.00     0.019 A 
HETATM   19  C19 UNL     1      21.447   3.596  48.857  1.00  0.00     0.013 A 
HETATM   20 BR1  UNL     1      21.263   5.349  48.101  1.00  0.00    -0.051 Br
HETATM   21  C20 UNL     1      21.751   3.463  50.201  1.00  0.00     0.048 A 
ENDBRANCH  13  15
ENDBRANCH  10  13
BRANCH   1  22
HETATM   22  N2  UNL     1      26.743   3.596  50.812  1.00  0.00    -0.386 N 
HETATM   23  H15 UNL     1      27.370   4.296  51.314  1.00  0.00     0.160 HD
BRANCH  22  24
HETATM   24  C2  UNL     1      26.469   3.897  49.422  1.00  0.00     0.079 C 
HETATM   25  C1  UNL     1      25.188   4.680  49.299  1.00  0.00     0.032 C 
BRANCH  24  26
HETATM   26  C3  UNL     1      27.570   4.608  48.714  1.00  0.00     0.055 C 
BRANCH  26  27
HETATM   27  C4  UNL     1      27.262   6.079  48.496  1.00  0.00     0.273 C 
BRANCH  27  28
HETATM   28  N1  UNL     1      28.451   6.697  47.899  1.00  0.00     0.080 N 
HETATM   29  C5  UNL     1      29.579   5.789  48.107  1.00  0.00     0.309 C 
HETATM   30  C6  UNL     1      28.705   7.978  48.530  1.00  0.00     0.309 C 
ENDBRANCH  27  28
ENDBRANCH  26  27
ENDBRANCH  24  26
ENDBRANCH  22  24
ENDBRANCH   1  22
TORSDOF 7
ENDMDL
MODEL 4
REMARK VINA RESULT:      -7.8      3.624      6.544
REMARK  7 active torsions:
REMARK  status: ('A' for Active; 'I' for Inactive)
REMARK    1  A    between atoms: C2_2  and  C3_3 
REMARK    2  A    between atoms: C2_2  and  N2_8 
REMARK    3  A    between atoms: C3_3  and  C4_4 
REMARK    4  A    between atoms: C4_4  and  N1_5 
REMARK    5  A    between atoms: N2_8  and  C7_9 
REMARK    6  A    between atoms: C14_18  and  N5_19 
REMARK    7  A    between atoms: N5_19  and  C15_20 
ROOT
HETATM    1  C7  UNL     1      25.090   4.315  50.051  1.00  0.00     0.029 A 
HETATM    2  C8  UNL     1      24.128   4.103  49.088  1.00  0.00     0.031 A 
HETATM    3  C9  UNL     1      23.147   3.135  49.137  1.00  0.00     0.035 A 
HETATM    4  C10 UNL     1      23.128   2.311  50.243  1.00  0.00     0.069 A 
HETATM    5  N3  UNL     1      22.201   1.352  50.351  1.00  0.00    -0.259 NA
HETATM    6  C11 UNL     1      22.207   0.563  51.440  1.00  0.00     0.142 A 
HETATM    7  C12 UNL     1      23.106   0.663  52.475  1.00  0.00     0.089 A 
HETATM    8  C13 UNL     1      23.054  -0.222  53.622  1.00  0.00     0.103 C 
HETATM    9  N4  UNL     1      23.016  -0.929  54.561  1.00  0.00    -0.191 NA
HETATM   10  C14 UNL     1      24.059   1.654  52.358  1.00  0.00     0.067 A 
HETATM   11  C21 UNL     1      24.066   2.476  51.238  1.00  0.00     0.023 A 
HETATM   12  C22 UNL     1      25.008   3.458  51.119  1.00  0.00     0.045 A 
ENDROOT
BRANCH  10  13
HETATM   13  N5  UNL     1      25.010   1.814  53.378  1.00  0.00    -0.354 N 
HETATM   14  H19 UNL     1      24.597   2.322  54.199  1.00  0.00     0.166 HD
BRANCH  13  15
HETATM   15  C15 UNL     1      26.345   1.382  53.377  1.00  0.00     0.033 A 
HETATM   16  C16 UNL     1      27.388   2.274  53.545  1.00  0.00     0.029 A 
HETATM   17  C17 UNL     1      28.705   1.859  53.546  1.00  0.00     0.004 A 
HETATM   18  C18 UNL     1      28.937   0.495  53.369  1.00  0.00     0.019 A 
HETATM   19  C19 UNL     1      27.902  -0.401  53.200  1.00  0.00     0.013 A 
HETATM   20 BR1  UNL     1      28.291  -2.265  52.962  1.00  0.00    -0.051 Br
HETATM   21  C20 UNL     1      26.583   0.023  53.202  1.00  0.00     0.048 A 
ENDBRANCH  13  15
ENDBRANCH  10  13
BRANCH   1  22
HETATM   22  N2  UNL     1      26.084   5.307  49.998  1.00  0.00    -0.386 N 
HETATM   23  H15 UNL     1      26.943   5.143  50.607  1.00  0.00     0.160 HD
BRANCH  22  24
HETATM   24  C2  UNL     1      26.100   6.531  49.222  1.00  0.00     0.079 C 
HETATM   25  C1  UNL     1      26.080   7.728  50.135  1.00  0.00     0.032 C 
BRANCH  24  26
HETATM   26  C3  UNL     1      27.234   6.640  48.264  1.00  0.00     0.055 C 
BRANCH  26  27
HETATM   27  C4  UNL     1      28.275   5.555  48.473  1.00  0.00     0.273 C 
BRANCH  27  28
HETATM   28  N1  UNL     1      29.491   5.964  47.761  1.00  0.00     0.080 N 
HETATM   29  C5  UNL     1      30.589   5.984  48.727  1.00  0.00     0.309 C 
HETATM   30  C6  UNL     1      29.299   7.278  47.180  1.00  0.00     0.309 C 
ENDBRANCH  27  28
ENDBRANCH  26  27
ENDBRANCH  24  26
ENDBRANCH  22  24
ENDBRANCH   1  22
TORSDOF 7
ENDMDL
MODEL 5
REMARK VINA RESULT:      -7.8      2.579      5.776
REMARK  7 active torsions:
REMARK  status: ('A' for Active; 'I' for Inactive)
REMARK    1  A    between atoms: C2_2  and  C3_3 
REMARK    2  A    between atoms: C2_2  and  N2_8 
REMARK    3  A    between atoms: C3_3  and  C4_4 
REMARK    4  A    between atoms: C4_4  and  N1_5 
REMARK    5  A    between atoms: N2_8  and  C7_9 
REMARK    6  A    between atoms: C14_18  and  N5_19 
REMARK    7  A    between atoms: N5_19  and  C15_20 
ROOT
HETATM    1  C7  UNL     1      26.497   1.742  51.695  1.00  0.00     0.029 A 
HETATM    2  C8  UNL     1      27.423   1.584  52.702  1.00  0.00     0.031 A 
HETATM    3  C9  UNL     1      27.220   0.884  53.872  1.00  0.00     0.035 A 
HETATM    4  C10 UNL     1      25.986   0.295  54.049  1.00  0.00     0.069 A 
HETATM    5  N3  UNL     1      25.726  -0.398  55.164  1.00  0.00    -0.259 NA
HETATM    6  C11 UNL     1      24.513  -0.962  55.310  1.00  0.00     0.142 A 
HETATM    7  C12 UNL     1      23.498  -0.884  54.387  1.00  0.00     0.089 A 
HETATM    8  C13 UNL     1      22.212  -1.518  54.608  1.00  0.00     0.103 C 
HETATM    9  N4  UNL     1      21.170  -2.035  54.775  1.00  0.00    -0.191 NA
HETATM   10  C14 UNL     1      23.772  -0.168  53.240  1.00  0.00     0.067 A 
HETATM   11  C21 UNL     1      25.020   0.420  53.076  1.00  0.00     0.023 A 
HETATM   12  C22 UNL     1      25.295   1.130  51.941  1.00  0.00     0.045 A 
ENDROOT
BRANCH  10  13
HETATM   13  N5  UNL     1      22.780  -0.048  52.254  1.00  0.00    -0.354 N 
HETATM   14  H19 UNL     1      22.912  -0.766  51.500  1.00  0.00     0.166 HD
BRANCH  13  15
HETATM   15  C15 UNL     1      21.726   0.879  52.212  1.00  0.00     0.033 A 
HETATM   16  C16 UNL     1      21.942   2.222  52.457  1.00  0.00     0.029 A 
HETATM   17  C17 UNL     1      20.912   3.142  52.417  1.00  0.00     0.004 A 
HETATM   18  C18 UNL     1      19.641   2.652  52.117  1.00  0.00     0.019 A 
HETATM   19  C19 UNL     1      19.418   1.312  51.872  1.00  0.00     0.013 A 
HETATM   20 BR1  UNL     1      17.643   0.706  51.465  1.00  0.00    -0.051 Br
HETATM   21  C20 UNL     1      20.456   0.397  51.913  1.00  0.00     0.048 A 
ENDBRANCH  13  15
ENDBRANCH  10  13
BRANCH   1  22
HETATM   22  N2  UNL     1      26.712   2.452  50.500  1.00  0.00    -0.386 N 
HETATM   23  H15 UNL     1      27.417   2.027  49.824  1.00  0.00     0.160 HD
BRANCH  22  24
HETATM   24  C2  UNL     1      26.102   3.691  50.062  1.00  0.00     0.079 C 
HETATM   25  C1  UNL     1      27.019   4.417  49.114  1.00  0.00     0.032 C 
BRANCH  24  26
HETATM   26  C3  UNL     1      24.755   3.533  49.447  1.00  0.00     0.055 C 
BRANCH  26  27
HETATM   27  C4  UNL     1      24.074   4.867  49.197  1.00  0.00     0.273 C 
BRANCH  27  28
HETATM   28  N1  UNL     1      22.972   4.989  50.158  1.00  0.00     0.080 N 
HETATM   29  C5  UNL     1      21.794   5.461  49.432  1.00  0.00     0.309 C 
HETATM   30  C6  UNL     1      23.336   5.927  51.203  1.00  0.00     0.309 C 
ENDBRANCH  27  28
ENDBRANCH  26  27
ENDBRANCH  24  26
ENDBRANCH  22  24
ENDBRANCH   1  22
TORSDOF 7
ENDMDL
MODEL 6
REMARK VINA RESULT:      -7.8      3.512      6.032
REMARK  7 active torsions:
REMARK  status: ('A' for Active; 'I' for Inactive)
REMARK    1  A    between atoms: C2_2  and  C3_3 
REMARK    2  A    between atoms: C2_2  and  N2_8 
REMARK    3  A    between atoms: C3_3  and  C4_4 
REMARK    4  A    between atoms: C4_4  and  N1_5 
REMARK    5  A    between atoms: N2_8  and  C7_9 
REMARK    6  A    between atoms: C14_18  and  N5_19 
REMARK    7  A    between atoms: N5_19  and  C15_20 
ROOT
HETATM    1  C7  UNL     1      25.553   3.110  51.372  1.00  0.00     0.029 A 
HETATM    2  C8  UNL     1      26.753   2.445  51.496  1.00  0.00     0.031 A 
HETATM    3  C9  UNL     1      26.934   1.234  52.131  1.00  0.00     0.035 A 
HETATM    4  C10 UNL     1      25.821   0.642  52.689  1.00  0.00     0.069 A 
HETATM    5  N3  UNL     1      25.930  -0.534  53.319  1.00  0.00    -0.259 NA
HETATM    6  C11 UNL     1      24.827  -1.089  53.853  1.00  0.00     0.142 A 
HETATM    7  C12 UNL     1      23.569  -0.536  53.803  1.00  0.00     0.089 A 
HETATM    8  C13 UNL     1      22.421  -1.190  54.401  1.00  0.00     0.103 C 
HETATM    9  N4  UNL     1      21.483  -1.716  54.875  1.00  0.00    -0.191 NA
HETATM   10  C14 UNL     1      23.463   0.676  53.152  1.00  0.00     0.067 A 
HETATM   11  C21 UNL     1      24.594   1.261  52.595  1.00  0.00     0.023 A 
HETATM   12  C22 UNL     1      24.493   2.461  51.950  1.00  0.00     0.045 A 
ENDROOT
BRANCH  10  13
HETATM   13  N5  UNL     1      22.208   1.298  53.062  1.00  0.00    -0.354 N 
HETATM   14  H19 UNL     1      22.071   1.979  53.849  1.00  0.00     0.166 HD
BRANCH  13  15
HETATM   15  C15 UNL     1      21.220   1.090  52.087  1.00  0.00     0.033 A 
HETATM   16  C16 UNL     1      21.452   1.385  50.757  1.00  0.00     0.029 A 
HETATM   17  C17 UNL     1      20.486   1.184  49.790  1.00  0.00     0.004 A 
HETATM   18  C18 UNL     1      19.263   0.668  50.218  1.00  0.00     0.019 A 
HETATM   19  C19 UNL     1      19.024   0.372  51.545  1.00  0.00     0.013 A 
HETATM   20 BR1  UNL     1      17.318  -0.335  52.066  1.00  0.00    -0.051 Br
HETATM   21  C20 UNL     1      19.998   0.576  52.508  1.00  0.00     0.048 A 
ENDBRANCH  13  15
ENDBRANCH  10  13
BRANCH   1  22
HETATM   22  N2  UNL     1      25.374   4.341  50.717  1.00  0.00    -0.386 N 
HETATM   23  H15 UNL     1      25.151   5.175  51.341  1.00  0.00     0.160 HD
BRANCH  22  24
HETATM   24  C2  UNL     1      25.452   4.632  49.300  1.00  0.00     0.079 C 
HETATM   25  C1  UNL     1      24.103   5.050  48.778  1.00  0.00     0.032 C 
BRANCH  24  26
HETATM   26  C3  UNL     1      26.477   5.647  48.933  1.00  0.00     0.055 C 
BRANCH  26  27
HETATM   27  C4  UNL     1      27.807   5.017  48.557  1.00  0.00     0.273 C 
BRANCH  27  28
HETATM   28  N1  UNL     1      28.631   6.058  47.934  1.00  0.00     0.080 N 
HETATM   29  C5  UNL     1      29.988   5.932  48.464  1.00  0.00     0.309 C 
HETATM   30  C6  UNL     1      28.083   7.365  48.242  1.00  0.00     0.309 C 
ENDBRANCH  27  28
ENDBRANCH  26  27
ENDBRANCH  24  26
ENDBRANCH  22  24
ENDBRANCH   1  22
TORSDOF 7
ENDMDL
MODEL 7
REMARK VINA RESULT:      -7.7      2.962      6.646
REMARK  7 active torsions:
REMARK  status: ('A' for Active; 'I' for Inactive)
REMARK    1  A    between atoms: C2_2  and  C3_3 
REMARK    2  A    between atoms: C2_2  and  N2_8 
REMARK    3  A    between atoms: C3_3  and  C4_4 
REMARK    4  A    between atoms: C4_4  and  N1_5 
REMARK    5  A    between atoms: N2_8  and  C7_9 
REMARK    6  A    between atoms: C14_18  and  N5_19 
REMARK    7  A    between atoms: N5_19  and  C15_20 
ROOT
HETATM    1  C7  UNL     1      25.144   3.277  50.877  1.00  0.00     0.029 A 
HETATM    2  C8  UNL     1      26.400   2.715  50.825  1.00  0.00     0.031 A 
HETATM    3  C9  UNL     1      26.786   1.559  51.470  1.00  0.00     0.035 A 
HETATM    4  C10 UNL     1      25.834   0.913  52.231  1.00  0.00     0.069 A 
HETATM    5  N3  UNL     1      26.145  -0.214  52.883  1.00  0.00    -0.259 NA
HETATM    6  C11 UNL     1      25.196  -0.822  53.618  1.00  0.00     0.142 A 
HETATM    7  C12 UNL     1      23.905  -0.372  53.757  1.00  0.00     0.089 A 
HETATM    8  C13 UNL     1      22.931  -1.078  54.566  1.00  0.00     0.103 C 
HETATM    9  N4  UNL     1      22.132  -1.649  55.212  1.00  0.00    -0.191 NA
HETATM   10  C14 UNL     1      23.591   0.790  53.083  1.00  0.00     0.067 A 
HETATM   11  C21 UNL     1      24.560   1.430  52.320  1.00  0.00     0.023 A 
HETATM   12  C22 UNL     1      24.253   2.581  51.651  1.00  0.00     0.045 A 
ENDROOT
BRANCH  10  13
HETATM   13  N5  UNL     1      22.290   1.308  53.180  1.00  0.00    -0.354 N 
HETATM   14  H19 UNL     1      22.231   2.036  53.935  1.00  0.00     0.166 HD
BRANCH  13  15
HETATM   15  C15 UNL     1      21.169   0.952  52.412  1.00  0.00     0.033 A 
HETATM   16  C16 UNL     1      21.066   1.318  51.083  1.00  0.00     0.029 A 
HETATM   17  C17 UNL     1      19.968   0.972  50.319  1.00  0.00     0.004 A 
HETATM   18  C18 UNL     1      18.967   0.236  50.951  1.00  0.00     0.019 A 
HETATM   19  C19 UNL     1      19.063  -0.132  52.278  1.00  0.00     0.013 A 
HETATM   20 BR1  UNL     1      17.648  -1.146  53.085  1.00  0.00    -0.051 Br
HETATM   21  C20 UNL     1      20.167   0.217  53.036  1.00  0.00     0.048 A 
ENDBRANCH  13  15
ENDBRANCH  10  13
BRANCH   1  22
HETATM   22  N2  UNL     1      24.755   4.453  50.211  1.00  0.00    -0.386 N 
HETATM   23  H15 UNL     1      23.800   4.430  49.739  1.00  0.00     0.160 HD
BRANCH  22  24
HETATM   24  C2  UNL     1      25.481   5.700  50.079  1.00  0.00     0.079 C 
HETATM   25  C1  UNL     1      26.017   5.846  48.679  1.00  0.00     0.032 C 
BRANCH  24  26
HETATM   26  C3  UNL     1      24.703   6.911  50.456  1.00  0.00     0.055 C 
BRANCH  26  27
HETATM   27  C4  UNL     1      23.526   6.585  51.358  1.00  0.00     0.273 C 
BRANCH  27  28
HETATM   28  N1  UNL     1      22.347   7.267  50.812  1.00  0.00     0.080 N 
HETATM   29  C5  UNL     1      21.406   6.242  50.361  1.00  0.00     0.309 C 
HETATM   30  C6  UNL     1      22.742   8.118  49.707  1.00  0.00     0.309 C 
ENDBRANCH  27  28
ENDBRANCH  26  27
ENDBRANCH  24  26
ENDBRANCH  22  24
ENDBRANCH   1  22
TORSDOF 7
ENDMDL
MODEL 8
REMARK VINA RESULT:      -7.4      2.654      4.190
REMARK  7 active torsions:
REMARK  status: ('A' for Active; 'I' for Inactive)
REMARK    1  A    between atoms: C2_2  and  C3_3 
REMARK    2  A    between atoms: C2_2  and  N2_8 
REMARK    3  A    between atoms: C3_3  and  C4_4 
REMARK    4  A    between atoms: C4_4  and  N1_5 
REMARK    5  A    between atoms: N2_8  and  C7_9 
REMARK    6  A    between atoms: C14_18  and  N5_19 
REMARK    7  A    between atoms: N5_19  and  C15_20 
ROOT
HETATM    1  C7  UNL     1      23.738   1.360  52.000  1.00  0.00     0.029 A 
HETATM    2  C8  UNL     1      22.531   0.771  51.693  1.00  0.00     0.031 A 
HETATM    3  C9  UNL     1      21.419   1.430  51.214  1.00  0.00     0.035 A 
HETATM    4  C10 UNL     1      21.524   2.792  51.028  1.00  0.00     0.069 A 
HETATM    5  N3  UNL     1      20.480   3.490  50.565  1.00  0.00    -0.259 NA
HETATM    6  C11 UNL     1      20.611   4.818  50.393  1.00  0.00     0.142 A 
HETATM    7  C12 UNL     1      21.755   5.532  50.658  1.00  0.00     0.089 A 
HETATM    8  C13 UNL     1      21.829   6.965  50.448  1.00  0.00     0.103 C 
HETATM    9  N4  UNL     1      21.900   8.125  50.274  1.00  0.00    -0.191 NA
HETATM   10  C14 UNL     1      22.828   4.807  51.134  1.00  0.00     0.067 A 
HETATM   11  C21 UNL     1      22.707   3.435  51.318  1.00  0.00     0.023 A 
HETATM   12  C22 UNL     1      23.767   2.714  51.789  1.00  0.00     0.045 A 
ENDROOT
BRANCH  10  13
HETATM   13  N5  UNL     1      24.029   5.473  51.426  1.00  0.00    -0.354 N 
HETATM   14  H19 UNL     1      24.108   5.669  52.455  1.00  0.00     0.166 HD
BRANCH  13  15
HETATM   15  C15 UNL     1      25.034   5.857  50.524  1.00  0.00     0.033 A 
HETATM   16  C16 UNL     1      25.621   4.940  49.672  1.00  0.00     0.029 A 
HETATM   17  C17 UNL     1      26.610   5.308  48.780  1.00  0.00     0.004 A 
HETATM   18  C18 UNL     1      26.990   6.650  48.779  1.00  0.00     0.019 A 
HETATM   19  C19 UNL     1      26.409   7.570  49.627  1.00  0.00     0.013 A 
HETATM   20 BR1  UNL     1      26.980   9.401  49.573  1.00  0.00    -0.051 Br
HETATM   21  C20 UNL     1      25.417   7.193  50.518  1.00  0.00     0.048 A 
ENDBRANCH  13  15
ENDBRANCH  10  13
BRANCH   1  22
HETATM   22  N2  UNL     1      24.871   0.681  52.482  1.00  0.00    -0.386 N 
HETATM   23  H15 UNL     1      25.411   0.105  51.768  1.00  0.00     0.160 HD
BRANCH  22  24
HETATM   24  C2  UNL     1      25.406   0.658  53.828  1.00  0.00     0.079 C 
HETATM   25  C1  UNL     1      25.359  -0.740  54.386  1.00  0.00     0.032 C 
BRANCH  24  26
HETATM   26  C3  UNL     1      26.783   1.211  53.955  1.00  0.00     0.055 C 
BRANCH  26  27
HETATM   27  C4  UNL     1      27.698   0.305  54.760  1.00  0.00     0.273 C 
BRANCH  27  28
HETATM   28  N1  UNL     1      29.080   0.720  54.495  1.00  0.00     0.080 N 
HETATM   29  C5  UNL     1      29.040   2.060  53.910  1.00  0.00     0.309 C 
HETATM   30  C6  UNL     1      29.705  -0.216  53.581  1.00  0.00     0.309 C 
ENDBRANCH  27  28
ENDBRANCH  26  27
ENDBRANCH  24  26
ENDBRANCH  22  24
ENDBRANCH   1  22
TORSDOF 7
ENDMDL
MODEL 9
REMARK VINA RESULT:      -7.3      2.089      6.898
REMARK  7 active torsions:
REMARK  status: ('A' for Active; 'I' for Inactive)
REMARK    1  A    between atoms: C2_2  and  C3_3 
REMARK    2  A    between atoms: C2_2  and  N2_8 
REMARK    3  A    between atoms: C3_3  and  C4_4 
REMARK    4  A    between atoms: C4_4  and  N1_5 
REMARK    5  A    between atoms: N2_8  and  C7_9 
REMARK    6  A    between atoms: C14_18  and  N5_19 
REMARK    7  A    between atoms: N5_19  and  C15_20 
ROOT
HETATM    1  C7  UNL     1      19.467   0.213  51.569  1.00  0.00     0.029 A 
HETATM    2  C8  UNL     1      18.772  -0.496  52.524  1.00  0.00     0.031 A 
HETATM    3  C9  UNL     1      19.325  -1.089  53.639  1.00  0.00     0.035 A 
HETATM    4  C10 UNL     1      20.687  -0.963  53.811  1.00  0.00     0.069 A 
HETATM    5  N3  UNL     1      21.285  -1.516  54.874  1.00  0.00    -0.259 NA
HETATM    6  C11 UNL     1      22.615  -1.378  55.015  1.00  0.00     0.142 A 
HETATM    7  C12 UNL     1      23.429  -0.698  54.140  1.00  0.00     0.089 A 
HETATM    8  C13 UNL     1      24.859  -0.586  54.355  1.00  0.00     0.103 C 
HETATM    9  N4  UNL     1      26.018  -0.483  54.525  1.00  0.00    -0.191 NA
HETATM   10  C14 UNL     1      22.807  -0.130  53.048  1.00  0.00     0.067 A 
HETATM   11  C21 UNL     1      21.434  -0.266  52.888  1.00  0.00     0.023 A 
HETATM   12  C22 UNL     1      20.815   0.296  51.807  1.00  0.00     0.045 A 
ENDROOT
BRANCH  10  13
HETATM   13  N5  UNL     1      23.578   0.579  52.113  1.00  0.00    -0.354 N 
HETATM   14  H19 UNL     1      24.176  -0.074  51.548  1.00  0.00     0.166 HD
BRANCH  13  15
HETATM   15  C15 UNL     1      23.602   1.967  51.902  1.00  0.00     0.033 A 
HETATM   16  C16 UNL     1      23.766   2.849  52.954  1.00  0.00     0.029 A 
HETATM   17  C17 UNL     1      23.792   4.216  52.758  1.00  0.00     0.004 A 
HETATM   18  C18 UNL     1      23.645   4.667  51.446  1.00  0.00     0.019 A 
HETATM   19  C19 UNL     1      23.480   3.792  50.391  1.00  0.00     0.013 A 
HETATM   20 BR1  UNL     1      23.282   4.481  48.611  1.00  0.00    -0.051 Br
HETATM   21  C20 UNL     1      23.456   2.423  50.597  1.00  0.00     0.048 A 
ENDBRANCH  13  15
ENDBRANCH  10  13
BRANCH   1  22
HETATM   22  N2  UNL     1      18.896   0.821  50.438  1.00  0.00    -0.386 N 
HETATM   23  H15 UNL     1      18.754   0.193  49.589  1.00  0.00     0.160 HD
BRANCH  22  24
HETATM   24  C2  UNL     1      18.473   2.196  50.267  1.00  0.00     0.079 C 
HETATM   25  C1  UNL     1      19.543   2.989  49.564  1.00  0.00     0.032 C 
BRANCH  24  26
HETATM   26  C3  UNL     1      17.172   2.359  49.561  1.00  0.00     0.055 C 
BRANCH  26  27
HETATM   27  C4  UNL     1      16.257   3.352  50.256  1.00  0.00     0.273 C 
BRANCH  27  28
HETATM   28  N1  UNL     1      16.274   3.043  51.690  1.00  0.00     0.080 N 
HETATM   29  C5  UNL     1      15.309   1.970  51.928  1.00  0.00     0.309 C 
HETATM   30  C6  UNL     1      15.920   4.226  52.450  1.00  0.00     0.309 C 
ENDBRANCH  27  28
ENDBRANCH  26  27
ENDBRANCH  24  26
ENDBRANCH  22  24
ENDBRANCH   1  22
TORSDOF 7
ENDMDL
