MODEL 1
REMARK VINA RESULT:      -8.4      0.000      0.000
REMARK  4 active torsions:
REMARK  status: ('A' for Active; 'I' for Inactive)
REMARK    1  A    between atoms: N1_1  and  S1_2 
REMARK    2  A    between atoms: S1_2  and  C1_5 
REMARK    3  A    between atoms: C7_12  and  C8_13 
REMARK    4  A    between atoms: C8_13  and  N2_14 
ROOT
HETATM    1  C1  UNL     1      19.549   0.639  51.362  1.00  0.00     0.076 A 
HETATM    2  C2  UNL     1      19.010  -0.151  52.297  1.00  0.00     0.037 A 
HETATM    3  C3  UNL     1      20.090  -0.630  53.160  1.00  0.00    -0.020 A 
HETATM    4  C4  UNL     1      20.356  -1.381  54.212  1.00  0.00     0.068 A 
HETATM    5  C5  UNL     1      21.789  -1.351  54.474  1.00  0.00     0.183 A 
HETATM    6  O3  UNL     1      22.363  -1.964  55.408  1.00  0.00    -0.288 OA
HETATM    7  C6  UNL     1      22.428  -0.500  53.479  1.00  0.00     0.023 A 
HETATM    8  C7  UNL     1      23.702  -0.179  53.321  1.00  0.00     0.009 C 
HETATM    9  C15 UNL     1      21.322  -0.046  52.646  1.00  0.00    -0.010 A 
HETATM   10  C16 UNL     1      21.003   0.705  51.582  1.00  0.00     0.038 A 
ENDROOT
BRANCH   8  11
HETATM   11  C8  UNL     1      24.838  -0.611  54.132  1.00  0.00     0.152 C 
BRANCH  11  12
HETATM   12  N2  UNL     1      26.060   0.105  53.938  1.00  0.00    -0.369 N 
HETATM   13  C9  UNL     1      26.913   0.873  53.846  1.00  0.00     0.066 A 
HETATM   14  C10 UNL     1      27.666   1.522  53.765  1.00  0.00    -0.130 C 
HETATM   15  C14 UNL     1      27.408  -0.540  53.477  1.00  0.00     0.166 A 
HETATM   16  C11 UNL     1      28.744   2.405  53.649  1.00  0.00     0.087 C 
HETATM   17  C12 UNL     1      29.510   0.912  53.739  1.00  0.00     0.013 C 
HETATM   18  C13 UNL     1      28.687  -0.237  54.193  1.00  0.00     0.025 C 
ENDBRANCH  11  12
ENDBRANCH   8  11
BRANCH   1  19
HETATM   19  S1  UNL     1      18.608   1.431  50.114  1.00  0.00     0.239 S 
HETATM   20  O1  UNL     1      18.016   2.725  50.604  1.00  0.00    -0.206 OA
HETATM   21  O2  UNL     1      17.444   0.564  49.712  1.00  0.00    -0.206 OA
BRANCH  19  22
HETATM   22  N1  UNL     1      19.601   1.805  48.744  1.00  0.00    -0.225 NA
HETATM   23  H1  UNL     1      19.281   1.254  47.918  1.00  0.00     0.136 HD
HETATM   24  H2  UNL     1      20.607   1.550  48.926  1.00  0.00     0.136 HD
ENDBRANCH  19  22
ENDBRANCH   1  19
TORSDOF 4
ENDMDL
MODEL 2
REMARK VINA RESULT:      -8.2      3.716      8.450
REMARK  4 active torsions:
REMARK  status: ('A' for Active; 'I' for Inactive)
REMARK    1  A    between atoms: N1_1  and  S1_2 
REMARK    2  A    between atoms: S1_2  and  C1_5 
REMARK    3  A    between atoms: C7_12  and  C8_13 
REMARK    4  A    between atoms: C8_13  and  N2_14 
ROOT
HETATM    1  C1  UNL     1      26.745   0.564  53.087  1.00  0.00     0.076 A 
HETATM    2  C2  UNL     1      26.788   1.430  52.068  1.00  0.00     0.037 A 
HETATM    3  C3  UNL     1      25.412   1.803  51.736  1.00  0.00    -0.020 A 
HETATM    4  C4  UNL     1      24.678   2.542  50.926  1.00  0.00     0.068 A 
HETATM    5  C5  UNL     1      23.270   2.357  51.251  1.00  0.00     0.183 A 
HETATM    6  O3  UNL     1      22.315   2.922  50.662  1.00  0.00    -0.288 OA
HETATM    7  C6  UNL     1      23.166   1.418  52.361  1.00  0.00     0.023 A 
HETATM    8  C7  UNL     1      22.099   0.953  52.988  1.00  0.00     0.009 C 
HETATM    9  C15 UNL     1      24.551   1.075  52.658  1.00  0.00    -0.010 A 
HETATM   10  C16 UNL     1      25.338   0.342  53.457  1.00  0.00     0.038 A 
ENDROOT
BRANCH   8  11
HETATM   11  C8  UNL     1      20.697   1.271  52.722  1.00  0.00     0.152 C 
BRANCH  11  12
HETATM   12  N2  UNL     1      19.769   0.192  52.853  1.00  0.00    -0.369 N 
HETATM   13  C9  UNL     1      19.149  -0.729  53.158  1.00  0.00     0.066 A 
HETATM   14  C10 UNL     1      18.596  -1.521  53.405  1.00  0.00    -0.130 C 
HETATM   15  C14 UNL     1      18.606  -0.110  51.853  1.00  0.00     0.166 A 
HETATM   16  C11 UNL     1      17.797  -2.622  53.730  1.00  0.00     0.087 C 
HETATM   17  C12 UNL     1      16.822  -1.775  52.655  1.00  0.00     0.013 C 
HETATM   18  C13 UNL     1      17.219  -0.378  52.349  1.00  0.00     0.025 C 
ENDBRANCH  11  12
ENDBRANCH   8  11
BRANCH   1  19
HETATM   19  S1  UNL     1      28.178  -0.144  53.807  1.00  0.00     0.239 S 
HETATM   20  O1  UNL     1      28.403  -1.550  53.323  1.00  0.00    -0.206 OA
HETATM   21  O2  UNL     1      28.016  -0.237  55.302  1.00  0.00    -0.206 OA
BRANCH  19  22
HETATM   22  N1  UNL     1      29.587   0.775  53.396  1.00  0.00    -0.225 NA
HETATM   23  H1  UNL     1      30.252   0.177  52.858  1.00  0.00     0.136 HD
HETATM   24  H2  UNL     1      30.087   1.107  54.263  1.00  0.00     0.136 HD
ENDBRANCH  19  22
ENDBRANCH   1  19
TORSDOF 4
ENDMDL
MODEL 3
REMARK VINA RESULT:      -8.2      2.368      3.085
REMARK  4 active torsions:
REMARK  status: ('A' for Active; 'I' for Inactive)
REMARK    1  A    between atoms: N1_1  and  S1_2 
REMARK    2  A    between atoms: S1_2  and  C1_5 
REMARK    3  A    between atoms: C7_12  and  C8_13 
REMARK    4  A    between atoms: C8_13  and  N2_14 
ROOT
HETATM    1  C1  UNL     1      21.953   2.145  49.639  1.00  0.00     0.076 A 
HETATM    2  C2  UNL     1      21.356   1.103  50.226  1.00  0.00     0.037 A 
HETATM    3  C3  UNL     1      22.153   0.725  51.394  1.00  0.00    -0.020 A 
HETATM    4  C4  UNL     1      22.226  -0.124  52.401  1.00  0.00     0.068 A 
HETATM    5  C5  UNL     1      23.413   0.172  53.193  1.00  0.00     0.183 A 
HETATM    6  O3  UNL     1      23.767  -0.457  54.221  1.00  0.00    -0.288 OA
HETATM    7  C6  UNL     1      24.104   1.306  52.593  1.00  0.00     0.023 A 
HETATM    8  C7  UNL     1      25.216   1.921  52.962  1.00  0.00     0.009 C 
HETATM    9  C15 UNL     1      23.280   1.647  51.441  1.00  0.00    -0.010 A 
HETATM   10  C16 UNL     1      23.162   2.487  50.403  1.00  0.00     0.038 A 
ENDROOT
BRANCH   8  11
HETATM   11  C8  UNL     1      26.069   1.611  54.108  1.00  0.00     0.152 C 
BRANCH  11  12
HETATM   12  N2  UNL     1      27.022   0.563  53.921  1.00  0.00    -0.369 N 
HETATM   13  C9  UNL     1      27.617  -0.380  53.632  1.00  0.00     0.066 A 
HETATM   14  C10 UNL     1      28.151  -1.187  53.390  1.00  0.00    -0.130 C 
HETATM   15  C14 UNL     1      28.443   0.522  54.572  1.00  0.00     0.166 A 
HETATM   16  C11 UNL     1      28.928  -2.303  53.064  1.00  0.00     0.087 C 
HETATM   17  C12 UNL     1      30.080  -1.213  53.618  1.00  0.00     0.013 C 
HETATM   18  C13 UNL     1      29.654   0.203  53.751  1.00  0.00     0.025 C 
ENDBRANCH  11  12
ENDBRANCH   8  11
BRANCH   1  19
HETATM   19  S1  UNL     1      21.330   2.921  48.195  1.00  0.00     0.239 S 
HETATM   20  O1  UNL     1      22.203   2.650  47.001  1.00  0.00    -0.206 OA
HETATM   21  O2  UNL     1      21.318   4.417  48.374  1.00  0.00    -0.206 OA
BRANCH  19  22
HETATM   22  N1  UNL     1      19.745   2.333  47.819  1.00  0.00    -0.225 NA
HETATM   23  H1  UNL     1      19.424   2.741  46.915  1.00  0.00     0.136 HD
HETATM   24  H2  UNL     1      19.051   2.617  48.561  1.00  0.00     0.136 HD
ENDBRANCH  19  22
ENDBRANCH   1  19
TORSDOF 4
ENDMDL
MODEL 4
REMARK VINA RESULT:      -8.0      5.545      7.845
REMARK  4 active torsions:
REMARK  status: ('A' for Active; 'I' for Inactive)
REMARK    1  A    between atoms: N1_1  and  S1_2 
REMARK    2  A    between atoms: S1_2  and  C1_5 
REMARK    3  A    between atoms: C7_12  and  C8_13 
REMARK    4  A    between atoms: C8_13  and  N2_14 
ROOT
HETATM    1  C1  UNL     1      25.783   0.432  52.941  1.00  0.00     0.076 A 
HETATM    2  C2  UNL     1      24.485   0.568  52.647  1.00  0.00     0.037 A 
HETATM    3  C3  UNL     1      24.359   1.623  51.640  1.00  0.00    -0.020 A 
HETATM    4  C4  UNL     1      23.492   2.290  50.903  1.00  0.00     0.068 A 
HETATM    5  C5  UNL     1      24.205   3.261  50.084  1.00  0.00     0.183 A 
HETATM    6  O3  UNL     1      23.665   4.053  49.272  1.00  0.00    -0.288 OA
HETATM    7  C6  UNL     1      25.631   3.155  50.367  1.00  0.00     0.023 A 
HETATM    8  C7  UNL     1      26.653   3.828  49.866  1.00  0.00     0.009 C 
HETATM    9  C15 UNL     1      25.709   2.098  51.368  1.00  0.00    -0.010 A 
HETATM   10  C16 UNL     1      26.552   1.394  52.136  1.00  0.00     0.038 A 
ENDROOT
BRANCH   8  11
HETATM   11  C8  UNL     1      26.618   4.892  48.865  1.00  0.00     0.152 C 
BRANCH  11  12
HETATM   12  N2  UNL     1      27.881   5.430  48.470  1.00  0.00    -0.369 N 
HETATM   13  C9  UNL     1      28.973   5.633  48.166  1.00  0.00     0.066 A 
HETATM   14  C10 UNL     1      29.913   5.831  47.896  1.00  0.00    -0.130 C 
HETATM   15  C14 UNL     1      28.161   6.944  48.201  1.00  0.00     0.166 A 
HETATM   16  C11 UNL     1      31.221   6.139  47.508  1.00  0.00     0.087 C 
HETATM   17  C12 UNL     1      30.368   7.497  47.008  1.00  0.00     0.013 C 
HETATM   18  C13 UNL     1      28.888   7.383  46.968  1.00  0.00     0.025 C 
ENDBRANCH  11  12
ENDBRANCH   8  11
BRANCH   1  19
HETATM   19  S1  UNL     1      26.387  -0.729  54.108  1.00  0.00     0.239 S 
HETATM   20  O1  UNL     1      26.845  -1.997  53.440  1.00  0.00    -0.206 OA
HETATM   21  O2  UNL     1      25.289  -1.130  55.058  1.00  0.00    -0.206 OA
BRANCH  19  22
HETATM   22  N1  UNL     1      27.742  -0.080  54.970  1.00  0.00    -0.225 NA
HETATM   23  H1  UNL     1      28.345   0.465  54.317  1.00  0.00     0.136 HD
HETATM   24  H2  UNL     1      28.332  -0.852  55.380  1.00  0.00     0.136 HD
ENDBRANCH  19  22
ENDBRANCH   1  19
TORSDOF 4
ENDMDL
MODEL 5
REMARK VINA RESULT:      -7.9      6.761      9.031
REMARK  4 active torsions:
REMARK  status: ('A' for Active; 'I' for Inactive)
REMARK    1  A    between atoms: N1_1  and  S1_2 
REMARK    2  A    between atoms: S1_2  and  C1_5 
REMARK    3  A    between atoms: C7_12  and  C8_13 
REMARK    4  A    between atoms: C8_13  and  N2_14 
ROOT
HETATM    1  C1  UNL     1      28.342   5.648  48.434  1.00  0.00     0.076 A 
HETATM    2  C2  UNL     1      27.528   6.679  48.183  1.00  0.00     0.037 A 
HETATM    3  C3  UNL     1      26.161   6.262  48.498  1.00  0.00    -0.020 A 
HETATM    4  C4  UNL     1      24.905   6.665  48.519  1.00  0.00     0.068 A 
HETATM    5  C5  UNL     1      24.060   5.579  48.998  1.00  0.00     0.183 A 
HETATM    6  O3  UNL     1      22.813   5.643  49.133  1.00  0.00    -0.288 OA
HETATM    7  C6  UNL     1      24.901   4.424  49.286  1.00  0.00     0.023 A 
HETATM    8  C7  UNL     1      24.577   3.224  49.738  1.00  0.00     0.009 C 
HETATM    9  C15 UNL     1      26.245   4.883  48.961  1.00  0.00    -0.010 A 
HETATM   10  C16 UNL     1      27.535   4.519  48.923  1.00  0.00     0.038 A 
ENDROOT
BRANCH   8  11
HETATM   11  C8  UNL     1      23.246   2.726  50.076  1.00  0.00     0.152 C 
BRANCH  11  12
HETATM   12  N2  UNL     1      23.181   1.753  51.121  1.00  0.00    -0.369 N 
HETATM   13  C9  UNL     1      23.358   1.037  52.006  1.00  0.00     0.066 A 
HETATM   14  C10 UNL     1      23.489   0.413  52.772  1.00  0.00    -0.130 C 
HETATM   15  C14 UNL     1      21.934   0.865  51.438  1.00  0.00     0.166 A 
HETATM   16  C11 UNL     1      23.638  -0.468  53.848  1.00  0.00     0.087 C 
HETATM   17  C12 UNL     1      21.968  -0.381  53.684  1.00  0.00     0.013 C 
HETATM   18  C13 UNL     1      21.434   0.718  52.841  1.00  0.00     0.025 C 
ENDBRANCH  11  12
ENDBRANCH   8  11
BRANCH   1  19
HETATM   19  S1  UNL     1      30.077   5.713  48.193  1.00  0.00     0.239 S 
HETATM   20  O1  UNL     1      30.467   6.847  47.284  1.00  0.00    -0.206 OA
HETATM   21  O2  UNL     1      30.555   4.453  47.519  1.00  0.00    -0.206 OA
BRANCH  19  22
HETATM   22  N1  UNL     1      30.895   5.954  49.700  1.00  0.00    -0.225 NA
HETATM   23  H1  UNL     1      31.875   6.265  49.522  1.00  0.00     0.136 HD
HETATM   24  H2  UNL     1      30.942   5.057  50.252  1.00  0.00     0.136 HD
ENDBRANCH  19  22
ENDBRANCH   1  19
TORSDOF 4
ENDMDL
MODEL 6
REMARK VINA RESULT:      -7.8      3.711      7.880
REMARK  4 active torsions:
REMARK  status: ('A' for Active; 'I' for Inactive)
REMARK    1  A    between atoms: N1_1  and  S1_2 
REMARK    2  A    between atoms: S1_2  and  C1_5 
REMARK    3  A    between atoms: C7_12  and  C8_13 
REMARK    4  A    between atoms: C8_13  and  N2_14 
ROOT
HETATM    1  C1  UNL     1      26.977   0.700  54.057  1.00  0.00     0.076 A 
HETATM    2  C2  UNL     1      26.733  -0.115  55.089  1.00  0.00     0.037 A 
HETATM    3  C3  UNL     1      25.331  -0.529  55.016  1.00  0.00    -0.020 A 
HETATM    4  C4  UNL     1      24.407  -1.259  55.610  1.00  0.00     0.068 A 
HETATM    5  C5  UNL     1      23.157  -1.147  54.869  1.00  0.00     0.183 A 
HETATM    6  O3  UNL     1      22.084  -1.722  55.177  1.00  0.00    -0.288 OA
HETATM    7  C6  UNL     1      23.368  -0.265  53.729  1.00  0.00     0.023 A 
HETATM    8  C7  UNL     1      22.526   0.127  52.786  1.00  0.00     0.009 C 
HETATM    9  C15 UNL     1      24.769   0.121  53.840  1.00  0.00    -0.010 A 
HETATM   10  C16 UNL     1      25.741   0.848  53.272  1.00  0.00     0.038 A 
ENDROOT
BRANCH   8  11
HETATM   11  C8  UNL     1      21.118  -0.235  52.639  1.00  0.00     0.152 C 
BRANCH  11  12
HETATM   12  N2  UNL     1      20.255   0.781  52.126  1.00  0.00    -0.369 N 
HETATM   13  C9  UNL     1      19.610   1.713  51.920  1.00  0.00     0.066 A 
HETATM   14  C10 UNL     1      19.049   2.513  51.721  1.00  0.00    -0.130 C 
HETATM   15  C14 UNL     1      19.513   0.711  50.751  1.00  0.00     0.166 A 
HETATM   16  C11 UNL     1      18.260   3.625  51.408  1.00  0.00     0.087 C 
HETATM   17  C12 UNL     1      18.479   2.906  49.906  1.00  0.00     0.013 C 
HETATM   18  C13 UNL     1      19.540   1.872  49.806  1.00  0.00     0.025 C 
ENDBRANCH  11  12
ENDBRANCH   8  11
BRANCH   1  19
HETATM   19  S1  UNL     1      28.541   1.432  53.759  1.00  0.00     0.239 S 
HETATM   20  O1  UNL     1      29.509   0.446  53.162  1.00  0.00    -0.206 OA
HETATM   21  O2  UNL     1      29.157   1.889  55.055  1.00  0.00    -0.206 OA
BRANCH  19  22
HETATM   22  N1  UNL     1      28.397   2.751  52.645  1.00  0.00    -0.225 NA
HETATM   23  H1  UNL     1      28.955   2.550  51.787  1.00  0.00     0.136 HD
HETATM   24  H2  UNL     1      28.772   3.642  53.066  1.00  0.00     0.136 HD
ENDBRANCH  19  22
ENDBRANCH   1  19
TORSDOF 4
ENDMDL
MODEL 7
REMARK VINA RESULT:      -7.7      7.662      9.731
REMARK  4 active torsions:
REMARK  status: ('A' for Active; 'I' for Inactive)
REMARK    1  A    between atoms: N1_1  and  S1_2 
REMARK    2  A    between atoms: S1_2  and  C1_5 
REMARK    3  A    between atoms: C7_12  and  C8_13 
REMARK    4  A    between atoms: C8_13  and  N2_14 
ROOT
HETATM    1  C1  UNL     1      29.696   6.689  47.501  1.00  0.00     0.076 A 
HETATM    2  C2  UNL     1      28.667   7.527  47.329  1.00  0.00     0.037 A 
HETATM    3  C3  UNL     1      27.478   6.907  47.914  1.00  0.00    -0.020 A 
HETATM    4  C4  UNL     1      26.188   7.080  48.132  1.00  0.00     0.068 A 
HETATM    5  C5  UNL     1      25.659   5.916  48.831  1.00  0.00     0.183 A 
HETATM    6  O3  UNL     1      24.463   5.770  49.184  1.00  0.00    -0.288 OA
HETATM    7  C6  UNL     1      26.744   4.966  49.044  1.00  0.00     0.023 A 
HETATM    8  C7  UNL     1      26.737   3.780  49.631  1.00  0.00     0.009 C 
HETATM    9  C15 UNL     1      27.902   5.621  48.450  1.00  0.00    -0.010 A 
HETATM   10  C16 UNL     1      29.214   5.491  48.206  1.00  0.00     0.038 A 
ENDROOT
BRANCH   8  11
HETATM   11  C8  UNL     1      25.601   3.090  50.238  1.00  0.00     0.152 C 
BRANCH  11  12
HETATM   12  N2  UNL     1      25.915   2.085  51.204  1.00  0.00    -0.369 N 
HETATM   13  C9  UNL     1      26.307   1.185  51.805  1.00  0.00     0.066 A 
HETATM   14  C10 UNL     1      26.637   0.415  52.346  1.00  0.00    -0.130 C 
HETATM   15  C14 UNL     1      25.327   2.024  52.651  1.00  0.00     0.166 A 
HETATM   16  C11 UNL     1      27.088  -0.651  53.131  1.00  0.00     0.087 C 
HETATM   17  C12 UNL     1      26.490   0.417  54.282  1.00  0.00     0.013 C 
HETATM   18  C13 UNL     1      26.220   1.806  53.833  1.00  0.00     0.025 C 
ENDBRANCH  11  12
ENDBRANCH   8  11
BRANCH   1  19
HETATM   19  S1  UNL     1      31.322   7.037  46.947  1.00  0.00     0.239 S 
HETATM   20  O1  UNL     1      32.069   7.897  47.929  1.00  0.00    -0.206 OA
HETATM   21  O2  UNL     1      31.276   7.816  45.658  1.00  0.00    -0.206 OA
BRANCH  19  22
HETATM   22  N1  UNL     1      32.227   5.573  46.750  1.00  0.00    -0.225 NA
HETATM   23  H1  UNL     1      33.088   5.765  46.193  1.00  0.00     0.136 HD
HETATM   24  H2  UNL     1      31.665   4.849  46.229  1.00  0.00     0.136 HD
ENDBRANCH  19  22
ENDBRANCH   1  19
TORSDOF 4
ENDMDL
MODEL 8
REMARK VINA RESULT:      -7.6      5.013      6.731
REMARK  4 active torsions:
REMARK  status: ('A' for Active; 'I' for Inactive)
REMARK    1  A    between atoms: N1_1  and  S1_2 
REMARK    2  A    between atoms: S1_2  and  C1_5 
REMARK    3  A    between atoms: C7_12  and  C8_13 
REMARK    4  A    between atoms: C8_13  and  N2_14 
ROOT
HETATM    1  C1  UNL     1      23.577  -0.269  53.870  1.00  0.00     0.076 A 
HETATM    2  C2  UNL     1      24.784  -0.362  54.439  1.00  0.00     0.037 A 
HETATM    3  C3  UNL     1      25.693   0.529  53.717  1.00  0.00    -0.020 A 
HETATM    4  C4  UNL     1      26.937   0.964  53.667  1.00  0.00     0.068 A 
HETATM    5  C5  UNL     1      27.069   1.919  52.574  1.00  0.00     0.183 A 
HETATM    6  O3  UNL     1      28.130   2.515  52.263  1.00  0.00    -0.288 OA
HETATM    7  C6  UNL     1      25.776   2.058  51.917  1.00  0.00     0.023 A 
HETATM    8  C7  UNL     1      25.418   2.806  50.886  1.00  0.00     0.009 C 
HETATM    9  C15 UNL     1      24.906   1.159  52.665  1.00  0.00    -0.010 A 
HETATM   10  C16 UNL     1      23.655   0.688  52.755  1.00  0.00     0.038 A 
ENDROOT
BRANCH   8  11
HETATM   11  C8  UNL     1      26.256   3.718  50.111  1.00  0.00     0.152 C 
BRANCH  11  12
HETATM   12  N2  UNL     1      25.777   5.058  49.979  1.00  0.00    -0.369 N 
HETATM   13  C9  UNL     1      25.428   6.148  50.112  1.00  0.00     0.066 A 
HETATM   14  C10 UNL     1      25.125   7.093  50.204  1.00  0.00    -0.130 C 
HETATM   15  C14 UNL     1      25.312   5.711  48.637  1.00  0.00     0.166 A 
HETATM   16  C11 UNL     1      24.703   8.423  50.300  1.00  0.00     0.087 C 
HETATM   17  C12 UNL     1      25.019   8.263  48.657  1.00  0.00     0.013 C 
HETATM   18  C13 UNL     1      25.797   7.070  48.237  1.00  0.00     0.025 C 
ENDBRANCH  11  12
ENDBRANCH   8  11
BRANCH   1  19
HETATM   19  S1  UNL     1      22.181  -1.174  54.424  1.00  0.00     0.239 S 
HETATM   20  O1  UNL     1      22.513  -2.025  55.619  1.00  0.00    -0.206 OA
HETATM   21  O2  UNL     1      21.718  -2.123  53.350  1.00  0.00    -0.206 OA
BRANCH  19  22
HETATM   22  N1  UNL     1      20.904  -0.101  54.892  1.00  0.00    -0.225 NA
HETATM   23  H1  UNL     1      21.228   0.511  55.673  1.00  0.00     0.136 HD
HETATM   24  H2  UNL     1      20.066  -0.641  55.237  1.00  0.00     0.136 HD
ENDBRANCH  19  22
ENDBRANCH   1  19
TORSDOF 4
ENDMDL
MODEL 9
REMARK VINA RESULT:      -7.5      4.358      7.620
REMARK  4 active torsions:
REMARK  status: ('A' for Active; 'I' for Inactive)
REMARK    1  A    between atoms: N1_1  and  S1_2 
REMARK    2  A    between atoms: S1_2  and  C1_5 
REMARK    3  A    between atoms: C7_12  and  C8_13 
REMARK    4  A    between atoms: C8_13  and  N2_14 
ROOT
HETATM    1  C1  UNL     1      25.629   3.996  50.260  1.00  0.00     0.076 A 
HETATM    2  C2  UNL     1      26.595   3.160  50.654  1.00  0.00     0.037 A 
HETATM    3  C3  UNL     1      25.968   2.059  51.387  1.00  0.00    -0.020 A 
HETATM    4  C4  UNL     1      26.215   0.937  52.034  1.00  0.00     0.068 A 
HETATM    5  C5  UNL     1      24.960   0.373  52.514  1.00  0.00     0.183 A 
HETATM    6  O3  UNL     1      24.853  -0.694  53.168  1.00  0.00    -0.288 OA
HETATM    7  C6  UNL     1      23.868   1.250  52.109  1.00  0.00     0.023 A 
HETATM    8  C7  UNL     1      22.566   1.145  52.319  1.00  0.00     0.009 C 
HETATM    9  C15 UNL     1      24.536   2.326  51.387  1.00  0.00    -0.010 A 
HETATM   10  C16 UNL     1      24.335   3.471  50.720  1.00  0.00     0.038 A 
ENDROOT
BRANCH   8  11
HETATM   11  C8  UNL     1      21.859   0.086  53.035  1.00  0.00     0.152 C 
BRANCH  11  12
HETATM   12  N2  UNL     1      20.479  -0.085  52.708  1.00  0.00    -0.369 N 
HETATM   13  C9  UNL     1      19.434  -0.141  52.227  1.00  0.00     0.066 A 
HETATM   14  C10 UNL     1      18.522  -0.202  51.829  1.00  0.00    -0.130 C 
HETATM   15  C14 UNL     1      19.385  -0.599  53.699  1.00  0.00     0.166 A 
HETATM   16  C11 UNL     1      17.233  -0.305  51.297  1.00  0.00     0.087 C 
HETATM   17  C12 UNL     1      17.141  -1.288  52.656  1.00  0.00     0.013 C 
HETATM   18  C13 UNL     1      18.425  -1.674  53.292  1.00  0.00     0.025 C 
ENDBRANCH  11  12
ENDBRANCH   8  11
BRANCH   1  19
HETATM   19  S1  UNL     1      25.939   5.460  49.345  1.00  0.00     0.239 S 
HETATM   20  O1  UNL     1      24.801   5.783  48.416  1.00  0.00    -0.206 OA
HETATM   21  O2  UNL     1      27.154   5.279  48.472  1.00  0.00    -0.206 OA
BRANCH  19  22
HETATM   22  N1  UNL     1      26.139   6.814  50.407  1.00  0.00    -0.225 NA
HETATM   23  H1  UNL     1      25.222   7.059  50.839  1.00  0.00     0.136 HD
HETATM   24  H2  UNL     1      26.478   7.660  49.878  1.00  0.00     0.136 HD
ENDBRANCH  19  22
ENDBRANCH   1  19
TORSDOF 4
ENDMDL
