MODEL 1
REMARK VINA RESULT:      -6.2      0.000      0.000
REMARK  9 active torsions:
REMARK  status: ('A' for Active; 'I' for Inactive)
REMARK    1  A    between atoms: N1_1  and  C1_2 
REMARK    2  A    between atoms: C1_2  and  C2_3 
REMARK    3  A    between atoms: C2_3  and  C3_4 
REMARK    4  A    between atoms: C8_12  and  C9_13 
REMARK    5  A    between atoms: C9_13  and  O1_14 
REMARK    6  A    between atoms: O1_14  and  C10_15 
REMARK    7  A    between atoms: C10_15  and  C11_16 
REMARK    8  A    between atoms: C11_16  and  C12_17 
REMARK    9  A    between atoms: C12_17  and  N4_18 
ROOT
HETATM    1  C2  UNL     1      26.847  -0.422  53.525  1.00  0.00     0.129 A 
HETATM    2  N2  UNL     1      27.991  -0.622  54.402  1.00  0.00    -0.261 NA
HETATM    3  C5  UNL     1      28.961   0.182  54.556  1.00  0.00     0.228 A 
HETATM    4  N3  UNL     1      29.030   1.400  53.861  1.00  0.00    -0.254 NA
HETATM    5  C6  UNL     1      28.096   1.744  53.030  1.00  0.00     0.128 A 
HETATM    6  C7  UNL     1      26.952   0.869  52.799  1.00  0.00    -0.007 A 
HETATM    7  C8  UNL     1      26.041   1.237  51.947  1.00  0.00     0.010 C 
ENDROOT
BRANCH   1   8
HETATM    8  C1  UNL     1      26.837  -1.557  52.534  1.00  0.00     0.309 C 
BRANCH   8   9
HETATM    9  N1  UNL     1      27.568  -2.656  53.123  1.00  0.00     0.081 N 
HETATM   10  H1  UNL     1      27.148  -3.583  52.896  1.00  0.00     0.312 HD
HETATM   11  H2  UNL     1      28.590  -2.609  52.895  1.00  0.00     0.312 HD
ENDBRANCH   8   9
ENDBRANCH   1   8
BRANCH   1  12
HETATM   12  C3  UNL     1      25.659  -0.456  54.449  1.00  0.00     0.042 C 
HETATM   13  C4  UNL     1      24.385  -0.711  54.188  1.00  0.00     0.187 C 
HETATM   14  F1  UNL     1      24.012  -0.993  52.917  1.00  0.00    -0.220 F 
ENDBRANCH   1  12
BRANCH   7  15
HETATM   15  C9  UNL     1      25.960   2.486  51.120  1.00  0.00     0.195 C 
BRANCH  15  16
HETATM   16  O1  UNL     1      24.806   3.132  51.538  1.00  0.00    -0.387 OA
BRANCH  16  17
HETATM   17  C10 UNL     1      23.716   2.331  51.363  1.00  0.00     0.169 C 
BRANCH  17  18
HETATM   18  C11 UNL     1      22.707   2.350  52.487  1.00  0.00     0.043 C 
BRANCH  18  19
HETATM   19  C12 UNL     1      21.719   1.252  52.139  1.00  0.00     0.123 C 
BRANCH  19  20
HETATM   20  N4  UNL     1      20.661   1.130  53.117  1.00  0.00    -0.195 NA
HETATM   21  C13 UNL     1      19.833  -0.023  52.801  1.00  0.00     0.148 C 
HETATM   22  C14 UNL     1      20.610  -0.781  53.853  1.00  0.00     0.210 C 
HETATM   23  O2  UNL     1      21.062   0.477  54.250  1.00  0.00    -0.302 OA
ENDBRANCH  19  20
ENDBRANCH  18  19
ENDBRANCH  17  18
ENDBRANCH  16  17
ENDBRANCH  15  16
ENDBRANCH   7  15
TORSDOF 9
ENDMDL
MODEL 2
REMARK VINA RESULT:      -6.2      2.925      6.326
REMARK  9 active torsions:
REMARK  status: ('A' for Active; 'I' for Inactive)
REMARK    1  A    between atoms: N1_1  and  C1_2 
REMARK    2  A    between atoms: C1_2  and  C2_3 
REMARK    3  A    between atoms: C2_3  and  C3_4 
REMARK    4  A    between atoms: C8_12  and  C9_13 
REMARK    5  A    between atoms: C9_13  and  O1_14 
REMARK    6  A    between atoms: O1_14  and  C10_15 
REMARK    7  A    between atoms: C10_15  and  C11_16 
REMARK    8  A    between atoms: C11_16  and  C12_17 
REMARK    9  A    between atoms: C12_17  and  N4_18 
ROOT
HETATM    1  C2  UNL     1      24.157   3.055  51.158  1.00  0.00     0.129 A 
HETATM    2  N2  UNL     1      23.997   3.614  49.823  1.00  0.00    -0.261 NA
HETATM    3  C5  UNL     1      23.205   3.188  48.928  1.00  0.00     0.228 A 
HETATM    4  N3  UNL     1      22.367   2.081  49.146  1.00  0.00    -0.254 NA
HETATM    5  C6  UNL     1      22.379   1.454  50.280  1.00  0.00     0.128 A 
HETATM    6  C7  UNL     1      23.265   1.884  51.355  1.00  0.00    -0.007 A 
HETATM    7  C8  UNL     1      23.264   1.222  52.474  1.00  0.00     0.010 C 
ENDROOT
BRANCH   1   8
HETATM    8  C1  UNL     1      25.594   2.622  51.293  1.00  0.00     0.309 C 
BRANCH   8   9
HETATM    9  N1  UNL     1      26.423   3.707  50.821  1.00  0.00     0.081 N 
HETATM   10  H1  UNL     1      27.161   3.388  50.157  1.00  0.00     0.312 HD
HETATM   11  H2  UNL     1      25.849   4.496  50.439  1.00  0.00     0.312 HD
ENDBRANCH   8   9
ENDBRANCH   1   8
BRANCH   1  12
HETATM   12  C3  UNL     1      23.811   4.192  52.081  1.00  0.00     0.042 C 
HETATM   13  C4  UNL     1      22.660   4.823  52.260  1.00  0.00     0.187 C 
HETATM   14  F1  UNL     1      21.578   4.446  51.537  1.00  0.00    -0.220 F 
ENDBRANCH   1  12
BRANCH   7  15
HETATM   15  C9  UNL     1      22.450   0.027  52.872  1.00  0.00     0.195 C 
BRANCH  15  16
HETATM   16  O1  UNL     1      23.371  -0.955  53.205  1.00  0.00    -0.387 OA
BRANCH  16  17
HETATM   17  C10 UNL     1      24.276  -0.480  54.107  1.00  0.00     0.169 C 
BRANCH  17  18
HETATM   18  C11 UNL     1      25.717  -0.847  53.839  1.00  0.00     0.043 C 
BRANCH  18  19
HETATM   19  C12 UNL     1      26.528   0.227  54.543  1.00  0.00     0.123 C 
BRANCH  19  20
HETATM   20  N4  UNL     1      27.848  -0.231  54.912  1.00  0.00    -0.195 NA
HETATM   21  C13 UNL     1      28.617  -0.524  53.713  1.00  0.00     0.148 C 
HETATM   22  C14 UNL     1      29.266   0.831  53.884  1.00  0.00     0.210 C 
HETATM   23  O2  UNL     1      28.713   0.798  55.163  1.00  0.00    -0.302 OA
ENDBRANCH  19  20
ENDBRANCH  18  19
ENDBRANCH  17  18
ENDBRANCH  16  17
ENDBRANCH  15  16
ENDBRANCH   7  15
TORSDOF 9
ENDMDL
MODEL 3
REMARK VINA RESULT:      -6.1      2.925      4.335
REMARK  9 active torsions:
REMARK  status: ('A' for Active; 'I' for Inactive)
REMARK    1  A    between atoms: N1_1  and  C1_2 
REMARK    2  A    between atoms: C1_2  and  C2_3 
REMARK    3  A    between atoms: C2_3  and  C3_4 
REMARK    4  A    between atoms: C8_12  and  C9_13 
REMARK    5  A    between atoms: C9_13  and  O1_14 
REMARK    6  A    between atoms: O1_14  and  C10_15 
REMARK    7  A    between atoms: C10_15  and  C11_16 
REMARK    8  A    between atoms: C11_16  and  C12_17 
REMARK    9  A    between atoms: C12_17  and  N4_18 
ROOT
HETATM    1  C2  UNL     1      26.713  -0.300  53.621  1.00  0.00     0.129 A 
HETATM    2  N2  UNL     1      27.808  -0.568  54.542  1.00  0.00    -0.261 NA
HETATM    3  C5  UNL     1      28.740   0.237  54.845  1.00  0.00     0.228 A 
HETATM    4  N3  UNL     1      28.812   1.527  54.294  1.00  0.00    -0.254 NA
HETATM    5  C6  UNL     1      27.920   1.939  53.449  1.00  0.00     0.128 A 
HETATM    6  C7  UNL     1      26.821   1.067  53.049  1.00  0.00    -0.007 A 
HETATM    7  C8  UNL     1      25.953   1.505  52.186  1.00  0.00     0.010 C 
ENDROOT
BRANCH   1   8
HETATM    8  C1  UNL     1      26.800  -1.317  52.511  1.00  0.00     0.309 C 
BRANCH   8   9
HETATM    9  N1  UNL     1      27.386  -2.516  53.065  1.00  0.00     0.081 N 
HETATM   10  H1  UNL     1      26.688  -3.280  53.192  1.00  0.00     0.312 HD
HETATM   11  H2  UNL     1      28.227  -2.824  52.521  1.00  0.00     0.312 HD
ENDBRANCH   8   9
ENDBRANCH   1   8
BRANCH   1  12
HETATM   12  C3  UNL     1      25.473  -0.467  54.457  1.00  0.00     0.042 C 
HETATM   13  C4  UNL     1      24.220  -0.692  54.086  1.00  0.00     0.187 C 
HETATM   14  F1  UNL     1      23.929  -0.801  52.768  1.00  0.00    -0.220 F 
ENDBRANCH   1  12
BRANCH   7  15
HETATM   15  C9  UNL     1      25.882   2.836  51.499  1.00  0.00     0.195 C 
BRANCH  15  16
HETATM   16  O1  UNL     1      26.791   2.763  50.455  1.00  0.00    -0.387 OA
BRANCH  16  17
HETATM   17  C10 UNL     1      26.590   3.781  49.570  1.00  0.00     0.169 C 
BRANCH  17  18
HETATM   18  C11 UNL     1      25.150   4.177  49.349  1.00  0.00     0.043 C 
BRANCH  18  19
HETATM   19  C12 UNL     1      25.193   5.674  49.098  1.00  0.00     0.123 C 
BRANCH  19  20
HETATM   20  N4  UNL     1      25.516   6.425  50.290  1.00  0.00    -0.195 NA
HETATM   21  C13 UNL     1      25.412   7.848  50.015  1.00  0.00     0.148 C 
HETATM   22  C14 UNL     1      24.047   7.802  50.664  1.00  0.00     0.210 C 
HETATM   23  O2  UNL     1      24.450   6.554  51.137  1.00  0.00    -0.302 OA
ENDBRANCH  19  20
ENDBRANCH  18  19
ENDBRANCH  17  18
ENDBRANCH  16  17
ENDBRANCH  15  16
ENDBRANCH   7  15
TORSDOF 9
ENDMDL
MODEL 4
REMARK VINA RESULT:      -6.0      2.377      4.147
REMARK  9 active torsions:
REMARK  status: ('A' for Active; 'I' for Inactive)
REMARK    1  A    between atoms: N1_1  and  C1_2 
REMARK    2  A    between atoms: C1_2  and  C2_3 
REMARK    3  A    between atoms: C2_3  and  C3_4 
REMARK    4  A    between atoms: C8_12  and  C9_13 
REMARK    5  A    between atoms: C9_13  and  O1_14 
REMARK    6  A    between atoms: O1_14  and  C10_15 
REMARK    7  A    between atoms: C10_15  and  C11_16 
REMARK    8  A    between atoms: C11_16  and  C12_17 
REMARK    9  A    between atoms: C12_17  and  N4_18 
ROOT
HETATM    1  C2  UNL     1      25.428   1.398  53.354  1.00  0.00     0.129 A 
HETATM    2  N2  UNL     1      26.547   1.247  54.274  1.00  0.00    -0.261 NA
HETATM    3  C5  UNL     1      26.692   0.318  55.125  1.00  0.00     0.228 A 
HETATM    4  N3  UNL     1      25.740  -0.705  55.273  1.00  0.00    -0.254 NA
HETATM    5  C6  UNL     1      24.673  -0.730  54.538  1.00  0.00     0.128 A 
HETATM    6  C7  UNL     1      24.437   0.308  53.541  1.00  0.00    -0.007 A 
HETATM    7  C8  UNL     1      23.348   0.262  52.831  1.00  0.00     0.010 C 
ENDROOT
BRANCH   1   8
HETATM    8  C1  UNL     1      24.778   2.725  53.652  1.00  0.00     0.309 C 
BRANCH   8   9
HETATM    9  N1  UNL     1      24.838   3.519  52.446  1.00  0.00     0.081 N 
HETATM   10  H1  UNL     1      25.105   2.957  51.610  1.00  0.00     0.312 HD
HETATM   11  H2  UNL     1      23.957   4.069  52.299  1.00  0.00     0.312 HD
ENDBRANCH   8   9
ENDBRANCH   1   8
BRANCH   1  12
HETATM   12  C3  UNL     1      26.060   1.362  51.989  1.00  0.00     0.042 C 
HETATM   13  C4  UNL     1      26.725   0.387  51.385  1.00  0.00     0.187 C 
HETATM   14  F1  UNL     1      26.906  -0.790  52.029  1.00  0.00    -0.220 F 
ENDBRANCH   1  12
BRANCH   7  15
HETATM   15  C9  UNL     1      22.233  -0.741  52.862  1.00  0.00     0.195 C 
BRANCH  15  16
HETATM   16  O1  UNL     1      21.106  -0.031  53.246  1.00  0.00    -0.387 OA
BRANCH  16  17
HETATM   17  C10 UNL     1      21.240   1.290  52.936  1.00  0.00     0.169 C 
BRANCH  17  18
HETATM   18  C11 UNL     1      20.075   1.908  52.199  1.00  0.00     0.043 C 
BRANCH  18  19
HETATM   19  C12 UNL     1      20.356   3.400  52.213  1.00  0.00     0.123 C 
BRANCH  19  20
HETATM   20  N4  UNL     1      21.729   3.707  51.882  1.00  0.00    -0.195 NA
HETATM   21  C13 UNL     1      21.784   4.370  50.590  1.00  0.00     0.148 C 
HETATM   22  C14 UNL     1      21.893   5.676  51.343  1.00  0.00     0.210 C 
HETATM   23  O2  UNL     1      22.162   4.873  52.451  1.00  0.00    -0.302 OA
ENDBRANCH  19  20
ENDBRANCH  18  19
ENDBRANCH  17  18
ENDBRANCH  16  17
ENDBRANCH  15  16
ENDBRANCH   7  15
TORSDOF 9
ENDMDL
MODEL 5
REMARK VINA RESULT:      -5.9      1.734      1.908
REMARK  9 active torsions:
REMARK  status: ('A' for Active; 'I' for Inactive)
REMARK    1  A    between atoms: N1_1  and  C1_2 
REMARK    2  A    between atoms: C1_2  and  C2_3 
REMARK    3  A    between atoms: C2_3  and  C3_4 
REMARK    4  A    between atoms: C8_12  and  C9_13 
REMARK    5  A    between atoms: C9_13  and  O1_14 
REMARK    6  A    between atoms: O1_14  and  C10_15 
REMARK    7  A    between atoms: C10_15  and  C11_16 
REMARK    8  A    between atoms: C11_16  and  C12_17 
REMARK    9  A    between atoms: C12_17  and  N4_18 
ROOT
HETATM    1  C2  UNL     1      26.796  -0.272  53.536  1.00  0.00     0.129 A 
HETATM    2  N2  UNL     1      27.809  -0.554  54.544  1.00  0.00    -0.261 NA
HETATM    3  C5  UNL     1      28.761   0.214  54.878  1.00  0.00     0.228 A 
HETATM    4  N3  UNL     1      28.944   1.470  54.279  1.00  0.00    -0.254 NA
HETATM    5  C6  UNL     1      28.137   1.888  53.354  1.00  0.00     0.128 A 
HETATM    6  C7  UNL     1      27.021   1.059  52.916  1.00  0.00    -0.007 A 
HETATM    7  C8  UNL     1      26.240   1.501  51.975  1.00  0.00     0.010 C 
ENDROOT
BRANCH   1   8
HETATM    8  C1  UNL     1      26.902  -1.343  52.481  1.00  0.00     0.309 C 
BRANCH   8   9
HETATM    9  N1  UNL     1      27.411  -2.535  53.121  1.00  0.00     0.081 N 
HETATM   10  H1  UNL     1      28.015  -2.321  53.943  1.00  0.00     0.312 HD
HETATM   11  H2  UNL     1      26.643  -3.211  53.348  1.00  0.00     0.312 HD
ENDBRANCH   8   9
ENDBRANCH   1   8
BRANCH   1  12
HETATM   12  C3  UNL     1      25.494  -0.334  54.289  1.00  0.00     0.042 C 
HETATM   13  C4  UNL     1      24.253  -0.437  53.834  1.00  0.00     0.187 C 
HETATM   14  F1  UNL     1      24.040  -0.504  52.499  1.00  0.00    -0.220 F 
ENDBRANCH   1  12
BRANCH   7  15
HETATM   15  C9  UNL     1      26.292   2.800  51.227  1.00  0.00     0.195 C 
BRANCH  15  16
HETATM   16  O1  UNL     1      24.970   3.179  51.050  1.00  0.00    -0.387 OA
BRANCH  16  17
HETATM   17  C10 UNL     1      24.293   3.134  52.233  1.00  0.00     0.169 C 
BRANCH  17  18
HETATM   18  C11 UNL     1      22.812   2.860  52.127  1.00  0.00     0.043 C 
BRANCH  18  19
HETATM   19  C12 UNL     1      22.552   2.704  50.639  1.00  0.00     0.123 C 
BRANCH  19  20
HETATM   20  N4  UNL     1      22.324   1.328  50.259  1.00  0.00    -0.195 NA
HETATM   21  C13 UNL     1      21.096   0.849  50.873  1.00  0.00     0.148 C 
HETATM   22  C14 UNL     1      20.416   1.110  49.548  1.00  0.00     0.210 C 
HETATM   23  O2  UNL     1      21.711   1.211  49.042  1.00  0.00    -0.302 OA
ENDBRANCH  19  20
ENDBRANCH  18  19
ENDBRANCH  17  18
ENDBRANCH  16  17
ENDBRANCH  15  16
ENDBRANCH   7  15
TORSDOF 9
ENDMDL
MODEL 6
REMARK VINA RESULT:      -5.7      3.233      5.177
REMARK  9 active torsions:
REMARK  status: ('A' for Active; 'I' for Inactive)
REMARK    1  A    between atoms: N1_1  and  C1_2 
REMARK    2  A    between atoms: C1_2  and  C2_3 
REMARK    3  A    between atoms: C2_3  and  C3_4 
REMARK    4  A    between atoms: C8_12  and  C9_13 
REMARK    5  A    between atoms: C9_13  and  O1_14 
REMARK    6  A    between atoms: O1_14  and  C10_15 
REMARK    7  A    between atoms: C10_15  and  C11_16 
REMARK    8  A    between atoms: C11_16  and  C12_17 
REMARK    9  A    between atoms: C12_17  and  N4_18 
ROOT
HETATM    1  C2  UNL     1      26.775   0.093  53.767  1.00  0.00     0.129 A 
HETATM    2  N2  UNL     1      25.819  -0.663  54.564  1.00  0.00    -0.261 NA
HETATM    3  C5  UNL     1      24.577  -0.770  54.333  1.00  0.00     0.228 A 
HETATM    4  N3  UNL     1      23.970  -0.137  53.236  1.00  0.00    -0.254 NA
HETATM    5  C6  UNL     1      24.669   0.585  52.417  1.00  0.00     0.128 A 
HETATM    6  C7  UNL     1      26.103   0.757  52.620  1.00  0.00    -0.007 A 
HETATM    7  C8  UNL     1      26.771   1.501  51.790  1.00  0.00     0.010 C 
ENDROOT
BRANCH   1   8
HETATM    8  C1  UNL     1      27.382   1.139  54.667  1.00  0.00     0.309 C 
BRANCH   8   9
HETATM    9  N1  UNL     1      28.760   0.770  54.896  1.00  0.00     0.081 N 
HETATM   10  H1  UNL     1      28.893  -0.263  54.955  1.00  0.00     0.312 HD
HETATM   11  H2  UNL     1      29.403   1.220  54.202  1.00  0.00     0.312 HD
ENDBRANCH   8   9
ENDBRANCH   1   8
BRANCH   1  12
HETATM   12  C3  UNL     1      27.781  -0.932  53.318  1.00  0.00     0.042 C 
HETATM   13  C4  UNL     1      27.624  -1.995  52.542  1.00  0.00     0.187 C 
HETATM   14  F1  UNL     1      26.399  -2.270  52.035  1.00  0.00    -0.220 F 
ENDBRANCH   1  12
BRANCH   7  15
HETATM   15  C9  UNL     1      26.289   2.249  50.583  1.00  0.00     0.195 C 
BRANCH  15  16
HETATM   16  O1  UNL     1      27.081   3.386  50.510  1.00  0.00    -0.387 OA
BRANCH  16  17
HETATM   17  C10 UNL     1      26.731   4.148  49.435  1.00  0.00     0.169 C 
BRANCH  17  18
HETATM   18  C11 UNL     1      25.450   4.935  49.584  1.00  0.00     0.043 C 
BRANCH  18  19
HETATM   19  C12 UNL     1      25.842   6.372  49.287  1.00  0.00     0.123 C 
BRANCH  19  20
HETATM   20  N4  UNL     1      25.690   7.235  50.437  1.00  0.00    -0.195 NA
HETATM   21  C13 UNL     1      25.115   8.504  50.023  1.00  0.00     0.148 C 
HETATM   22  C14 UNL     1      23.782   7.976  50.504  1.00  0.00     0.210 C 
HETATM   23  O2  UNL     1      24.539   6.989  51.133  1.00  0.00    -0.302 OA
ENDBRANCH  19  20
ENDBRANCH  18  19
ENDBRANCH  17  18
ENDBRANCH  16  17
ENDBRANCH  15  16
ENDBRANCH   7  15
TORSDOF 9
ENDMDL
MODEL 7
REMARK VINA RESULT:      -5.7      2.657      6.899
REMARK  9 active torsions:
REMARK  status: ('A' for Active; 'I' for Inactive)
REMARK    1  A    between atoms: N1_1  and  C1_2 
REMARK    2  A    between atoms: C1_2  and  C2_3 
REMARK    3  A    between atoms: C2_3  and  C3_4 
REMARK    4  A    between atoms: C8_12  and  C9_13 
REMARK    5  A    between atoms: C9_13  and  O1_14 
REMARK    6  A    between atoms: O1_14  and  C10_15 
REMARK    7  A    between atoms: C10_15  and  C11_16 
REMARK    8  A    between atoms: C11_16  and  C12_17 
REMARK    9  A    between atoms: C12_17  and  N4_18 
ROOT
HETATM    1  C2  UNL     1      21.474   2.227  50.358  1.00  0.00     0.129 A 
HETATM    2  N2  UNL     1      20.816   3.526  50.380  1.00  0.00    -0.261 NA
HETATM    3  C5  UNL     1      20.162   4.012  51.352  1.00  0.00     0.228 A 
HETATM    4  N3  UNL     1      20.000   3.313  52.559  1.00  0.00    -0.254 NA
HETATM    5  C6  UNL     1      20.516   2.135  52.718  1.00  0.00     0.128 A 
HETATM    6  C7  UNL     1      21.278   1.509  51.643  1.00  0.00    -0.007 A 
HETATM    7  C8  UNL     1      21.769   0.320  51.830  1.00  0.00     0.010 C 
ENDROOT
BRANCH   1   8
HETATM    8  C1  UNL     1      20.857   1.430  49.237  1.00  0.00     0.309 C 
BRANCH   8   9
HETATM    9  N1  UNL     1      21.855   1.289  48.202  1.00  0.00     0.081 N 
HETATM   10  H1  UNL     1      22.688   1.894  48.365  1.00  0.00     0.312 HD
HETATM   11  H2  UNL     1      22.110   0.285  48.042  1.00  0.00     0.312 HD
ENDBRANCH   8   9
ENDBRANCH   1   8
BRANCH   1  12
HETATM   12  C3  UNL     1      22.923   2.548  50.104  1.00  0.00     0.042 C 
HETATM   13  C4  UNL     1      23.796   3.195  50.862  1.00  0.00     0.187 C 
HETATM   14  F1  UNL     1      23.403   3.673  52.066  1.00  0.00    -0.220 F 
ENDBRANCH   1  12
BRANCH   7  15
HETATM   15  C9  UNL     1      21.687  -0.565  53.038  1.00  0.00     0.195 C 
BRANCH  15  16
HETATM   16  O1  UNL     1      22.955  -1.106  53.189  1.00  0.00    -0.387 OA
BRANCH  16  17
HETATM   17  C10 UNL     1      23.809  -0.187  53.724  1.00  0.00     0.169 C 
BRANCH  17  18
HETATM   18  C11 UNL     1      24.893  -0.747  54.614  1.00  0.00     0.043 C 
BRANCH  18  19
HETATM   19  C12 UNL     1      26.133   0.058  54.268  1.00  0.00     0.123 C 
BRANCH  19  20
HETATM   20  N4  UNL     1      27.332  -0.750  54.262  1.00  0.00    -0.195 NA
HETATM   21  C13 UNL     1      28.160  -0.387  53.124  1.00  0.00     0.148 C 
HETATM   22  C14 UNL     1      28.980   0.452  54.078  1.00  0.00     0.210 C 
HETATM   23  O2  UNL     1      28.309  -0.250  55.078  1.00  0.00    -0.302 OA
ENDBRANCH  19  20
ENDBRANCH  18  19
ENDBRANCH  17  18
ENDBRANCH  16  17
ENDBRANCH  15  16
ENDBRANCH   7  15
TORSDOF 9
ENDMDL
MODEL 8
REMARK VINA RESULT:      -5.7      2.071      3.531
REMARK  9 active torsions:
REMARK  status: ('A' for Active; 'I' for Inactive)
REMARK    1  A    between atoms: N1_1  and  C1_2 
REMARK    2  A    between atoms: C1_2  and  C2_3 
REMARK    3  A    between atoms: C2_3  and  C3_4 
REMARK    4  A    between atoms: C8_12  and  C9_13 
REMARK    5  A    between atoms: C9_13  and  O1_14 
REMARK    6  A    between atoms: O1_14  and  C10_15 
REMARK    7  A    between atoms: C10_15  and  C11_16 
REMARK    8  A    between atoms: C11_16  and  C12_17 
REMARK    9  A    between atoms: C12_17  and  N4_18 
ROOT
HETATM    1  C2  UNL     1      26.802  -0.647  52.972  1.00  0.00     0.129 A 
HETATM    2  N2  UNL     1      27.114   0.291  51.903  1.00  0.00    -0.261 NA
HETATM    3  C5  UNL     1      26.405   1.282  51.552  1.00  0.00     0.228 A 
HETATM    4  N3  UNL     1      25.189   1.585  52.186  1.00  0.00    -0.254 NA
HETATM    5  C6  UNL     1      24.749   0.853  53.161  1.00  0.00     0.128 A 
HETATM    6  C7  UNL     1      25.509  -0.305  53.618  1.00  0.00    -0.007 A 
HETATM    7  C8  UNL     1      25.031  -1.029  54.587  1.00  0.00     0.010 C 
ENDROOT
BRANCH   1   8
HETATM    8  C1  UNL     1      26.708  -2.018  52.353  1.00  0.00     0.309 C 
BRANCH   8   9
HETATM    9  N1  UNL     1      27.739  -2.837  52.950  1.00  0.00     0.081 N 
HETATM   10  H1  UNL     1      28.056  -3.603  52.318  1.00  0.00     0.312 HD
HETATM   11  H2  UNL     1      28.533  -2.258  53.313  1.00  0.00     0.312 HD
ENDBRANCH   8   9
ENDBRANCH   1   8
BRANCH   1  12
HETATM   12  C3  UNL     1      27.961  -0.525  53.925  1.00  0.00     0.042 C 
HETATM   13  C4  UNL     1      28.439   0.540  54.552  1.00  0.00     0.187 C 
HETATM   14  F1  UNL     1      27.849   1.743  54.357  1.00  0.00    -0.220 F 
ENDBRANCH   1  12
BRANCH   7  15
HETATM   15  C9  UNL     1      23.760  -0.857  55.365  1.00  0.00     0.195 C 
BRANCH  15  16
HETATM   16  O1  UNL     1      22.750  -1.307  54.529  1.00  0.00    -0.387 OA
BRANCH  16  17
HETATM   17  C10 UNL     1      21.657  -0.496  54.614  1.00  0.00     0.169 C 
BRANCH  17  18
HETATM   18  C11 UNL     1      20.437  -0.963  53.856  1.00  0.00     0.043 C 
BRANCH  18  19
HETATM   19  C12 UNL     1      20.252   0.060  52.750  1.00  0.00     0.123 C 
BRANCH  19  20
HETATM   20  N4  UNL     1      20.968   1.289  53.010  1.00  0.00    -0.195 NA
HETATM   21  C13 UNL     1      21.448   1.848  51.757  1.00  0.00     0.148 C 
HETATM   22  C14 UNL     1      20.257   2.778  51.797  1.00  0.00     0.210 C 
HETATM   23  O2  UNL     1      20.138   2.370  53.124  1.00  0.00    -0.302 OA
ENDBRANCH  19  20
ENDBRANCH  18  19
ENDBRANCH  17  18
ENDBRANCH  16  17
ENDBRANCH  15  16
ENDBRANCH   7  15
TORSDOF 9
ENDMDL
MODEL 9
REMARK VINA RESULT:      -5.7      3.272      6.488
REMARK  9 active torsions:
REMARK  status: ('A' for Active; 'I' for Inactive)
REMARK    1  A    between atoms: N1_1  and  C1_2 
REMARK    2  A    between atoms: C1_2  and  C2_3 
REMARK    3  A    between atoms: C2_3  and  C3_4 
REMARK    4  A    between atoms: C8_12  and  C9_13 
REMARK    5  A    between atoms: C9_13  and  O1_14 
REMARK    6  A    between atoms: O1_14  and  C10_15 
REMARK    7  A    between atoms: C10_15  and  C11_16 
REMARK    8  A    between atoms: C11_16  and  C12_17 
REMARK    9  A    between atoms: C12_17  and  N4_18 
ROOT
HETATM    1  C2  UNL     1      23.461   4.341  51.217  1.00  0.00     0.129 A 
HETATM    2  N2  UNL     1      23.836   5.406  50.298  1.00  0.00    -0.261 NA
HETATM    3  C5  UNL     1      24.850   5.411  49.537  1.00  0.00     0.228 A 
HETATM    4  N3  UNL     1      25.757   4.338  49.506  1.00  0.00    -0.254 NA
HETATM    5  C6  UNL     1      25.583   3.301  50.263  1.00  0.00     0.128 A 
HETATM    6  C7  UNL     1      24.441   3.226  51.167  1.00  0.00    -0.007 A 
HETATM    7  C8  UNL     1      24.306   2.179  51.925  1.00  0.00     0.010 C 
ENDROOT
BRANCH   1   8
HETATM    8  C1  UNL     1      23.441   4.931  52.604  1.00  0.00     0.309 C 
BRANCH   8   9
HETATM    9  N1  UNL     1      24.182   6.171  52.561  1.00  0.00     0.081 N 
HETATM   10  H1  UNL     1      24.740   6.273  51.686  1.00  0.00     0.312 HD
HETATM   11  H2  UNL     1      23.566   6.998  52.746  1.00  0.00     0.312 HD
ENDBRANCH   8   9
ENDBRANCH   1   8
BRANCH   1  12
HETATM   12  C3  UNL     1      22.094   3.914  50.755  1.00  0.00     0.042 C 
HETATM   13  C4  UNL     1      21.719   3.345  49.617  1.00  0.00     0.187 C 
HETATM   14  F1  UNL     1      22.652   3.074  48.674  1.00  0.00    -0.220 F 
ENDBRANCH   1  12
BRANCH   7  15
HETATM   15  C9  UNL     1      25.173   0.959  52.026  1.00  0.00     0.195 C 
BRANCH  15  16
HETATM   16  O1  UNL     1      24.507   0.101  52.889  1.00  0.00    -0.387 OA
BRANCH  16  17
HETATM   17  C10 UNL     1      25.393  -0.691  53.558  1.00  0.00     0.169 C 
BRANCH  17  18
HETATM   18  C11 UNL     1      26.002  -0.082  54.799  1.00  0.00     0.043 C 
BRANCH  18  19
HETATM   19  C12 UNL     1      27.497  -0.073  54.532  1.00  0.00     0.123 C 
BRANCH  19  20
HETATM   20  N4  UNL     1      28.116   1.180  54.902  1.00  0.00    -0.195 NA
HETATM   21  C13 UNL     1      29.279   1.416  54.062  1.00  0.00     0.148 C 
HETATM   22  C14 UNL     1      28.406   2.331  53.233  1.00  0.00     0.210 C 
HETATM   23  O2  UNL     1      27.521   2.258  54.308  1.00  0.00    -0.302 OA
ENDBRANCH  19  20
ENDBRANCH  18  19
ENDBRANCH  17  18
ENDBRANCH  16  17
ENDBRANCH  15  16
ENDBRANCH   7  15
TORSDOF 9
ENDMDL
