MODEL 1
REMARK VINA RESULT:      -6.8      0.000      0.000
REMARK  7 active torsions:
REMARK  status: ('A' for Active; 'I' for Inactive)
REMARK    1  A    between atoms: C2_3  and  C3_4 
REMARK    2  A    between atoms: C3_4  and  C4_5 
REMARK    3  A    between atoms: C6_8  and  N3_10 
REMARK    4  A    between atoms: N3_10  and  C7_11 
REMARK    5  A    between atoms: C7_11  and  C8_12 
REMARK    6  A    between atoms: C9_13  and  N4_14 
REMARK    7  A    between atoms: C9_13  and  C10_15 
ROOT
HETATM    1  C4  UNL     1      26.190   3.189  49.570  1.00  0.00     0.167 C 
HETATM    2  C5  UNL     1      26.681   2.660  50.820  1.00  0.00     0.063 C 
HETATM    3  N2  UNL     1      27.085   2.252  51.824  1.00  0.00    -0.197 NA
ENDROOT
BRANCH   1   4
HETATM    4  C3  UNL     1      26.263   4.668  49.511  1.00  0.00     0.010 C 
HETATM    5  C6  UNL     1      25.357   5.133  50.329  1.00  0.00     0.108 C 
HETATM    6 CL1  UNL     1      25.760   6.825  49.972  1.00  0.00    -0.064 Cl
BRANCH   4   7
HETATM    7  C2  UNL     1      27.167   5.443  48.699  1.00  0.00     0.121 C 
HETATM    8  N1  UNL     1      28.362   4.969  48.717  1.00  0.00    -0.306 NA
HETATM    9  C1  UNL     1      29.415   5.612  47.960  1.00  0.00     0.177 C 
ENDBRANCH   4   7
BRANCH   5  10
HETATM   10  N3  UNL     1      24.347   5.485  51.241  1.00  0.00    -0.377 N 
HETATM   11  H7  UNL     1      24.491   6.353  51.839  1.00  0.00     0.160 HD
BRANCH  10  12
HETATM   12  C7  UNL     1      23.265   4.500  51.146  1.00  0.00     0.150 C 
BRANCH  12  13
HETATM   13  C8  UNL     1      23.385   3.472  52.195  1.00  0.00     0.024 C 
HETATM   14  C9  UNL     1      23.150   2.220  51.918  1.00  0.00     0.057 C 
BRANCH  14  15
HETATM   15  N4  UNL     1      22.798   2.106  50.554  1.00  0.00    -0.397 N 
HETATM   16  H11 UNL     1      22.664   2.244  49.558  1.00  0.00     0.156 HD
HETATM   17  H12 UNL     1      22.329   1.480  49.873  1.00  0.00     0.156 HD
ENDBRANCH  14  15
BRANCH  14  18
HETATM   18  C10 UNL     1      23.181   1.009  52.707  1.00  0.00     0.090 C 
HETATM   19  C11 UNL     1      22.073   0.818  53.400  1.00  0.00     0.012 C 
HETATM   20  C12 UNL     1      21.507  -0.160  54.338  1.00  0.00     0.030 C 
HETATM   21  C13 UNL     1      22.352  -1.408  54.453  1.00  0.00     0.004 C 
HETATM   22  C14 UNL     1      23.519  -1.264  55.374  1.00  0.00     0.002 C 
HETATM   23  C15 UNL     1      24.688  -0.525  54.821  1.00  0.00     0.027 C 
HETATM   24  C16 UNL     1      24.980  -0.742  53.378  1.00  0.00     0.175 C 
HETATM   25  O1  UNL     1      24.358   0.285  52.590  1.00  0.00    -0.349 OA
ENDBRANCH  14  18
ENDBRANCH  12  13
ENDBRANCH  10  12
ENDBRANCH   5  10
ENDBRANCH   1   4
TORSDOF 7
ENDMDL
MODEL 2
REMARK VINA RESULT:      -6.5      3.688      7.124
REMARK  7 active torsions:
REMARK  status: ('A' for Active; 'I' for Inactive)
REMARK    1  A    between atoms: C2_3  and  C3_4 
REMARK    2  A    between atoms: C3_4  and  C4_5 
REMARK    3  A    between atoms: C6_8  and  N3_10 
REMARK    4  A    between atoms: N3_10  and  C7_11 
REMARK    5  A    between atoms: C7_11  and  C8_12 
REMARK    6  A    between atoms: C9_13  and  N4_14 
REMARK    7  A    between atoms: C9_13  and  C10_15 
ROOT
HETATM    1  C4  UNL     1      21.023   0.479  54.102  1.00  0.00     0.167 C 
HETATM    2  C5  UNL     1      21.509  -0.791  54.585  1.00  0.00     0.063 C 
HETATM    3  N2  UNL     1      21.885  -1.818  54.961  1.00  0.00    -0.197 NA
ENDROOT
BRANCH   1   4
HETATM    4  C3  UNL     1      20.314   0.362  52.807  1.00  0.00     0.010 C 
HETATM    5  C6  UNL     1      21.140   0.758  51.876  1.00  0.00     0.108 C 
HETATM    6 CL1  UNL     1      19.965   0.475  50.575  1.00  0.00    -0.064 Cl
BRANCH   4   7
HETATM    7  C2  UNL     1      18.963  -0.103  52.617  1.00  0.00     0.121 C 
HETATM    8  N1  UNL     1      18.705  -1.145  53.324  1.00  0.00    -0.306 NA
HETATM    9  C1  UNL     1      17.396  -1.760  53.268  1.00  0.00     0.177 C 
ENDBRANCH   4   7
BRANCH   5  10
HETATM   10  N3  UNL     1      22.132   1.209  50.988  1.00  0.00    -0.377 N 
HETATM   11  H7  UNL     1      22.086   0.884  49.976  1.00  0.00     0.160 HD
BRANCH  10  12
HETATM   12  C7  UNL     1      23.060   2.075  51.722  1.00  0.00     0.150 C 
BRANCH  12  13
HETATM   13  C8  UNL     1      24.292   1.352  52.085  1.00  0.00     0.024 C 
HETATM   14  C9  UNL     1      25.163   1.898  52.887  1.00  0.00     0.057 C 
BRANCH  14  15
HETATM   15  N4  UNL     1      24.700   3.178  53.270  1.00  0.00    -0.397 N 
HETATM   16  H11 UNL     1      24.614   4.140  53.578  1.00  0.00     0.156 HD
HETATM   17  H12 UNL     1      23.840   3.747  53.373  1.00  0.00     0.156 HD
ENDBRANCH  14  15
BRANCH  14  18
HETATM   18  C10 UNL     1      26.433   1.456  53.417  1.00  0.00     0.090 C 
HETATM   19  C11 UNL     1      27.387   2.360  53.284  1.00  0.00     0.012 C 
HETATM   20  C12 UNL     1      28.813   2.520  53.597  1.00  0.00     0.030 C 
HETATM   21  C13 UNL     1      29.345   1.402  54.464  1.00  0.00     0.004 C 
HETATM   22  C14 UNL     1      29.695   0.164  53.705  1.00  0.00     0.002 C 
HETATM   23  C15 UNL     1      28.544  -0.693  53.307  1.00  0.00     0.027 C 
HETATM   24  C16 UNL     1      27.424  -0.784  54.282  1.00  0.00     0.175 C 
HETATM   25  O1  UNL     1      26.410   0.180  53.958  1.00  0.00    -0.349 OA
ENDBRANCH  14  18
ENDBRANCH  12  13
ENDBRANCH  10  12
ENDBRANCH   5  10
ENDBRANCH   1   4
TORSDOF 7
ENDMDL
MODEL 3
REMARK VINA RESULT:      -6.4      2.320      3.541
REMARK  7 active torsions:
REMARK  status: ('A' for Active; 'I' for Inactive)
REMARK    1  A    between atoms: C2_3  and  C3_4 
REMARK    2  A    between atoms: C3_4  and  C4_5 
REMARK    3  A    between atoms: C6_8  and  N3_10 
REMARK    4  A    between atoms: N3_10  and  C7_11 
REMARK    5  A    between atoms: C7_11  and  C8_12 
REMARK    6  A    between atoms: C9_13  and  N4_14 
REMARK    7  A    between atoms: C9_13  and  C10_15 
ROOT
HETATM    1  C4  UNL     1      25.228   4.633  49.540  1.00  0.00     0.167 C 
HETATM    2  C5  UNL     1      26.616   4.637  49.146  1.00  0.00     0.063 C 
HETATM    3  N2  UNL     1      27.727   4.658  48.824  1.00  0.00    -0.197 NA
ENDROOT
BRANCH   1   4
HETATM    4  C3  UNL     1      24.701   5.997  49.781  1.00  0.00     0.010 C 
HETATM    5  C6  UNL     1      24.254   6.029  51.008  1.00  0.00     0.108 C 
HETATM    6 CL1  UNL     1      23.749   7.726  50.885  1.00  0.00    -0.064 Cl
BRANCH   4   7
HETATM    7  C2  UNL     1      24.687   7.082  48.832  1.00  0.00     0.121 C 
HETATM    8  N1  UNL     1      24.081   6.766  47.744  1.00  0.00    -0.306 NA
HETATM    9  C1  UNL     1      23.963   7.727  46.667  1.00  0.00     0.177 C 
ENDBRANCH   4   7
BRANCH   5  10
HETATM   10  N3  UNL     1      23.819   5.914  52.340  1.00  0.00    -0.377 N 
HETATM   11  H7  UNL     1      23.851   6.782  52.954  1.00  0.00     0.160 HD
BRANCH  10  12
HETATM   12  C7  UNL     1      23.401   4.529  52.579  1.00  0.00     0.150 C 
BRANCH  12  13
HETATM   13  C8  UNL     1      24.471   3.755  53.235  1.00  0.00     0.024 C 
HETATM   14  C9  UNL     1      24.754   2.550  52.827  1.00  0.00     0.057 C 
BRANCH  14  15
HETATM   15  N4  UNL     1      23.901   2.213  51.751  1.00  0.00    -0.397 N 
HETATM   16  H11 UNL     1      23.251   1.763  51.114  1.00  0.00     0.156 HD
HETATM   17  H12 UNL     1      23.533   2.565  50.848  1.00  0.00     0.156 HD
ENDBRANCH  14  15
BRANCH  14  18
HETATM   18  C10 UNL     1      25.720   1.562  53.252  1.00  0.00     0.090 C 
HETATM   19  C11 UNL     1      26.931   2.064  53.414  1.00  0.00     0.012 C 
HETATM   20  C12 UNL     1      28.273   1.616  53.808  1.00  0.00     0.030 C 
HETATM   21  C13 UNL     1      28.278   0.201  54.339  1.00  0.00     0.004 C 
HETATM   22  C14 UNL     1      28.289  -0.844  53.271  1.00  0.00     0.002 C 
HETATM   23  C15 UNL     1      26.981  -1.100  52.607  1.00  0.00     0.027 C 
HETATM   24  C16 UNL     1      25.776  -1.026  53.478  1.00  0.00     0.175 C 
HETATM   25  O1  UNL     1      25.198   0.287  53.408  1.00  0.00    -0.349 OA
ENDBRANCH  14  18
ENDBRANCH  12  13
ENDBRANCH  10  12
ENDBRANCH   5  10
ENDBRANCH   1   4
TORSDOF 7
ENDMDL
MODEL 4
REMARK VINA RESULT:      -6.3      2.668      4.218
REMARK  7 active torsions:
REMARK  status: ('A' for Active; 'I' for Inactive)
REMARK    1  A    between atoms: C2_3  and  C3_4 
REMARK    2  A    between atoms: C3_4  and  C4_5 
REMARK    3  A    between atoms: C6_8  and  N3_10 
REMARK    4  A    between atoms: N3_10  and  C7_11 
REMARK    5  A    between atoms: C7_11  and  C8_12 
REMARK    6  A    between atoms: C9_13  and  N4_14 
REMARK    7  A    between atoms: C9_13  and  C10_15 
ROOT
HETATM    1  C4  UNL     1      24.383   3.583  49.178  1.00  0.00     0.167 C 
HETATM    2  C5  UNL     1      25.660   3.422  49.831  1.00  0.00     0.063 C 
HETATM    3  N2  UNL     1      26.679   3.307  50.366  1.00  0.00    -0.197 NA
ENDROOT
BRANCH   1   4
HETATM    4  C3  UNL     1      23.364   4.191  50.065  1.00  0.00     0.010 C 
HETATM    5  C6  UNL     1      22.770   3.216  50.698  1.00  0.00     0.108 C 
HETATM    6 CL1  UNL     1      21.698   4.315  51.589  1.00  0.00    -0.064 Cl
BRANCH   4   7
HETATM    7  C2  UNL     1      23.085   5.599  50.197  1.00  0.00     0.121 C 
HETATM    8  N1  UNL     1      24.106   6.258  50.616  1.00  0.00    -0.306 NA
HETATM    9  C1  UNL     1      24.021   7.690  50.813  1.00  0.00     0.177 C 
ENDBRANCH   4   7
BRANCH   5  10
HETATM   10  N3  UNL     1      22.225   2.069  51.303  1.00  0.00    -0.377 N 
HETATM   11  H7  UNL     1      21.525   1.493  50.746  1.00  0.00     0.160 HD
BRANCH  10  12
HETATM   12  C7  UNL     1      22.787   1.937  52.651  1.00  0.00     0.150 C 
BRANCH  12  13
HETATM   13  C8  UNL     1      23.972   1.061  52.652  1.00  0.00     0.024 C 
HETATM   14  C9  UNL     1      25.138   1.533  52.994  1.00  0.00     0.057 C 
BRANCH  14  15
HETATM   15  N4  UNL     1      25.006   2.902  53.319  1.00  0.00    -0.397 N 
HETATM   16  H11 UNL     1      25.135   3.901  53.440  1.00  0.00     0.156 HD
HETATM   17  H12 UNL     1      24.364   3.588  53.760  1.00  0.00     0.156 HD
ENDBRANCH  14  15
BRANCH  14  18
HETATM   18  C10 UNL     1      26.454   0.943  53.093  1.00  0.00     0.090 C 
HETATM   19  C11 UNL     1      26.438  -0.372  52.976  1.00  0.00     0.012 C 
HETATM   20  C12 UNL     1      27.382  -1.497  52.985  1.00  0.00     0.030 C 
HETATM   21  C13 UNL     1      28.824  -1.044  52.970  1.00  0.00     0.004 C 
HETATM   22  C14 UNL     1      29.346  -0.651  54.314  1.00  0.00     0.002 C 
HETATM   23  C15 UNL     1      28.929   0.695  54.798  1.00  0.00     0.027 C 
HETATM   24  C16 UNL     1      28.826   1.762  53.766  1.00  0.00     0.175 C 
HETATM   25  O1  UNL     1      27.474   1.861  53.293  1.00  0.00    -0.349 OA
ENDBRANCH  14  18
ENDBRANCH  12  13
ENDBRANCH  10  12
ENDBRANCH   5  10
ENDBRANCH   1   4
TORSDOF 7
ENDMDL
MODEL 5
REMARK VINA RESULT:      -6.3      2.925      8.128
REMARK  7 active torsions:
REMARK  status: ('A' for Active; 'I' for Inactive)
REMARK    1  A    between atoms: C2_3  and  C3_4 
REMARK    2  A    between atoms: C3_4  and  C4_5 
REMARK    3  A    between atoms: C6_8  and  N3_10 
REMARK    4  A    between atoms: N3_10  and  C7_11 
REMARK    5  A    between atoms: C7_11  and  C8_12 
REMARK    6  A    between atoms: C9_13  and  N4_14 
REMARK    7  A    between atoms: C9_13  and  C10_15 
ROOT
HETATM    1  C4  UNL     1      26.046   1.055  51.840  1.00  0.00     0.167 C 
HETATM    2  C5  UNL     1      27.208   1.750  52.342  1.00  0.00     0.063 C 
HETATM    3  N2  UNL     1      28.128   2.322  52.745  1.00  0.00    -0.197 NA
ENDROOT
BRANCH   1   4
HETATM    4  C3  UNL     1      24.777   1.700  52.251  1.00  0.00     0.010 C 
HETATM    5  C6  UNL     1      24.779   2.910  51.759  1.00  0.00     0.108 C 
HETATM    6 CL1  UNL     1      23.189   3.299  52.445  1.00  0.00    -0.064 Cl
BRANCH   4   7
HETATM    7  C2  UNL     1      23.737   1.098  53.049  1.00  0.00     0.121 C 
HETATM    8  N1  UNL     1      24.055  -0.081  53.448  1.00  0.00    -0.306 NA
HETATM    9  C1  UNL     1      23.137  -0.849  54.264  1.00  0.00     0.177 C 
ENDBRANCH   4   7
BRANCH   5  10
HETATM   10  N3  UNL     1      24.921   4.177  51.167  1.00  0.00    -0.377 N 
HETATM   11  H7  UNL     1      24.821   5.035  51.789  1.00  0.00     0.160 HD
BRANCH  10  12
HETATM   12  C7  UNL     1      25.186   4.000  49.736  1.00  0.00     0.150 C 
BRANCH  12  13
HETATM   13  C8  UNL     1      26.559   4.413  49.392  1.00  0.00     0.024 C 
HETATM   14  C9  UNL     1      26.771   5.551  48.794  1.00  0.00     0.057 C 
BRANCH  14  15
HETATM   15  N4  UNL     1      25.534   6.203  48.584  1.00  0.00    -0.397 N 
HETATM   16  H11 UNL     1      24.794   6.862  48.368  1.00  0.00     0.156 HD
HETATM   17  H12 UNL     1      24.508   6.057  48.623  1.00  0.00     0.156 HD
ENDBRANCH  14  15
BRANCH  14  18
HETATM   18  C10 UNL     1      27.968   6.221  48.336  1.00  0.00     0.090 C 
HETATM   19  C11 UNL     1      29.007   5.410  48.242  1.00  0.00     0.012 C 
HETATM   20  C12 UNL     1      30.424   5.463  47.861  1.00  0.00     0.030 C 
HETATM   21  C13 UNL     1      30.808   6.788  47.243  1.00  0.00     0.004 C 
HETATM   22  C14 UNL     1      31.080   7.864  48.243  1.00  0.00     0.002 C 
HETATM   23  C15 UNL     1      29.877   8.497  48.851  1.00  0.00     0.027 C 
HETATM   24  C16 UNL     1      28.706   8.682  47.952  1.00  0.00     0.175 C 
HETATM   25  O1  UNL     1      27.802   7.574  48.086  1.00  0.00    -0.349 OA
ENDBRANCH  14  18
ENDBRANCH  12  13
ENDBRANCH  10  12
ENDBRANCH   5  10
ENDBRANCH   1   4
TORSDOF 7
ENDMDL
MODEL 6
REMARK VINA RESULT:      -6.3      3.072      7.997
REMARK  7 active torsions:
REMARK  status: ('A' for Active; 'I' for Inactive)
REMARK    1  A    between atoms: C2_3  and  C3_4 
REMARK    2  A    between atoms: C3_4  and  C4_5 
REMARK    3  A    between atoms: C6_8  and  N3_10 
REMARK    4  A    between atoms: N3_10  and  C7_11 
REMARK    5  A    between atoms: C7_11  and  C8_12 
REMARK    6  A    between atoms: C9_13  and  N4_14 
REMARK    7  A    between atoms: C9_13  and  C10_15 
ROOT
HETATM    1  C4  UNL     1      25.723  -0.577  53.400  1.00  0.00     0.167 C 
HETATM    2  C5  UNL     1      26.651   0.107  54.268  1.00  0.00     0.063 C 
HETATM    3  N2  UNL     1      27.391   0.672  54.954  1.00  0.00    -0.197 NA
ENDROOT
BRANCH   1   4
HETATM    4  C3  UNL     1      24.652   0.316  52.897  1.00  0.00     0.010 C 
HETATM    5  C6  UNL     1      25.205   1.152  52.059  1.00  0.00     0.108 C 
HETATM    6 CL1  UNL     1      23.673   1.981  51.720  1.00  0.00    -0.064 Cl
BRANCH   4   7
HETATM    7  C2  UNL     1      23.260   0.266  53.268  1.00  0.00     0.121 C 
HETATM    8  N1  UNL     1      23.019  -0.666  54.119  1.00  0.00    -0.306 NA
HETATM    9  C1  UNL     1      21.674  -0.874  54.614  1.00  0.00     0.177 C 
ENDBRANCH   4   7
BRANCH   5  10
HETATM   10  N3  UNL     1      25.936   1.978  51.187  1.00  0.00    -0.377 N 
HETATM   11  H7  UNL     1      26.978   1.793  51.077  1.00  0.00     0.160 HD
BRANCH  10  12
HETATM   12  C7  UNL     1      25.024   2.967  50.604  1.00  0.00     0.150 C 
BRANCH  12  13
HETATM   13  C8  UNL     1      25.762   3.985  49.835  1.00  0.00     0.024 C 
HETATM   14  C9  UNL     1      25.552   5.253  50.053  1.00  0.00     0.057 C 
BRANCH  14  15
HETATM   15  N4  UNL     1      24.576   5.393  51.066  1.00  0.00    -0.397 N 
HETATM   16  H11 UNL     1      23.885   5.735  51.726  1.00  0.00     0.156 HD
HETATM   17  H12 UNL     1      24.026   4.856  51.762  1.00  0.00     0.156 HD
ENDBRANCH  14  15
BRANCH  14  18
HETATM   18  C10 UNL     1      26.101   6.461  49.479  1.00  0.00     0.090 C 
HETATM   19  C11 UNL     1      27.067   6.223  48.609  1.00  0.00     0.012 C 
HETATM   20  C12 UNL     1      27.977   6.970  47.732  1.00  0.00     0.030 C 
HETATM   21  C13 UNL     1      27.636   8.441  47.662  1.00  0.00     0.004 C 
HETATM   22  C14 UNL     1      28.161   9.237  48.813  1.00  0.00     0.002 C 
HETATM   23  C15 UNL     1      27.389   9.119  50.081  1.00  0.00     0.027 C 
HETATM   24  C16 UNL     1      25.911   9.009  49.944  1.00  0.00     0.175 C 
HETATM   25  O1  UNL     1      25.518   7.628  49.946  1.00  0.00    -0.349 OA
ENDBRANCH  14  18
ENDBRANCH  12  13
ENDBRANCH  10  12
ENDBRANCH   5  10
ENDBRANCH   1   4
TORSDOF 7
ENDMDL
MODEL 7
REMARK VINA RESULT:      -6.2      2.085      3.306
REMARK  7 active torsions:
REMARK  status: ('A' for Active; 'I' for Inactive)
REMARK    1  A    between atoms: C2_3  and  C3_4 
REMARK    2  A    between atoms: C3_4  and  C4_5 
REMARK    3  A    between atoms: C6_8  and  N3_10 
REMARK    4  A    between atoms: N3_10  and  C7_11 
REMARK    5  A    between atoms: C7_11  and  C8_12 
REMARK    6  A    between atoms: C9_13  and  N4_14 
REMARK    7  A    between atoms: C9_13  and  C10_15 
ROOT
HETATM    1  C4  UNL     1      24.666   6.227  49.077  1.00  0.00     0.167 C 
HETATM    2  C5  UNL     1      24.324   6.161  50.478  1.00  0.00     0.063 C 
HETATM    3  N2  UNL     1      24.065   6.095  51.603  1.00  0.00    -0.197 NA
ENDROOT
BRANCH   1   4
HETATM    4  C3  UNL     1      26.103   5.964  48.830  1.00  0.00     0.010 C 
HETATM    5  C6  UNL     1      26.310   4.695  49.062  1.00  0.00     0.108 C 
HETATM    6 CL1  UNL     1      28.038   4.804  48.673  1.00  0.00    -0.064 Cl
BRANCH   4   7
HETATM    7  C2  UNL     1      27.085   6.932  48.411  1.00  0.00     0.121 C 
HETATM    8  N1  UNL     1      26.997   8.029  49.075  1.00  0.00    -0.306 NA
HETATM    9  C1  UNL     1      27.901   9.126  48.798  1.00  0.00     0.177 C 
ENDBRANCH   4   7
BRANCH   5  10
HETATM   10  N3  UNL     1      26.380   3.320  49.347  1.00  0.00    -0.377 N 
HETATM   11  H7  UNL     1      26.596   2.653  48.547  1.00  0.00     0.160 HD
BRANCH  10  12
HETATM   12  C7  UNL     1      26.115   3.122  50.775  1.00  0.00     0.150 C 
BRANCH  12  13
HETATM   13  C8  UNL     1      24.840   2.415  50.989  1.00  0.00     0.024 C 
HETATM   14  C9  UNL     1      24.238   2.480  52.143  1.00  0.00     0.057 C 
BRANCH  14  15
HETATM   15  N4  UNL     1      25.002   3.284  53.019  1.00  0.00    -0.397 N 
HETATM   16  H11 UNL     1      25.740   3.725  53.557  1.00  0.00     0.156 HD
HETATM   17  H12 UNL     1      24.927   4.062  53.701  1.00  0.00     0.156 HD
ENDBRANCH  14  15
BRANCH  14  18
HETATM   18  C10 UNL     1      23.009   1.912  52.652  1.00  0.00     0.090 C 
HETATM   19  C11 UNL     1      23.185   0.733  53.220  1.00  0.00     0.012 C 
HETATM   20  C12 UNL     1      22.389  -0.304  53.891  1.00  0.00     0.030 C 
HETATM   21  C13 UNL     1      20.971   0.142  54.165  1.00  0.00     0.004 C 
HETATM   22  C14 UNL     1      20.061   0.018  52.987  1.00  0.00     0.002 C 
HETATM   23  C15 UNL     1      20.195   1.084  51.956  1.00  0.00     0.027 C 
HETATM   24  C16 UNL     1      20.476   2.456  52.460  1.00  0.00     0.175 C 
HETATM   25  O1  UNL     1      21.890   2.705  52.448  1.00  0.00    -0.349 OA
ENDBRANCH  14  18
ENDBRANCH  12  13
ENDBRANCH  10  12
ENDBRANCH   5  10
ENDBRANCH   1   4
TORSDOF 7
ENDMDL
MODEL 8
REMARK VINA RESULT:      -6.0      3.257      8.096
REMARK  7 active torsions:
REMARK  status: ('A' for Active; 'I' for Inactive)
REMARK    1  A    between atoms: C2_3  and  C3_4 
REMARK    2  A    between atoms: C3_4  and  C4_5 
REMARK    3  A    between atoms: C6_8  and  N3_10 
REMARK    4  A    between atoms: N3_10  and  C7_11 
REMARK    5  A    between atoms: C7_11  and  C8_12 
REMARK    6  A    between atoms: C9_13  and  N4_14 
REMARK    7  A    between atoms: C9_13  and  C10_15 
ROOT
HETATM    1  C4  UNL     1      20.130   1.077  51.618  1.00  0.00     0.167 C 
HETATM    2  C5  UNL     1      19.843   2.459  51.919  1.00  0.00     0.063 C 
HETATM    3  N2  UNL     1      19.610   3.562  52.179  1.00  0.00    -0.197 NA
ENDROOT
BRANCH   1   4
HETATM    4  C3  UNL     1      20.578   0.317  52.808  1.00  0.00     0.010 C 
HETATM    5  C6  UNL     1      21.794   0.709  53.083  1.00  0.00     0.108 C 
HETATM    6 CL1  UNL     1      21.936  -0.379  54.478  1.00  0.00    -0.064 Cl
BRANCH   4   7
HETATM    7  C2  UNL     1      19.811  -0.671  53.524  1.00  0.00     0.121 C 
HETATM    8  N1  UNL     1      18.687  -0.918  52.953  1.00  0.00    -0.306 NA
HETATM    9  C1  UNL     1      17.774  -1.886  53.525  1.00  0.00     0.177 C 
ENDBRANCH   4   7
BRANCH   5  10
HETATM   10  N3  UNL     1      23.089   1.228  53.256  1.00  0.00    -0.377 N 
HETATM   11  H7  UNL     1      23.358   1.594  54.218  1.00  0.00     0.160 HD
BRANCH  10  12
HETATM   12  C7  UNL     1      23.805   1.139  51.979  1.00  0.00     0.150 C 
BRANCH  12  13
HETATM   13  C8  UNL     1      23.806   2.434  51.277  1.00  0.00     0.024 C 
HETATM   14  C9  UNL     1      24.927   2.959  50.869  1.00  0.00     0.057 C 
BRANCH  14  15
HETATM   15  N4  UNL     1      25.995   2.100  51.217  1.00  0.00    -0.397 N 
HETATM   16  H11 UNL     1      26.893   1.640  51.323  1.00  0.00     0.156 HD
HETATM   17  H12 UNL     1      26.228   1.259  51.778  1.00  0.00     0.156 HD
ENDBRANCH  14  15
BRANCH  14  18
HETATM   18  C10 UNL     1      25.252   4.183  50.170  1.00  0.00     0.090 C 
HETATM   19  C11 UNL     1      26.438   4.145  49.591  1.00  0.00     0.012 C 
HETATM   20  C12 UNL     1      27.302   5.009  48.777  1.00  0.00     0.030 C 
HETATM   21  C13 UNL     1      26.598   6.267  48.320  1.00  0.00     0.004 C 
HETATM   22  C14 UNL     1      26.561   7.346  49.352  1.00  0.00     0.002 C 
HETATM   23  C15 UNL     1      25.548   7.172  50.430  1.00  0.00     0.027 C 
HETATM   24  C16 UNL     1      24.248   6.574  50.020  1.00  0.00     0.175 C 
HETATM   25  O1  UNL     1      24.267   5.156  50.242  1.00  0.00    -0.349 OA
ENDBRANCH  14  18
ENDBRANCH  12  13
ENDBRANCH  10  12
ENDBRANCH   5  10
ENDBRANCH   1   4
TORSDOF 7
ENDMDL
MODEL 9
REMARK VINA RESULT:      -6.0      3.408      7.845
REMARK  7 active torsions:
REMARK  status: ('A' for Active; 'I' for Inactive)
REMARK    1  A    between atoms: C2_3  and  C3_4 
REMARK    2  A    between atoms: C3_4  and  C4_5 
REMARK    3  A    between atoms: C6_8  and  N3_10 
REMARK    4  A    between atoms: N3_10  and  C7_11 
REMARK    5  A    between atoms: C7_11  and  C8_12 
REMARK    6  A    between atoms: C9_13  and  N4_14 
REMARK    7  A    between atoms: C9_13  and  C10_15 
ROOT
HETATM    1  C4  UNL     1      28.489   0.396  53.906  1.00  0.00     0.167 C 
HETATM    2  C5  UNL     1      28.992  -0.936  53.671  1.00  0.00     0.063 C 
HETATM    3  N2  UNL     1      29.377  -2.011  53.481  1.00  0.00    -0.197 NA
ENDROOT
BRANCH   1   4
HETATM    4  C3  UNL     1      27.100   0.572  53.423  1.00  0.00     0.010 C 
HETATM    5  C6  UNL     1      27.085   1.636  52.666  1.00  0.00     0.108 C 
HETATM    6 CL1  UNL     1      25.350   1.491  52.322  1.00  0.00    -0.064 Cl
BRANCH   4   7
HETATM    7  C2  UNL     1      25.977  -0.276  53.735  1.00  0.00     0.121 C 
HETATM    8  N1  UNL     1      25.804  -0.403  55.002  1.00  0.00    -0.306 NA
HETATM    9  C1  UNL     1      24.722  -1.220  55.514  1.00  0.00     0.177 C 
ENDBRANCH   4   7
BRANCH   5  10
HETATM   10  N3  UNL     1      27.223   2.795  51.880  1.00  0.00    -0.377 N 
HETATM   11  H7  UNL     1      27.915   3.537  52.199  1.00  0.00     0.160 HD
BRANCH  10  12
HETATM   12  C7  UNL     1      26.312   2.696  50.735  1.00  0.00     0.150 C 
BRANCH  12  13
HETATM   13  C8  UNL     1      26.507   3.818  49.800  1.00  0.00     0.024 C 
HETATM   14  C9  UNL     1      25.763   4.884  49.889  1.00  0.00     0.057 C 
BRANCH  14  15
HETATM   15  N4  UNL     1      24.849   4.723  50.956  1.00  0.00    -0.397 N 
HETATM   16  H11 UNL     1      24.322   4.396  51.758  1.00  0.00     0.156 HD
HETATM   17  H12 UNL     1      24.051   5.181  51.435  1.00  0.00     0.156 HD
ENDBRANCH  14  15
BRANCH  14  18
HETATM   18  C10 UNL     1      25.710   6.120  49.140  1.00  0.00     0.090 C 
HETATM   19  C11 UNL     1      24.638   6.210  48.374  1.00  0.00     0.012 C 
HETATM   20  C12 UNL     1      24.030   7.152  47.425  1.00  0.00     0.030 C 
HETATM   21  C13 UNL     1      24.731   8.491  47.409  1.00  0.00     0.004 C 
HETATM   22  C14 UNL     1      25.969   8.514  46.572  1.00  0.00     0.002 C 
HETATM   23  C15 UNL     1      27.173   7.892  47.189  1.00  0.00     0.027 C 
HETATM   24  C16 UNL     1      27.337   8.086  48.655  1.00  0.00     0.175 C 
HETATM   25  O1  UNL     1      26.784   6.967  49.365  1.00  0.00    -0.349 OA
ENDBRANCH  14  18
ENDBRANCH  12  13
ENDBRANCH  10  12
ENDBRANCH   5  10
ENDBRANCH   1   4
TORSDOF 7
ENDMDL
