MODEL 1
REMARK VINA RESULT:      -8.9      0.000      0.000
REMARK  7 active torsions:
REMARK  status: ('A' for Active; 'I' for Inactive)
REMARK       I    between atoms: C1_2  and  N1_3 
REMARK       I    between atoms: C1_2  and  N2_10 
REMARK    1  A    between atoms: N1_3  and  C2_4 
REMARK    2  A    between atoms: N2_10  and  C8_11 
REMARK    3  A    between atoms: N2_10  and  C15_20 
REMARK    4  A    between atoms: C8_11  and  C9_12 
REMARK    5  A    between atoms: C12_15  and  O2_16 
REMARK    6  A    between atoms: C15_20  and  C16_21 
REMARK    7  A    between atoms: C19_24  and  O3_25 
ROOT
HETATM    1  O1  UNL     1      23.722   3.597  49.312  1.00  0.00    -0.247 OA
HETATM    2  C1  UNL     1      24.271   3.521  50.442  1.00  0.00     0.323 C 
HETATM    3  N1  UNL     1      25.462   4.241  50.637  1.00  0.00    -0.309 N 
HETATM    4  N2  UNL     1      23.661   2.715  51.463  1.00  0.00    -0.326 N 
HETATM    5  H1  UNL     1      25.835   4.116  51.604  1.00  0.00     0.170 HD
ENDROOT
BRANCH   4   6
HETATM    6  C8  UNL     1      24.133   2.491  52.812  1.00  0.00     0.166 C 
BRANCH   6   7
HETATM    7  C9  UNL     1      25.160   1.464  52.954  1.00  0.00    -0.040 A 
HETATM    8  C10 UNL     1      25.438   0.954  54.228  1.00  0.00     0.011 A 
HETATM    9  C11 UNL     1      26.391  -0.014  54.440  1.00  0.00     0.038 A 
HETATM   10  C12 UNL     1      27.131  -0.541  53.397  1.00  0.00     0.084 A 
HETATM   11  C13 UNL     1      26.890  -0.067  52.124  1.00  0.00     0.038 A 
HETATM   12  C14 UNL     1      25.926   0.904  51.955  1.00  0.00     0.011 A 
BRANCH  10  13
HETATM   13  O2  UNL     1      28.100  -1.509  53.529  1.00  0.00    -0.271 OA
HETATM   14 BR1  UNL     1      29.886  -0.918  53.613  1.00  0.00     0.105 Br
ENDBRANCH  10  13
ENDBRANCH   6   7
ENDBRANCH   4   6
BRANCH   4  15
HETATM   15  C15 UNL     1      22.426   2.022  51.160  1.00  0.00     0.166 C 
BRANCH  15  16
HETATM   16  C16 UNL     1      22.016   1.035  52.165  1.00  0.00    -0.040 A 
HETATM   17  C17 UNL     1      22.478  -0.284  52.194  1.00  0.00     0.011 A 
HETATM   18  C18 UNL     1      22.110  -1.227  53.124  1.00  0.00     0.037 A 
HETATM   19  C19 UNL     1      21.230  -0.878  54.106  1.00  0.00     0.065 A 
HETATM   20  C20 UNL     1      20.734   0.403  54.140  1.00  0.00     0.037 A 
HETATM   21  C21 UNL     1      21.131   1.315  53.187  1.00  0.00     0.011 A 
BRANCH  19  22
HETATM   22  O3  UNL     1      20.854  -1.821  55.048  1.00  0.00    -0.361 OA
HETATM   23  H17 UNL     1      21.538  -2.236  55.667  1.00  0.00     0.217 HD
ENDBRANCH  19  22
ENDBRANCH  15  16
ENDBRANCH   4  15
BRANCH   3  24
HETATM   24  C2  UNL     1      26.185   5.072  49.749  1.00  0.00     0.036 A 
HETATM   25  C3  UNL     1      25.879   6.353  49.372  1.00  0.00     0.029 A 
HETATM   26  C4  UNL     1      26.607   7.128  48.504  1.00  0.00     0.002 A 
HETATM   27  C5  UNL     1      27.748   6.590  47.952  1.00  0.00     0.000 A 
HETATM   28  C6  UNL     1      28.102   5.309  48.294  1.00  0.00     0.002 A 
HETATM   29  C7  UNL     1      27.332   4.578  49.172  1.00  0.00     0.029 A 
ENDBRANCH   3  24
TORSDOF 7
ENDMDL
MODEL 2
REMARK VINA RESULT:      -8.8      2.985      6.907
REMARK  7 active torsions:
REMARK  status: ('A' for Active; 'I' for Inactive)
REMARK       I    between atoms: C1_2  and  N1_3 
REMARK       I    between atoms: C1_2  and  N2_10 
REMARK    1  A    between atoms: N1_3  and  C2_4 
REMARK    2  A    between atoms: N2_10  and  C8_11 
REMARK    3  A    between atoms: N2_10  and  C15_20 
REMARK    4  A    between atoms: C8_11  and  C9_12 
REMARK    5  A    between atoms: C12_15  and  O2_16 
REMARK    6  A    between atoms: C15_20  and  C16_21 
REMARK    7  A    between atoms: C19_24  and  O3_25 
ROOT
HETATM    1  O1  UNL     1      24.130   1.686  53.140  1.00  0.00    -0.247 OA
HETATM    2  C1  UNL     1      24.397   1.936  51.936  1.00  0.00     0.323 C 
HETATM    3  N1  UNL     1      23.319   2.055  51.041  1.00  0.00    -0.309 N 
HETATM    4  N2  UNL     1      25.770   2.087  51.541  1.00  0.00    -0.326 N 
HETATM    5  H1  UNL     1      23.643   2.266  50.072  1.00  0.00     0.170 HD
ENDROOT
BRANCH   4   6
HETATM    6  C8  UNL     1      26.282   2.365  50.217  1.00  0.00     0.166 C 
BRANCH   6   7
HETATM    7  C9  UNL     1      26.325   3.775  49.845  1.00  0.00    -0.040 A 
HETATM    8  C10 UNL     1      27.334   4.219  48.980  1.00  0.00     0.011 A 
HETATM    9  C11 UNL     1      27.438   5.531  48.585  1.00  0.00     0.038 A 
HETATM   10  C12 UNL     1      26.544   6.491  49.023  1.00  0.00     0.084 A 
HETATM   11  C13 UNL     1      25.534   6.098  49.877  1.00  0.00     0.038 A 
HETATM   12  C14 UNL     1      25.465   4.773  50.248  1.00  0.00     0.011 A 
BRANCH  10  13
HETATM   13  O2  UNL     1      26.583   7.821  48.673  1.00  0.00    -0.271 OA
HETATM   14 BR1  UNL     1      27.014   9.047  50.037  1.00  0.00     0.105 Br
ENDBRANCH  10  13
ENDBRANCH   6   7
ENDBRANCH   4   6
BRANCH   4  15
HETATM   15  C15 UNL     1      26.804   1.956  52.546  1.00  0.00     0.166 C 
BRANCH  15  16
HETATM   16  C16 UNL     1      27.295   0.588  52.743  1.00  0.00    -0.040 A 
HETATM   17  C17 UNL     1      26.586  -0.556  52.360  1.00  0.00     0.011 A 
HETATM   18  C18 UNL     1      27.024  -1.848  52.533  1.00  0.00     0.037 A 
HETATM   19  C19 UNL     1      28.238  -2.061  53.117  1.00  0.00     0.065 A 
HETATM   20  C20 UNL     1      28.991  -0.983  53.518  1.00  0.00     0.037 A 
HETATM   21  C21 UNL     1      28.512   0.294  53.325  1.00  0.00     0.011 A 
BRANCH  19  22
HETATM   22  O3  UNL     1      28.688  -3.359  53.295  1.00  0.00    -0.361 OA
HETATM   23  H17 UNL     1      29.574  -3.657  52.909  1.00  0.00     0.217 HD
ENDBRANCH  19  22
ENDBRANCH  15  16
ENDBRANCH   4  15
BRANCH   3  24
HETATM   24  C2  UNL     1      21.927   1.937  51.266  1.00  0.00     0.036 A 
HETATM   25  C3  UNL     1      21.076   2.901  51.739  1.00  0.00     0.029 A 
HETATM   26  C4  UNL     1      19.727   2.747  51.944  1.00  0.00     0.002 A 
HETATM   27  C5  UNL     1      19.160   1.525  51.655  1.00  0.00     0.000 A 
HETATM   28  C6  UNL     1      19.968   0.523  51.179  1.00  0.00     0.002 A 
HETATM   29  C7  UNL     1      21.315   0.735  50.992  1.00  0.00     0.029 A 
ENDBRANCH   3  24
TORSDOF 7
ENDMDL
MODEL 3
REMARK VINA RESULT:      -8.7      2.559      5.665
REMARK  7 active torsions:
REMARK  status: ('A' for Active; 'I' for Inactive)
REMARK       I    between atoms: C1_2  and  N1_3 
REMARK       I    between atoms: C1_2  and  N2_10 
REMARK    1  A    between atoms: N1_3  and  C2_4 
REMARK    2  A    between atoms: N2_10  and  C8_11 
REMARK    3  A    between atoms: N2_10  and  C15_20 
REMARK    4  A    between atoms: C8_11  and  C9_12 
REMARK    5  A    between atoms: C12_15  and  O2_16 
REMARK    6  A    between atoms: C15_20  and  C16_21 
REMARK    7  A    between atoms: C19_24  and  O3_25 
ROOT
HETATM    1  O1  UNL     1      25.239   0.689  54.154  1.00  0.00    -0.247 OA
HETATM    2  C1  UNL     1      25.263   0.837  52.905  1.00  0.00     0.323 C 
HETATM    3  N1  UNL     1      26.369   0.318  52.209  1.00  0.00    -0.309 N 
HETATM    4  N2  UNL     1      24.175   1.519  52.260  1.00  0.00    -0.326 N 
HETATM    5  H1  UNL     1      26.294   0.489  51.182  1.00  0.00     0.170 HD
ENDROOT
BRANCH   4   6
HETATM    6  C8  UNL     1      24.019   1.797  50.850  1.00  0.00     0.166 C 
BRANCH   6   7
HETATM    7  C9  UNL     1      24.801   2.920  50.343  1.00  0.00    -0.040 A 
HETATM    8  C10 UNL     1      24.236   4.202  50.357  1.00  0.00     0.011 A 
HETATM    9  C11 UNL     1      24.911   5.308  49.897  1.00  0.00     0.038 A 
HETATM   10  C12 UNL     1      26.195   5.212  49.391  1.00  0.00     0.084 A 
HETATM   11  C13 UNL     1      26.791   3.968  49.358  1.00  0.00     0.038 A 
HETATM   12  C14 UNL     1      26.079   2.886  49.830  1.00  0.00     0.011 A 
BRANCH  10  13
HETATM   13  O2  UNL     1      26.933   6.270  48.913  1.00  0.00    -0.271 OA
HETATM   14 BR1  UNL     1      28.647   5.875  48.240  1.00  0.00     0.105 Br
ENDBRANCH  10  13
ENDBRANCH   6   7
ENDBRANCH   4   6
BRANCH   4  15
HETATM   15  C15 UNL     1      23.078   2.005  53.071  1.00  0.00     0.166 C 
BRANCH  15  16
HETATM   16  C16 UNL     1      21.974   1.053  53.240  1.00  0.00    -0.040 A 
HETATM   17  C17 UNL     1      22.016  -0.039  54.112  1.00  0.00     0.011 A 
HETATM   18  C18 UNL     1      20.996  -0.944  54.289  1.00  0.00     0.037 A 
HETATM   19  C19 UNL     1      19.844  -0.790  53.574  1.00  0.00     0.065 A 
HETATM   20  C20 UNL     1      19.732   0.263  52.698  1.00  0.00     0.037 A 
HETATM   21  C21 UNL     1      20.781   1.145  52.553  1.00  0.00     0.011 A 
BRANCH  19  22
HETATM   22  O3  UNL     1      18.811  -1.696  53.746  1.00  0.00    -0.361 OA
HETATM   23  H17 UNL     1      18.986  -2.612  54.137  1.00  0.00     0.217 HD
ENDBRANCH  19  22
ENDBRANCH  15  16
ENDBRANCH   4  15
BRANCH   3  24
HETATM   24  C2  UNL     1      27.509  -0.370  52.686  1.00  0.00     0.036 A 
HETATM   25  C3  UNL     1      28.646   0.174  53.221  1.00  0.00     0.029 A 
HETATM   26  C4  UNL     1      29.735  -0.531  53.674  1.00  0.00     0.002 A 
HETATM   27  C5  UNL     1      29.700  -1.905  53.592  1.00  0.00     0.000 A 
HETATM   28  C6  UNL     1      28.584  -2.503  53.063  1.00  0.00     0.002 A 
HETATM   29  C7  UNL     1      27.521  -1.745  52.625  1.00  0.00     0.029 A 
ENDBRANCH   3  24
TORSDOF 7
ENDMDL
MODEL 4
REMARK VINA RESULT:      -8.4      3.105      7.261
REMARK  7 active torsions:
REMARK  status: ('A' for Active; 'I' for Inactive)
REMARK       I    between atoms: C1_2  and  N1_3 
REMARK       I    between atoms: C1_2  and  N2_10 
REMARK    1  A    between atoms: N1_3  and  C2_4 
REMARK    2  A    between atoms: N2_10  and  C8_11 
REMARK    3  A    between atoms: N2_10  and  C15_20 
REMARK    4  A    between atoms: C8_11  and  C9_12 
REMARK    5  A    between atoms: C12_15  and  O2_16 
REMARK    6  A    between atoms: C15_20  and  C16_21 
REMARK    7  A    between atoms: C19_24  and  O3_25 
ROOT
HETATM    1  O1  UNL     1      26.880   2.141  50.478  1.00  0.00    -0.247 OA
HETATM    2  C1  UNL     1      26.136   2.352  51.471  1.00  0.00     0.323 C 
HETATM    3  N1  UNL     1      26.483   1.738  52.687  1.00  0.00    -0.309 N 
HETATM    4  N2  UNL     1      24.986   3.200  51.316  1.00  0.00    -0.326 N 
HETATM    5  H1  UNL     1      25.809   1.978  53.447  1.00  0.00     0.170 HD
ENDROOT
BRANCH   4   6
HETATM    6  C8  UNL     1      24.011   3.557  52.322  1.00  0.00     0.166 C 
BRANCH   6   7
HETATM    7  C9  UNL     1      22.914   2.611  52.495  1.00  0.00    -0.040 A 
HETATM    8  C10 UNL     1      21.620   2.994  52.116  1.00  0.00     0.011 A 
HETATM    9  C11 UNL     1      20.538   2.157  52.250  1.00  0.00     0.038 A 
HETATM   10  C12 UNL     1      20.669   0.882  52.768  1.00  0.00     0.084 A 
HETATM   11  C13 UNL     1      21.926   0.462  53.154  1.00  0.00     0.038 A 
HETATM   12  C14 UNL     1      22.985   1.332  53.004  1.00  0.00     0.011 A 
BRANCH  10  13
HETATM   13  O2  UNL     1      19.636  -0.012  52.932  1.00  0.00    -0.271 OA
HETATM   14 BR1  UNL     1      18.279   0.009  51.627  1.00  0.00     0.105 Br
ENDBRANCH  10  13
ENDBRANCH   6   7
ENDBRANCH   4   6
BRANCH   4  15
HETATM   15  C15 UNL     1      24.726   3.792  50.020  1.00  0.00     0.166 C 
BRANCH  15  16
HETATM   16  C16 UNL     1      25.444   5.045  49.765  1.00  0.00    -0.040 A 
HETATM   17  C17 UNL     1      26.533   5.154  48.894  1.00  0.00     0.011 A 
HETATM   18  C18 UNL     1      27.223   6.315  48.638  1.00  0.00     0.037 A 
HETATM   19  C19 UNL     1      26.838   7.465  49.265  1.00  0.00     0.065 A 
HETATM   20  C20 UNL     1      25.774   7.432  50.134  1.00  0.00     0.037 A 
HETATM   21  C21 UNL     1      25.113   6.245  50.361  1.00  0.00     0.011 A 
BRANCH  19  22
HETATM   22  O3  UNL     1      27.526   8.639  49.012  1.00  0.00    -0.361 OA
HETATM   23  H17 UNL     1      27.820   9.241  49.771  1.00  0.00     0.217 HD
ENDBRANCH  19  22
ENDBRANCH  15  16
ENDBRANCH   4  15
BRANCH   3  24
HETATM   24  C2  UNL     1      27.568   0.887  53.005  1.00  0.00     0.036 A 
HETATM   25  C3  UNL     1      28.815   1.254  53.437  1.00  0.00     0.029 A 
HETATM   26  C4  UNL     1      29.844   0.396  53.735  1.00  0.00     0.002 A 
HETATM   27  C5  UNL     1      29.624  -0.957  53.594  1.00  0.00     0.000 A 
HETATM   28  C6  UNL     1      28.393  -1.380  53.164  1.00  0.00     0.002 A 
HETATM   29  C7  UNL     1      27.397  -0.473  52.880  1.00  0.00     0.029 A 
ENDBRANCH   3  24
TORSDOF 7
ENDMDL
MODEL 5
REMARK VINA RESULT:      -8.4      3.319      6.199
REMARK  7 active torsions:
REMARK  status: ('A' for Active; 'I' for Inactive)
REMARK       I    between atoms: C1_2  and  N1_3 
REMARK       I    between atoms: C1_2  and  N2_10 
REMARK    1  A    between atoms: N1_3  and  C2_4 
REMARK    2  A    between atoms: N2_10  and  C8_11 
REMARK    3  A    between atoms: N2_10  and  C15_20 
REMARK    4  A    between atoms: C8_11  and  C9_12 
REMARK    5  A    between atoms: C12_15  and  O2_16 
REMARK    6  A    between atoms: C15_20  and  C16_21 
REMARK    7  A    between atoms: C19_24  and  O3_25 
ROOT
HETATM    1  O1  UNL     1      26.755   2.319  50.525  1.00  0.00    -0.247 OA
HETATM    2  C1  UNL     1      25.974   2.482  51.498  1.00  0.00     0.323 C 
HETATM    3  N1  UNL     1      26.281   1.817  52.698  1.00  0.00    -0.309 N 
HETATM    4  N2  UNL     1      24.823   3.327  51.338  1.00  0.00    -0.326 N 
HETATM    5  H1  UNL     1      25.577   2.018  53.442  1.00  0.00     0.170 HD
ENDROOT
BRANCH   4   6
HETATM    6  C8  UNL     1      23.808   3.633  52.321  1.00  0.00     0.166 C 
BRANCH   6   7
HETATM    7  C9  UNL     1      22.758   2.631  52.471  1.00  0.00    -0.040 A 
HETATM    8  C10 UNL     1      21.420   3.023  52.332  1.00  0.00     0.011 A 
HETATM    9  C11 UNL     1      20.378   2.136  52.460  1.00  0.00     0.038 A 
HETATM   10  C12 UNL     1      20.596   0.799  52.734  1.00  0.00     0.084 A 
HETATM   11  C13 UNL     1      21.899   0.368  52.879  1.00  0.00     0.038 A 
HETATM   12  C14 UNL     1      22.915   1.290  52.743  1.00  0.00     0.011 A 
BRANCH  10  13
HETATM   13  O2  UNL     1      19.608  -0.148  52.876  1.00  0.00    -0.271 OA
HETATM   14 BR1  UNL     1      18.235  -0.142  51.587  1.00  0.00     0.105 Br
ENDBRANCH  10  13
ENDBRANCH   6   7
ENDBRANCH   4   6
BRANCH   4  15
HETATM   15  C15 UNL     1      24.605   3.974  50.061  1.00  0.00     0.166 C 
BRANCH  15  16
HETATM   16  C16 UNL     1      23.357   3.596  49.388  1.00  0.00    -0.040 A 
HETATM   17  C17 UNL     1      23.041   2.286  49.016  1.00  0.00     0.011 A 
HETATM   18  C18 UNL     1      21.880   1.905  48.386  1.00  0.00     0.037 A 
HETATM   19  C19 UNL     1      20.946   2.856  48.091  1.00  0.00     0.065 A 
HETATM   20  C20 UNL     1      21.190   4.165  48.429  1.00  0.00     0.037 A 
HETATM   21  C21 UNL     1      22.368   4.500  49.059  1.00  0.00     0.011 A 
BRANCH  19  22
HETATM   22  O3  UNL     1      19.773   2.483  47.457  1.00  0.00    -0.361 OA
HETATM   23  H17 UNL     1      19.358   1.576  47.629  1.00  0.00     0.217 HD
ENDBRANCH  19  22
ENDBRANCH  15  16
ENDBRANCH   4  15
BRANCH   3  24
HETATM   24  C2  UNL     1      27.360   0.960  53.019  1.00  0.00     0.036 A 
HETATM   25  C3  UNL     1      28.579   1.314  53.534  1.00  0.00     0.029 A 
HETATM   26  C4  UNL     1      29.604   0.450  53.832  1.00  0.00     0.002 A 
HETATM   27  C5  UNL     1      29.411  -0.893  53.599  1.00  0.00     0.000 A 
HETATM   28  C6  UNL     1      28.208  -1.304  53.082  1.00  0.00     0.002 A 
HETATM   29  C7  UNL     1      27.214  -0.391  52.804  1.00  0.00     0.029 A 
ENDBRANCH   3  24
TORSDOF 7
ENDMDL
MODEL 6
REMARK VINA RESULT:      -8.4      3.020      6.063
REMARK  7 active torsions:
REMARK  status: ('A' for Active; 'I' for Inactive)
REMARK       I    between atoms: C1_2  and  N1_3 
REMARK       I    between atoms: C1_2  and  N2_10 
REMARK    1  A    between atoms: N1_3  and  C2_4 
REMARK    2  A    between atoms: N2_10  and  C8_11 
REMARK    3  A    between atoms: N2_10  and  C15_20 
REMARK    4  A    between atoms: C8_11  and  C9_12 
REMARK    5  A    between atoms: C12_15  and  O2_16 
REMARK    6  A    between atoms: C15_20  and  C16_21 
REMARK    7  A    between atoms: C19_24  and  O3_25 
ROOT
HETATM    1  O1  UNL     1      24.980   2.674  53.465  1.00  0.00    -0.247 OA
HETATM    2  C1  UNL     1      25.125   2.653  52.216  1.00  0.00     0.323 C 
HETATM    3  N1  UNL     1      26.116   1.805  51.689  1.00  0.00    -0.309 N 
HETATM    4  N2  UNL     1      24.283   3.484  51.399  1.00  0.00    -0.326 N 
HETATM    5  H1  UNL     1      26.154   1.857  50.647  1.00  0.00     0.170 HD
ENDROOT
BRANCH   4   6
HETATM    6  C8  UNL     1      24.297   3.610  49.959  1.00  0.00     0.166 C 
BRANCH   6   7
HETATM    7  C9  UNL     1      25.376   4.425  49.412  1.00  0.00    -0.040 A 
HETATM    8  C10 UNL     1      25.097   5.736  49.005  1.00  0.00     0.011 A 
HETATM    9  C11 UNL     1      26.063   6.563  48.481  1.00  0.00     0.038 A 
HETATM   10  C12 UNL     1      27.370   6.141  48.326  1.00  0.00     0.084 A 
HETATM   11  C13 UNL     1      27.690   4.856  48.713  1.00  0.00     0.038 A 
HETATM   12  C14 UNL     1      26.693   4.060  49.235  1.00  0.00     0.011 A 
BRANCH  10  13
HETATM   13  O2  UNL     1      28.389   6.909  47.810  1.00  0.00    -0.271 OA
HETATM   14 BR1  UNL     1      30.131   6.204  47.934  1.00  0.00     0.105 Br
ENDBRANCH  10  13
ENDBRANCH   6   7
ENDBRANCH   4   6
BRANCH   4  15
HETATM   15  C15 UNL     1      23.286   4.312  52.044  1.00  0.00     0.166 C 
BRANCH  15  16
HETATM   16  C16 UNL     1      21.909   3.819  51.921  1.00  0.00    -0.040 A 
HETATM   17  C17 UNL     1      20.885   4.525  51.282  1.00  0.00     0.011 A 
HETATM   18  C18 UNL     1      19.588   4.086  51.153  1.00  0.00     0.037 A 
HETATM   19  C19 UNL     1      19.246   2.873  51.677  1.00  0.00     0.065 A 
HETATM   20  C20 UNL     1      20.203   2.125  52.319  1.00  0.00     0.037 A 
HETATM   21  C21 UNL     1      21.490   2.605  52.425  1.00  0.00     0.011 A 
BRANCH  19  22
HETATM   22  O3  UNL     1      17.943   2.423  51.552  1.00  0.00    -0.361 OA
HETATM   23  H17 UNL     1      17.579   2.134  50.653  1.00  0.00     0.217 HD
ENDBRANCH  19  22
ENDBRANCH  15  16
ENDBRANCH   4  15
BRANCH   3  24
HETATM   24  C2  UNL     1      27.017   0.935  52.345  1.00  0.00     0.036 A 
HETATM   25  C3  UNL     1      28.147   1.276  53.039  1.00  0.00     0.029 A 
HETATM   26  C4  UNL     1      29.000   0.398  53.664  1.00  0.00     0.002 A 
HETATM   27  C5  UNL     1      28.711  -0.947  53.597  1.00  0.00     0.000 A 
HETATM   28  C6  UNL     1      27.590  -1.345  52.913  1.00  0.00     0.002 A 
HETATM   29  C7  UNL     1      26.771  -0.419  52.307  1.00  0.00     0.029 A 
ENDBRANCH   3  24
TORSDOF 7
ENDMDL
MODEL 7
REMARK VINA RESULT:      -8.2      2.251      3.147
REMARK  7 active torsions:
REMARK  status: ('A' for Active; 'I' for Inactive)
REMARK       I    between atoms: C1_2  and  N1_3 
REMARK       I    between atoms: C1_2  and  N2_10 
REMARK    1  A    between atoms: N1_3  and  C2_4 
REMARK    2  A    between atoms: N2_10  and  C8_11 
REMARK    3  A    between atoms: N2_10  and  C15_20 
REMARK    4  A    between atoms: C8_11  and  C9_12 
REMARK    5  A    between atoms: C12_15  and  O2_16 
REMARK    6  A    between atoms: C15_20  and  C16_21 
REMARK    7  A    between atoms: C19_24  and  O3_25 
ROOT
HETATM    1  O1  UNL     1      25.020   6.324  50.741  1.00  0.00    -0.247 OA
HETATM    2  C1  UNL     1      25.101   5.134  50.342  1.00  0.00     0.323 C 
HETATM    3  N1  UNL     1      26.029   4.850  49.324  1.00  0.00    -0.309 N 
HETATM    4  N2  UNL     1      24.255   4.137  50.938  1.00  0.00    -0.326 N 
HETATM    5  H1  UNL     1      26.022   3.838  49.067  1.00  0.00     0.170 HD
ENDROOT
BRANCH   4   6
HETATM    6  C8  UNL     1      24.189   2.728  50.617  1.00  0.00     0.166 C 
BRANCH   6   7
HETATM    7  C9  UNL     1      24.993   1.855  51.465  1.00  0.00    -0.040 A 
HETATM    8  C10 UNL     1      24.345   0.978  52.345  1.00  0.00     0.011 A 
HETATM    9  C11 UNL     1      25.035   0.125  53.174  1.00  0.00     0.038 A 
HETATM   10  C12 UNL     1      26.417   0.087  53.183  1.00  0.00     0.084 A 
HETATM   11  C13 UNL     1      27.098   0.934  52.332  1.00  0.00     0.038 A 
HETATM   12  C14 UNL     1      26.368   1.773  51.517  1.00  0.00     0.011 A 
BRANCH  10  13
HETATM   13  O2  UNL     1      27.177  -0.736  53.982  1.00  0.00    -0.271 OA
HETATM   14 BR1  UNL     1      29.046  -0.638  53.771  1.00  0.00     0.105 Br
ENDBRANCH  10  13
ENDBRANCH   6   7
ENDBRANCH   4   6
BRANCH   4  15
HETATM   15  C15 UNL     1      23.342   4.535  51.988  1.00  0.00     0.166 C 
BRANCH  15  16
HETATM   16  C16 UNL     1      21.923   4.325  51.677  1.00  0.00    -0.040 A 
HETATM   17  C17 UNL     1      21.222   5.059  50.714  1.00  0.00     0.011 A 
HETATM   18  C18 UNL     1      19.894   4.882  50.404  1.00  0.00     0.037 A 
HETATM   19  C19 UNL     1      19.182   3.926  51.067  1.00  0.00     0.065 A 
HETATM   20  C20 UNL     1      19.807   3.166  52.026  1.00  0.00     0.037 A 
HETATM   21  C21 UNL     1      21.140   3.378  52.305  1.00  0.00     0.011 A 
BRANCH  19  22
HETATM   22  O3  UNL     1      17.845   3.740  50.761  1.00  0.00    -0.361 OA
HETATM   23  H17 UNL     1      17.123   3.960  51.435  1.00  0.00     0.217 HD
ENDBRANCH  19  22
ENDBRANCH  15  16
ENDBRANCH   4  15
BRANCH   3  24
HETATM   24  C2  UNL     1      26.925   5.704  48.640  1.00  0.00     0.036 A 
HETATM   25  C3  UNL     1      26.643   6.910  48.056  1.00  0.00     0.029 A 
HETATM   26  C4  UNL     1      27.543   7.712  47.398  1.00  0.00     0.002 A 
HETATM   27  C5  UNL     1      28.849   7.283  47.306  1.00  0.00     0.000 A 
HETATM   28  C6  UNL     1      29.187   6.080  47.873  1.00  0.00     0.002 A 
HETATM   29  C7  UNL     1      28.241   5.319  48.522  1.00  0.00     0.029 A 
ENDBRANCH   3  24
TORSDOF 7
ENDMDL
MODEL 8
REMARK VINA RESULT:      -7.9      5.876     10.547
REMARK  7 active torsions:
REMARK  status: ('A' for Active; 'I' for Inactive)
REMARK       I    between atoms: C1_2  and  N1_3 
REMARK       I    between atoms: C1_2  and  N2_10 
REMARK    1  A    between atoms: N1_3  and  C2_4 
REMARK    2  A    between atoms: N2_10  and  C8_11 
REMARK    3  A    between atoms: N2_10  and  C15_20 
REMARK    4  A    between atoms: C8_11  and  C9_12 
REMARK    5  A    between atoms: C12_15  and  O2_16 
REMARK    6  A    between atoms: C15_20  and  C16_21 
REMARK    7  A    between atoms: C19_24  and  O3_25 
ROOT
HETATM    1  O1  UNL     1      32.488   6.878  48.868  1.00  0.00    -0.247 OA
HETATM    2  C1  UNL     1      31.523   6.634  48.098  1.00  0.00     0.323 C 
HETATM    3  N1  UNL     1      31.692   5.614  47.145  1.00  0.00    -0.309 N 
HETATM    4  N2  UNL     1      30.313   7.399  48.227  1.00  0.00    -0.326 N 
HETATM    5  H1  UNL     1      30.837   5.487  46.560  1.00  0.00     0.170 HD
ENDROOT
BRANCH   4   6
HETATM    6  C8  UNL     1      29.106   7.282  47.441  1.00  0.00     0.166 C 
BRANCH   6   7
HETATM    7  C9  UNL     1      28.047   6.472  48.036  1.00  0.00    -0.040 A 
HETATM    8  C10 UNL     1      26.776   7.036  48.207  1.00  0.00     0.011 A 
HETATM    9  C11 UNL     1      25.730   6.335  48.759  1.00  0.00     0.038 A 
HETATM   10  C12 UNL     1      25.878   5.026  49.178  1.00  0.00     0.084 A 
HETATM   11  C13 UNL     1      27.114   4.430  49.029  1.00  0.00     0.038 A 
HETATM   12  C14 UNL     1      28.136   5.168  48.470  1.00  0.00     0.011 A 
BRANCH  10  13
HETATM   13  O2  UNL     1      24.881   4.261  49.739  1.00  0.00    -0.271 OA
HETATM   14 BR1  UNL     1      25.421   2.878  50.898  1.00  0.00     0.105 Br
ENDBRANCH  10  13
ENDBRANCH   6   7
ENDBRANCH   4   6
BRANCH   4  15
HETATM   15  C15 UNL     1      30.241   8.421  49.251  1.00  0.00     0.166 C 
BRANCH  15  16
HETATM   16  C16 UNL     1      30.202   9.796  48.740  1.00  0.00    -0.040 A 
HETATM   17  C17 UNL     1      29.087  10.634  48.848  1.00  0.00     0.011 A 
HETATM   18  C18 UNL     1      29.024  11.925  48.378  1.00  0.00     0.037 A 
HETATM   19  C19 UNL     1      30.118  12.456  47.758  1.00  0.00     0.065 A 
HETATM   20  C20 UNL     1      31.250  11.690  47.617  1.00  0.00     0.037 A 
HETATM   21  C21 UNL     1      31.267  10.401  48.103  1.00  0.00     0.011 A 
BRANCH  19  22
HETATM   22  O3  UNL     1      30.064  13.755  47.282  1.00  0.00    -0.361 OA
HETATM   23  H17 UNL     1      29.253  14.090  46.780  1.00  0.00     0.217 HD
ENDBRANCH  19  22
ENDBRANCH  15  16
ENDBRANCH   4  15
BRANCH   3  24
HETATM   24  C2  UNL     1      32.803   4.777  46.889  1.00  0.00     0.036 A 
HETATM   25  C3  UNL     1      33.175   3.654  47.580  1.00  0.00     0.029 A 
HETATM   26  C4  UNL     1      34.264   2.866  47.300  1.00  0.00     0.002 A 
HETATM   27  C5  UNL     1      35.065   3.218  46.236  1.00  0.00     0.000 A 
HETATM   28  C6  UNL     1      34.739   4.335  45.509  1.00  0.00     0.002 A 
HETATM   29  C7  UNL     1      33.633   5.087  45.836  1.00  0.00     0.029 A 
ENDBRANCH   3  24
TORSDOF 7
ENDMDL
MODEL 9
REMARK VINA RESULT:      -7.9      3.138      6.729
REMARK  7 active torsions:
REMARK  status: ('A' for Active; 'I' for Inactive)
REMARK       I    between atoms: C1_2  and  N1_3 
REMARK       I    between atoms: C1_2  and  N2_10 
REMARK    1  A    between atoms: N1_3  and  C2_4 
REMARK    2  A    between atoms: N2_10  and  C8_11 
REMARK    3  A    between atoms: N2_10  and  C15_20 
REMARK    4  A    between atoms: C8_11  and  C9_12 
REMARK    5  A    between atoms: C12_15  and  O2_16 
REMARK    6  A    between atoms: C15_20  and  C16_21 
REMARK    7  A    between atoms: C19_24  and  O3_25 
ROOT
HETATM    1  O1  UNL     1      23.275   1.451  51.621  1.00  0.00    -0.247 OA
HETATM    2  C1  UNL     1      23.809   2.570  51.831  1.00  0.00     0.323 C 
HETATM    3  N1  UNL     1      25.063   2.584  52.467  1.00  0.00    -0.309 N 
HETATM    4  N2  UNL     1      23.122   3.762  51.416  1.00  0.00    -0.326 N 
HETATM    5  H1  UNL     1      25.421   3.557  52.592  1.00  0.00     0.170 HD
ENDROOT
BRANCH   4   6
HETATM    6  C8  UNL     1      23.558   5.132  51.572  1.00  0.00     0.166 C 
BRANCH   6   7
HETATM    7  C9  UNL     1      24.623   5.557  50.670  1.00  0.00    -0.040 A 
HETATM    8  C10 UNL     1      24.990   6.910  50.642  1.00  0.00     0.011 A 
HETATM    9  C11 UNL     1      25.984   7.384  49.819  1.00  0.00     0.038 A 
HETATM   10  C12 UNL     1      26.680   6.545  48.969  1.00  0.00     0.084 A 
HETATM   11  C13 UNL     1      26.352   5.205  48.964  1.00  0.00     0.038 A 
HETATM   12  C14 UNL     1      25.350   4.770  49.804  1.00  0.00     0.011 A 
BRANCH  10  13
HETATM   13  O2  UNL     1      27.685   6.945  48.118  1.00  0.00    -0.271 OA
HETATM   14 BR1  UNL     1      29.263   5.917  48.123  1.00  0.00     0.105 Br
ENDBRANCH  10  13
ENDBRANCH   6   7
ENDBRANCH   4   6
BRANCH   4  15
HETATM   15  C15 UNL     1      21.838   3.634  50.758  1.00  0.00     0.166 C 
BRANCH  15  16
HETATM   16  C16 UNL     1      21.900   3.630  49.293  1.00  0.00    -0.040 A 
HETATM   17  C17 UNL     1      21.617   4.748  48.500  1.00  0.00     0.011 A 
HETATM   18  C18 UNL     1      21.667   4.770  47.126  1.00  0.00     0.037 A 
HETATM   19  C19 UNL     1      22.018   3.633  46.459  1.00  0.00     0.065 A 
HETATM   20  C20 UNL     1      22.311   2.497  47.174  1.00  0.00     0.037 A 
HETATM   21  C21 UNL     1      22.247   2.520  48.550  1.00  0.00     0.011 A 
BRANCH  19  22
HETATM   22  O3  UNL     1      22.073   3.647  45.075  1.00  0.00    -0.361 OA
HETATM   23  H17 UNL     1      21.233   3.771  44.525  1.00  0.00     0.217 HD
ENDBRANCH  19  22
ENDBRANCH  15  16
ENDBRANCH   4  15
BRANCH   3  24
HETATM   24  C2  UNL     1      25.864   1.516  52.933  1.00  0.00     0.036 A 
HETATM   25  C3  UNL     1      26.228   1.252  54.227  1.00  0.00     0.029 A 
HETATM   26  C4  UNL     1      27.011   0.201  54.640  1.00  0.00     0.002 A 
HETATM   27  C5  UNL     1      27.480  -0.675  53.686  1.00  0.00     0.000 A 
HETATM   28  C6  UNL     1      27.146  -0.457  52.373  1.00  0.00     0.002 A 
HETATM   29  C7  UNL     1      26.356   0.614  52.018  1.00  0.00     0.029 A 
ENDBRANCH   3  24
TORSDOF 7
ENDMDL
