MODEL 1
REMARK VINA RESULT:      -9.6      0.000      0.000
REMARK  3 active torsions:
REMARK  status: ('A' for Active; 'I' for Inactive)
REMARK    1  A    between atoms: C7_7  and  N1_8 
REMARK    2  A    between atoms: N1_8  and  C8_9 
REMARK    3  A    between atoms: C16_21  and  O3_22 
ROOT
HETATM    1  C1  UNL     1      29.410  -2.020  53.312  1.00  0.00     0.018 C 
HETATM    2  C2  UNL     1      28.523  -1.166  53.296  1.00  0.00    -0.078 C 
HETATM    3  C3  UNL     1      27.473  -0.138  53.304  1.00  0.00     0.019 A 
HETATM    4  C4  UNL     1      27.897   1.072  53.780  1.00  0.00     0.021 A 
HETATM    5  C5  UNL     1      26.977   2.104  53.783  1.00  0.00     0.004 A 
HETATM    6  C6  UNL     1      25.682   1.825  53.301  1.00  0.00     0.029 A 
HETATM    7  C7  UNL     1      25.275   0.589  52.827  1.00  0.00     0.035 A 
HETATM    8  C21 UNL     1      26.208  -0.452  52.822  1.00  0.00     0.050 A 
ENDROOT
BRANCH   7   9
HETATM    9  N1  UNL     1      23.944   0.404  52.325  1.00  0.00    -0.340 N 
HETATM   10  H5  UNL     1      23.711   0.732  51.345  1.00  0.00     0.167 HD
BRANCH   9  11
HETATM   11  C8  UNL     1      22.912  -0.226  53.129  1.00  0.00     0.144 A 
HETATM   12  N2  UNL     1      23.497  -0.675  54.247  1.00  0.00    -0.223 NA
HETATM   13  C9  UNL     1      22.802  -1.267  55.183  1.00  0.00     0.236 A 
HETATM   14  N3  UNL     1      21.535  -1.365  54.892  1.00  0.00    -0.241 NA
HETATM   15  C10 UNL     1      20.855  -0.961  53.811  1.00  0.00     0.073 A 
HETATM   16  C11 UNL     1      21.531  -0.336  52.842  1.00  0.00     0.075 A 
HETATM   17  C20 UNL     1      19.640  -1.533  53.971  1.00  0.00     0.032 C 
HETATM   18  C12 UNL     1      21.603   0.219  51.666  1.00  0.00     0.121 C 
HETATM   19  O1  UNL     1      22.199   0.775  50.611  1.00  0.00    -0.345 OA
HETATM   20  C15 UNL     1      20.563   0.602  50.782  1.00  0.00     0.132 C 
HETATM   21  C13 UNL     1      22.116   2.096  50.087  1.00  0.00     0.202 C 
HETATM   22  C14 UNL     1      21.105   1.931  48.915  1.00  0.00     0.202 C 
HETATM   23  O2  UNL     1      20.090   1.113  49.631  1.00  0.00    -0.344 OA
HETATM   24  C16 UNL     1      19.362   0.542  51.199  1.00  0.00     0.081 C 
HETATM   25  C17 UNL     1      17.889   0.639  51.149  1.00  0.00     0.093 C 
HETATM   26  C18 UNL     1      17.172  -0.636  51.602  1.00  0.00     0.174 C 
HETATM   27  O4  UNL     1      17.497  -1.186  52.695  1.00  0.00    -0.387 OA
HETATM   28  C19 UNL     1      18.218  -1.821  53.498  1.00  0.00     0.197 C 
BRANCH  24  29
HETATM   29  O3  UNL     1      18.965   0.203  52.326  1.00  0.00    -0.362 OA
HETATM   30  H11 UNL     1      19.112  -0.804  52.709  1.00  0.00     0.217 HD
ENDBRANCH  24  29
ENDBRANCH   9  11
ENDBRANCH   7   9
TORSDOF 3
ENDMDL
MODEL 2
REMARK VINA RESULT:      -9.5      3.697      5.460
REMARK  3 active torsions:
REMARK  status: ('A' for Active; 'I' for Inactive)
REMARK    1  A    between atoms: C7_7  and  N1_8 
REMARK    2  A    between atoms: N1_8  and  C8_9 
REMARK    3  A    between atoms: C16_21  and  O3_22 
ROOT
HETATM    1  C1  UNL     1      28.740   6.979  47.453  1.00  0.00     0.018 C 
HETATM    2  C2  UNL     1      27.841   6.528  48.162  1.00  0.00    -0.078 C 
HETATM    3  C3  UNL     1      26.773   6.010  49.029  1.00  0.00     0.019 A 
HETATM    4  C4  UNL     1      25.999   6.990  49.589  1.00  0.00     0.021 A 
HETATM    5  C5  UNL     1      24.947   6.582  50.387  1.00  0.00     0.004 A 
HETATM    6  C6  UNL     1      24.761   5.196  50.562  1.00  0.00     0.029 A 
HETATM    7  C7  UNL     1      25.561   4.222  49.988  1.00  0.00     0.035 A 
HETATM    8  C21 UNL     1      26.622   4.637  49.179  1.00  0.00     0.050 A 
ENDROOT
BRANCH   7   9
HETATM    9  N1  UNL     1      25.277   2.831  50.196  1.00  0.00    -0.340 N 
HETATM   10  H5  UNL     1      24.759   2.291  49.446  1.00  0.00     0.167 HD
BRANCH   9  11
HETATM   11  C8  UNL     1      25.688   2.147  51.410  1.00  0.00     0.144 A 
HETATM   12  N2  UNL     1      26.978   2.443  51.617  1.00  0.00    -0.223 NA
HETATM   13  C9  UNL     1      27.617   1.988  52.662  1.00  0.00     0.236 A 
HETATM   14  N3  UNL     1      26.874   1.240  53.428  1.00  0.00    -0.241 NA
HETATM   15  C10 UNL     1      25.589   0.877  53.311  1.00  0.00     0.073 A 
HETATM   16  C11 UNL     1      24.900   1.340  52.264  1.00  0.00     0.075 A 
HETATM   17  C20 UNL     1      25.442  -0.073  54.261  1.00  0.00     0.032 C 
HETATM   18  C12 UNL     1      23.823   1.401  51.534  1.00  0.00     0.121 C 
HETATM   19  O1  UNL     1      23.076   1.740  50.483  1.00  0.00    -0.345 OA
HETATM   20  C15 UNL     1      22.514   0.933  51.813  1.00  0.00     0.132 C 
HETATM   21  C13 UNL     1      21.943   2.596  50.387  1.00  0.00     0.202 C 
HETATM   22  C14 UNL     1      20.757   1.587  50.389  1.00  0.00     0.202 C 
HETATM   23  O2  UNL     1      21.220   0.726  51.509  1.00  0.00    -0.344 OA
HETATM   24  C16 UNL     1      22.263   0.501  52.984  1.00  0.00     0.081 C 
HETATM   25  C17 UNL     1      21.478  -0.091  54.085  1.00  0.00     0.093 C 
HETATM   26  C18 UNL     1      22.158  -1.291  54.751  1.00  0.00     0.174 C 
HETATM   27  O4  UNL     1      23.364  -1.202  55.127  1.00  0.00    -0.387 OA
HETATM   28  C19 UNL     1      24.607  -1.112  55.005  1.00  0.00     0.197 C 
BRANCH  24  29
HETATM   29  O3  UNL     1      23.032   0.455  53.958  1.00  0.00    -0.362 OA
HETATM   30  H11 UNL     1      23.310   1.348  54.514  1.00  0.00     0.217 HD
ENDBRANCH  24  29
ENDBRANCH   9  11
ENDBRANCH   7   9
TORSDOF 3
ENDMDL
MODEL 3
REMARK VINA RESULT:      -9.1      2.320      4.541
REMARK  3 active torsions:
REMARK  status: ('A' for Active; 'I' for Inactive)
REMARK    1  A    between atoms: C7_7  and  N1_8 
REMARK    2  A    between atoms: N1_8  and  C8_9 
REMARK    3  A    between atoms: C16_21  and  O3_22 
ROOT
HETATM    1  C1  UNL     1      29.009  -2.795  53.124  1.00  0.00     0.018 C 
HETATM    2  C2  UNL     1      28.711  -1.607  53.251  1.00  0.00    -0.078 C 
HETATM    3  C3  UNL     1      28.372  -0.189  53.427  1.00  0.00     0.019 A 
HETATM    4  C4  UNL     1      29.415   0.572  53.880  1.00  0.00     0.021 A 
HETATM    5  C5  UNL     1      29.186   1.926  54.034  1.00  0.00     0.004 A 
HETATM    6  C6  UNL     1      27.901   2.411  53.718  1.00  0.00     0.029 A 
HETATM    7  C7  UNL     1      26.858   1.620  53.265  1.00  0.00     0.035 A 
HETATM    8  C21 UNL     1      27.093   0.251  53.107  1.00  0.00     0.050 A 
ENDROOT
BRANCH   7   9
HETATM    9  N1  UNL     1      25.589   2.205  52.937  1.00  0.00    -0.340 N 
HETATM   10  H5  UNL     1      24.865   2.328  53.700  1.00  0.00     0.167 HD
BRANCH   9  11
HETATM   11  C8  UNL     1      25.280   2.633  51.585  1.00  0.00     0.144 A 
HETATM   12  N2  UNL     1      26.396   3.167  51.070  1.00  0.00    -0.223 NA
HETATM   13  C9  UNL     1      26.427   3.617  49.844  1.00  0.00     0.236 A 
HETATM   14  N3  UNL     1      25.286   3.493  49.226  1.00  0.00    -0.241 NA
HETATM   15  C10 UNL     1      24.118   2.986  49.645  1.00  0.00     0.073 A 
HETATM   16  C11 UNL     1      24.056   2.501  50.888  1.00  0.00     0.075 A 
HETATM   17  C20 UNL     1      23.255   3.332  48.664  1.00  0.00     0.032 C 
HETATM   18  C12 UNL     1      23.400   1.980  51.886  1.00  0.00     0.121 C 
HETATM   19  O1  UNL     1      23.213   1.549  53.134  1.00  0.00    -0.345 OA
HETATM   20  C15 UNL     1      22.095   1.428  51.921  1.00  0.00     0.132 C 
HETATM   21  C13 UNL     1      22.971   0.240  53.637  1.00  0.00     0.202 C 
HETATM   22  C14 UNL     1      21.427   0.236  53.838  1.00  0.00     0.202 C 
HETATM   23  O2  UNL     1      21.048   0.853  52.540  1.00  0.00    -0.344 OA
HETATM   24  C16 UNL     1      21.475   1.270  50.819  1.00  0.00     0.081 C 
HETATM   25  C17 UNL     1      20.366   0.915  49.912  1.00  0.00     0.093 C 
HETATM   26  C18 UNL     1      19.976   2.038  48.947  1.00  0.00     0.174 C 
HETATM   27  O4  UNL     1      20.871   2.625  48.270  1.00  0.00    -0.387 OA
HETATM   28  C19 UNL     1      21.855   3.369  48.057  1.00  0.00     0.197 C 
BRANCH  24  29
HETATM   29  O3  UNL     1      21.885   1.521  49.674  1.00  0.00    -0.362 OA
HETATM   30  H11 UNL     1      21.814   0.796  48.867  1.00  0.00     0.217 HD
ENDBRANCH  24  29
ENDBRANCH   9  11
ENDBRANCH   7   9
TORSDOF 3
ENDMDL
MODEL 4
REMARK VINA RESULT:      -9.0      3.850      5.860
REMARK  3 active torsions:
REMARK  status: ('A' for Active; 'I' for Inactive)
REMARK    1  A    between atoms: C7_7  and  N1_8 
REMARK    2  A    between atoms: N1_8  and  C8_9 
REMARK    3  A    between atoms: C16_21  and  O3_22 
ROOT
HETATM    1  C1  UNL     1      28.768   7.168  47.376  1.00  0.00     0.018 C 
HETATM    2  C2  UNL     1      27.872   6.705  48.084  1.00  0.00    -0.078 C 
HETATM    3  C3  UNL     1      26.810   6.174  48.949  1.00  0.00     0.019 A 
HETATM    4  C4  UNL     1      26.081   7.144  49.580  1.00  0.00     0.021 A 
HETATM    5  C5  UNL     1      25.037   6.725  50.382  1.00  0.00     0.004 A 
HETATM    6  C6  UNL     1      24.812   5.338  50.488  1.00  0.00     0.029 A 
HETATM    7  C7  UNL     1      25.566   4.373  49.842  1.00  0.00     0.035 A 
HETATM    8  C21 UNL     1      26.621   4.800  49.029  1.00  0.00     0.050 A 
ENDROOT
BRANCH   7   9
HETATM    9  N1  UNL     1      25.245   2.982  49.983  1.00  0.00    -0.340 N 
HETATM   10  H5  UNL     1      26.031   2.274  50.042  1.00  0.00     0.167 HD
BRANCH   9  11
HETATM   11  C8  UNL     1      23.868   2.525  50.051  1.00  0.00     0.144 A 
HETATM   12  N2  UNL     1      23.251   2.955  48.942  1.00  0.00    -0.223 NA
HETATM   13  C9  UNL     1      21.997   2.668  48.712  1.00  0.00     0.236 A 
HETATM   14  N3  UNL     1      21.455   1.954  49.660  1.00  0.00    -0.241 NA
HETATM   15  C10 UNL     1      21.974   1.483  50.802  1.00  0.00     0.073 A 
HETATM   16  C11 UNL     1      23.259   1.743  51.060  1.00  0.00     0.075 A 
HETATM   17  C20 UNL     1      20.895   1.023  51.472  1.00  0.00     0.032 C 
HETATM   18  C12 UNL     1      24.308   1.697  51.832  1.00  0.00     0.121 C 
HETATM   19  O1  UNL     1      25.553   1.973  52.221  1.00  0.00    -0.345 OA
HETATM   20  C15 UNL     1      24.526   0.949  53.017  1.00  0.00     0.132 C 
HETATM   21  C13 UNL     1      26.688   1.127  52.368  1.00  0.00     0.202 C 
HETATM   22  C14 UNL     1      26.706   0.852  53.900  1.00  0.00     0.202 C 
HETATM   23  O2  UNL     1      25.259   0.560  54.075  1.00  0.00    -0.344 OA
HETATM   24  C16 UNL     1      23.659   0.078  53.350  1.00  0.00     0.081 C 
HETATM   25  C17 UNL     1      23.017  -0.969  54.169  1.00  0.00     0.093 C 
HETATM   26  C18 UNL     1      21.551  -0.677  54.503  1.00  0.00     0.174 C 
HETATM   27  O4  UNL     1      20.749  -0.346  53.580  1.00  0.00    -0.387 OA
HETATM   28  C19 UNL     1      20.245   0.383  52.696  1.00  0.00     0.197 C 
BRANCH  24  29
HETATM   29  O3  UNL     1      22.622  -0.233  52.743  1.00  0.00    -0.362 OA
HETATM   30  H11 UNL     1      22.280   0.318  51.870  1.00  0.00     0.217 HD
ENDBRANCH  24  29
ENDBRANCH   9  11
ENDBRANCH   7   9
TORSDOF 3
ENDMDL
MODEL 5
REMARK VINA RESULT:      -8.7      2.556      3.835
REMARK  3 active torsions:
REMARK  status: ('A' for Active; 'I' for Inactive)
REMARK    1  A    between atoms: C7_7  and  N1_8 
REMARK    2  A    between atoms: N1_8  and  C8_9 
REMARK    3  A    between atoms: C16_21  and  O3_22 
ROOT
HETATM    1  C1  UNL     1      28.895  -2.770  53.084  1.00  0.00     0.018 C 
HETATM    2  C2  UNL     1      28.655  -1.565  53.161  1.00  0.00    -0.078 C 
HETATM    3  C3  UNL     1      28.377  -0.127  53.282  1.00  0.00     0.019 A 
HETATM    4  C4  UNL     1      29.363   0.568  53.927  1.00  0.00     0.021 A 
HETATM    5  C5  UNL     1      29.195   1.935  54.045  1.00  0.00     0.004 A 
HETATM    6  C6  UNL     1      28.025   2.498  53.498  1.00  0.00     0.029 A 
HETATM    7  C7  UNL     1      27.037   1.773  52.852  1.00  0.00     0.035 A 
HETATM    8  C21 UNL     1      27.212   0.391  52.730  1.00  0.00     0.050 A 
ENDROOT
BRANCH   7   9
HETATM    9  N1  UNL     1      25.892   2.435  52.296  1.00  0.00    -0.340 N 
HETATM   10  H5  UNL     1      25.986   3.436  51.962  1.00  0.00     0.167 HD
BRANCH   9  11
HETATM   11  C8  UNL     1      24.611   1.762  52.180  1.00  0.00     0.144 A 
HETATM   12  N2  UNL     1      24.544   0.858  53.166  1.00  0.00    -0.223 NA
HETATM   13  C9  UNL     1      23.482   0.114  53.330  1.00  0.00     0.236 A 
HETATM   14  N3  UNL     1      22.552   0.350  52.447  1.00  0.00    -0.241 NA
HETATM   15  C10 UNL     1      22.520   1.216  51.425  1.00  0.00     0.073 A 
HETATM   16  C11 UNL     1      23.582   2.005  51.239  1.00  0.00     0.075 A 
HETATM   17  C20 UNL     1      21.415   0.851  50.737  1.00  0.00     0.032 C 
HETATM   18  C12 UNL     1      24.238   2.909  50.568  1.00  0.00     0.121 C 
HETATM   19  O1  UNL     1      25.279   3.678  50.248  1.00  0.00    -0.345 OA
HETATM   20  C15 UNL     1      23.797   3.752  49.517  1.00  0.00     0.132 C 
HETATM   21  C13 UNL     1      25.442   5.091  50.308  1.00  0.00     0.202 C 
HETATM   22  C14 UNL     1      25.191   5.523  48.834  1.00  0.00     0.202 C 
HETATM   23  O2  UNL     1      23.975   4.704  48.583  1.00  0.00    -0.344 OA
HETATM   24  C16 UNL     1      22.555   3.767  49.235  1.00  0.00     0.081 C 
HETATM   25  C17 UNL     1      21.321   4.137  48.515  1.00  0.00     0.093 C 
HETATM   26  C18 UNL     1      20.509   2.934  48.027  1.00  0.00     0.174 C 
HETATM   27  O4  UNL     1      20.235   1.992  48.828  1.00  0.00    -0.387 OA
HETATM   28  C19 UNL     1      20.453   1.002  49.562  1.00  0.00     0.197 C 
BRANCH  24  29
HETATM   29  O3  UNL     1      21.641   3.138  49.792  1.00  0.00    -0.362 OA
HETATM   30  H11 UNL     1      20.905   3.632  50.423  1.00  0.00     0.217 HD
ENDBRANCH  24  29
ENDBRANCH   9  11
ENDBRANCH   7   9
TORSDOF 3
ENDMDL
MODEL 6
REMARK VINA RESULT:      -8.5      4.088      7.645
REMARK  3 active torsions:
REMARK  status: ('A' for Active; 'I' for Inactive)
REMARK    1  A    between atoms: C7_7  and  N1_8 
REMARK    2  A    between atoms: N1_8  and  C8_9 
REMARK    3  A    between atoms: C16_21  and  O3_22 
ROOT
HETATM    1  C1  UNL     1      18.386   0.237  50.851  1.00  0.00     0.018 C 
HETATM    2  C2  UNL     1      19.463   0.399  51.425  1.00  0.00    -0.078 C 
HETATM    3  C3  UNL     1      20.737   0.578  52.135  1.00  0.00     0.019 A 
HETATM    4  C4  UNL     1      21.117  -0.516  52.863  1.00  0.00     0.021 A 
HETATM    5  C5  UNL     1      22.326  -0.440  53.528  1.00  0.00     0.004 A 
HETATM    6  C6  UNL     1      23.063   0.755  53.408  1.00  0.00     0.029 A 
HETATM    7  C7  UNL     1      22.655   1.853  52.668  1.00  0.00     0.035 A 
HETATM    8  C21 UNL     1      21.433   1.772  51.993  1.00  0.00     0.050 A 
ENDROOT
BRANCH   7   9
HETATM    9  N1  UNL     1      23.487   3.018  52.575  1.00  0.00    -0.340 N 
HETATM   10  H5  UNL     1      23.239   3.875  53.146  1.00  0.00     0.167 HD
BRANCH   9  11
HETATM   11  C8  UNL     1      24.660   3.046  51.721  1.00  0.00     0.144 A 
HETATM   12  N2  UNL     1      25.358   1.929  51.965  1.00  0.00    -0.223 NA
HETATM   13  C9  UNL     1      26.460   1.664  51.315  1.00  0.00     0.236 A 
HETATM   14  N3  UNL     1      26.776   2.588  50.450  1.00  0.00    -0.241 NA
HETATM   15  C10 UNL     1      26.160   3.736  50.136  1.00  0.00     0.073 A 
HETATM   16  C11 UNL     1      25.021   4.029  50.769  1.00  0.00     0.075 A 
HETATM   17  C20 UNL     1      27.061   4.373  49.355  1.00  0.00     0.032 C 
HETATM   18  C12 UNL     1      24.023   4.826  51.028  1.00  0.00     0.121 C 
HETATM   19  O1  UNL     1      22.929   5.248  51.662  1.00  0.00    -0.345 OA
HETATM   20  C15 UNL     1      23.609   6.004  50.357  1.00  0.00     0.132 C 
HETATM   21  C13 UNL     1      21.592   5.411  51.199  1.00  0.00     0.202 C 
HETATM   22  C14 UNL     1      21.520   6.939  50.910  1.00  0.00     0.202 C 
HETATM   23  O2  UNL     1      22.813   7.075  50.187  1.00  0.00    -0.344 OA
HETATM   24  C16 UNL     1      24.175   6.304  49.257  1.00  0.00     0.081 C 
HETATM   25  C17 UNL     1      24.484   7.093  48.048  1.00  0.00     0.093 C 
HETATM   26  C18 UNL     1      25.975   7.395  47.873  1.00  0.00     0.174 C 
HETATM   27  O4  UNL     1      26.822   6.458  47.963  1.00  0.00    -0.387 OA
HETATM   28  C19 UNL     1      27.507   5.572  48.522  1.00  0.00     0.197 C 
BRANCH  24  29
HETATM   29  O3  UNL     1      25.057   5.668  48.658  1.00  0.00    -0.362 OA
HETATM   30  H11 UNL     1      25.998   6.127  48.363  1.00  0.00     0.217 HD
ENDBRANCH  24  29
ENDBRANCH   9  11
ENDBRANCH   7   9
TORSDOF 3
ENDMDL
MODEL 7
REMARK VINA RESULT:      -8.3      3.093      6.542
REMARK  3 active torsions:
REMARK  status: ('A' for Active; 'I' for Inactive)
REMARK    1  A    between atoms: C7_7  and  N1_8 
REMARK    2  A    between atoms: N1_8  and  C8_9 
REMARK    3  A    between atoms: C16_21  and  O3_22 
ROOT
HETATM    1  C1  UNL     1      22.760   7.429  46.207  1.00  0.00     0.018 C 
HETATM    2  C2  UNL     1      22.662   6.388  46.857  1.00  0.00    -0.078 C 
HETATM    3  C3  UNL     1      22.523   5.137  47.615  1.00  0.00     0.019 A 
HETATM    4  C4  UNL     1      22.287   4.043  46.828  1.00  0.00     0.021 A 
HETATM    5  C5  UNL     1      22.184   2.821  47.465  1.00  0.00     0.004 A 
HETATM    6  C6  UNL     1      22.324   2.801  48.867  1.00  0.00     0.029 A 
HETATM    7  C7  UNL     1      22.558   3.923  49.644  1.00  0.00     0.035 A 
HETATM    8  C21 UNL     1      22.666   5.159  48.997  1.00  0.00     0.050 A 
ENDROOT
BRANCH   7   9
HETATM    9  N1  UNL     1      22.719   3.805  51.065  1.00  0.00    -0.340 N 
HETATM   10  H5  UNL     1      23.376   4.467  51.566  1.00  0.00     0.167 HD
BRANCH   9  11
HETATM   11  C8  UNL     1      21.998   2.803  51.828  1.00  0.00     0.144 A 
HETATM   12  N2  UNL     1      20.691   2.995  51.604  1.00  0.00    -0.223 NA
HETATM   13  C9  UNL     1      19.791   2.215  52.142  1.00  0.00     0.236 A 
HETATM   14  N3  UNL     1      20.307   1.282  52.893  1.00  0.00    -0.241 NA
HETATM   15  C10 UNL     1      21.586   1.008  53.187  1.00  0.00     0.073 A 
HETATM   16  C11 UNL     1      22.533   1.775  52.640  1.00  0.00     0.075 A 
HETATM   17  C20 UNL     1      21.491   0.092  54.177  1.00  0.00     0.032 C 
HETATM   18  C12 UNL     1      23.777   2.133  52.491  1.00  0.00     0.121 C 
HETATM   19  O1  UNL     1      24.788   2.890  52.063  1.00  0.00    -0.345 OA
HETATM   20  C15 UNL     1      24.963   1.479  52.910  1.00  0.00     0.132 C 
HETATM   21  C13 UNL     1      25.842   2.601  51.150  1.00  0.00     0.202 C 
HETATM   22  C14 UNL     1      27.029   2.267  52.101  1.00  0.00     0.202 C 
HETATM   23  O2  UNL     1      26.297   1.375  53.039  1.00  0.00    -0.344 OA
HETATM   24  C16 UNL     1      24.867   0.303  53.388  1.00  0.00     0.081 C 
HETATM   25  C17 UNL     1      25.312  -0.966  53.999  1.00  0.00     0.093 C 
HETATM   26  C18 UNL     1      24.534  -1.348  55.261  1.00  0.00     0.174 C 
HETATM   27  O4  UNL     1      23.268  -1.334  55.249  1.00  0.00    -0.387 OA
HETATM   28  C19 UNL     1      22.119  -0.838  55.212  1.00  0.00     0.197 C 
BRANCH  24  29
HETATM   29  O3  UNL     1      23.841  -0.383  53.520  1.00  0.00    -0.362 OA
HETATM   30  H11 UNL     1      23.265  -0.384  54.443  1.00  0.00     0.217 HD
ENDBRANCH  24  29
ENDBRANCH   9  11
ENDBRANCH   7   9
TORSDOF 3
ENDMDL
MODEL 8
REMARK VINA RESULT:      -8.2      2.533      7.243
REMARK  3 active torsions:
REMARK  status: ('A' for Active; 'I' for Inactive)
REMARK    1  A    between atoms: C7_7  and  N1_8 
REMARK    2  A    between atoms: N1_8  and  C8_9 
REMARK    3  A    between atoms: C16_21  and  O3_22 
ROOT
HETATM    1  C1  UNL     1      15.395   4.153  50.024  1.00  0.00     0.018 C 
HETATM    2  C2  UNL     1      16.308   3.379  50.314  1.00  0.00    -0.078 C 
HETATM    3  C3  UNL     1      17.378   2.433  50.661  1.00  0.00     0.019 A 
HETATM    4  C4  UNL     1      17.311   1.254  49.970  1.00  0.00     0.021 A 
HETATM    5  C5  UNL     1      18.306   0.326  50.211  1.00  0.00     0.004 A 
HETATM    6  C6  UNL     1      19.302   0.666  51.148  1.00  0.00     0.029 A 
HETATM    7  C7  UNL     1      19.348   1.866  51.839  1.00  0.00     0.035 A 
HETATM    8  C21 UNL     1      18.341   2.805  51.591  1.00  0.00     0.050 A 
ENDROOT
BRANCH   7   9
HETATM    9  N1  UNL     1      20.419   2.141  52.753  1.00  0.00    -0.340 N 
HETATM   10  H5  UNL     1      20.569   3.134  53.088  1.00  0.00     0.167 HD
BRANCH   9  11
HETATM   11  C8  UNL     1      21.297   1.087  53.229  1.00  0.00     0.144 A 
HETATM   12  N2  UNL     1      20.526   0.160  53.813  1.00  0.00    -0.223 NA
HETATM   13  C9  UNL     1      21.043  -0.931  54.314  1.00  0.00     0.236 A 
HETATM   14  N3  UNL     1      22.340  -0.986  54.186  1.00  0.00    -0.241 NA
HETATM   15  C10 UNL     1      23.199  -0.119  53.633  1.00  0.00     0.073 A 
HETATM   16  C11 UNL     1      22.703   0.998  53.095  1.00  0.00     0.075 A 
HETATM   17  C20 UNL     1      24.409  -0.599  53.997  1.00  0.00     0.032 C 
HETATM   18  C12 UNL     1      22.846   2.156  52.516  1.00  0.00     0.121 C 
HETATM   19  O1  UNL     1      22.460   3.336  52.029  1.00  0.00    -0.345 OA
HETATM   20  C15 UNL     1      23.999   2.738  51.931  1.00  0.00     0.132 C 
HETATM   21  C13 UNL     1      22.448   3.830  50.694  1.00  0.00     0.202 C 
HETATM   22  C14 UNL     1      23.743   4.693  50.643  1.00  0.00     0.202 C 
HETATM   23  O2  UNL     1      24.661   3.727  51.304  1.00  0.00    -0.344 OA
HETATM   24  C16 UNL     1      25.041   2.017  51.803  1.00  0.00     0.081 C 
HETATM   25  C17 UNL     1      26.436   1.678  51.457  1.00  0.00     0.093 C 
HETATM   26  C18 UNL     1      27.218   1.041  52.609  1.00  0.00     0.174 C 
HETATM   27  O4  UNL     1      26.718   0.067  53.247  1.00  0.00    -0.387 OA
HETATM   28  C19 UNL     1      25.933  -0.522  54.024  1.00  0.00     0.197 C 
BRANCH  24  29
HETATM   29  O3  UNL     1      25.182   0.823  52.112  1.00  0.00    -0.362 OA
HETATM   30  H11 UNL     1      24.661   0.383  52.959  1.00  0.00     0.217 HD
ENDBRANCH  24  29
ENDBRANCH   9  11
ENDBRANCH   7   9
TORSDOF 3
ENDMDL
MODEL 9
REMARK VINA RESULT:      -8.2      2.822      4.505
REMARK  3 active torsions:
REMARK  status: ('A' for Active; 'I' for Inactive)
REMARK    1  A    between atoms: C7_7  and  N1_8 
REMARK    2  A    between atoms: N1_8  and  C8_9 
REMARK    3  A    between atoms: C16_21  and  O3_22 
ROOT
HETATM    1  C1  UNL     1      26.744   5.289  48.864  1.00  0.00     0.018 C 
HETATM    2  C2  UNL     1      26.298   4.446  49.644  1.00  0.00    -0.078 C 
HETATM    3  C3  UNL     1      25.775   3.419  50.555  1.00  0.00     0.019 A 
HETATM    4  C4  UNL     1      26.597   2.334  50.686  1.00  0.00     0.021 A 
HETATM    5  C5  UNL     1      26.193   1.340  51.558  1.00  0.00     0.004 A 
HETATM    6  C6  UNL     1      24.970   1.523  52.234  1.00  0.00     0.029 A 
HETATM    7  C7  UNL     1      24.151   2.630  52.081  1.00  0.00     0.035 A 
HETATM    8  C21 UNL     1      24.564   3.635  51.201  1.00  0.00     0.050 A 
ENDROOT
BRANCH   7   9
HETATM    9  N1  UNL     1      22.936   2.747  52.836  1.00  0.00    -0.340 N 
HETATM   10  H5  UNL     1      22.945   2.512  53.868  1.00  0.00     0.167 HD
BRANCH   9  11
HETATM   11  C8  UNL     1      21.699   3.184  52.215  1.00  0.00     0.144 A 
HETATM   12  N2  UNL     1      21.930   4.384  51.667  1.00  0.00    -0.223 NA
HETATM   13  C9  UNL     1      20.996   5.017  51.007  1.00  0.00     0.236 A 
HETATM   14  N3  UNL     1      19.868   4.363  50.965  1.00  0.00    -0.241 NA
HETATM   15  C10 UNL     1      19.531   3.173  51.480  1.00  0.00     0.073 A 
HETATM   16  C11 UNL     1      20.467   2.490  52.146  1.00  0.00     0.075 A 
HETATM   17  C20 UNL     1      18.191   3.127  51.315  1.00  0.00     0.032 C 
HETATM   18  C12 UNL     1      20.857   1.473  52.861  1.00  0.00     0.121 C 
HETATM   19  O1  UNL     1      21.692   0.755  53.612  1.00  0.00    -0.345 OA
HETATM   20  C15 UNL     1      20.193   0.249  53.129  1.00  0.00     0.132 C 
HETATM   21  C13 UNL     1      22.316  -0.501  53.365  1.00  0.00     0.202 C 
HETATM   22  C14 UNL     1      21.407  -1.489  54.152  1.00  0.00     0.202 C 
HETATM   23  O2  UNL     1      20.091  -0.963  53.702  1.00  0.00    -0.344 OA
HETATM   24  C16 UNL     1      19.116  -0.005  52.500  1.00  0.00     0.081 C 
HETATM   25  C17 UNL     1      17.903  -0.751  52.109  1.00  0.00     0.093 C 
HETATM   26  C18 UNL     1      16.619   0.079  52.181  1.00  0.00     0.174 C 
HETATM   27  O4  UNL     1      16.576   1.222  51.637  1.00  0.00    -0.387 OA
HETATM   28  C19 UNL     1      16.839   2.435  51.478  1.00  0.00     0.197 C 
BRANCH  24  29
HETATM   29  O3  UNL     1      18.560   0.690  51.633  1.00  0.00    -0.362 OA
HETATM   30  H11 UNL     1      17.479   0.708  51.518  1.00  0.00     0.217 HD
ENDBRANCH  24  29
ENDBRANCH   9  11
ENDBRANCH   7   9
TORSDOF 3
ENDMDL
