MODEL 1
REMARK VINA RESULT:      -7.7      0.000      0.000
REMARK  5 active torsions:
REMARK  status: ('A' for Active; 'I' for Inactive)
REMARK    1  A    between atoms: N2_6  and  C3_7 
REMARK    2  A    between atoms: C3_7  and  C4_8 
REMARK    3  A    between atoms: C4_8  and  C5_9 
REMARK    4  A    between atoms: C11_15  and  C12_16 
REMARK    5  A    between atoms: C15_19  and  O3_20 
ROOT
HETATM    1  O1  UNL     1      22.212   1.788  48.859  1.00  0.00    -0.270 OA
HETATM    2  C1  UNL     1      22.466   2.103  50.054  1.00  0.00     0.253 C 
HETATM    3  N1  UNL     1      21.889   3.184  50.810  1.00  0.00    -0.277 N 
HETATM    4  C2  UNL     1      22.815   3.525  51.838  1.00  0.00     0.326 C 
HETATM    5  O2  UNL     1      22.638   4.432  52.692  1.00  0.00    -0.247 OA
HETATM    6  N2  UNL     1      23.943   2.648  51.698  1.00  0.00    -0.316 N 
HETATM    7  C11 UNL     1      23.415   1.470  51.031  1.00  0.00     0.214 C 
HETATM    8  H1  UNL     1      20.945   3.624  50.608  1.00  0.00     0.173 HD
ENDROOT
BRANCH   6   9
HETATM    9  C3  UNL     1      25.294   2.968  52.163  1.00  0.00     0.133 C 
BRANCH   9  10
HETATM   10  C4  UNL     1      26.243   2.141  51.302  1.00  0.00     0.058 C 
BRANCH  10  11
HETATM   11  C5  UNL     1      26.989   1.199  52.143  1.00  0.00    -0.057 A 
HETATM   12  C6  UNL     1      27.955   1.713  53.010  1.00  0.00     0.007 A 
HETATM   13  C7  UNL     1      28.731   0.946  53.860  1.00  0.00     0.001 A 
HETATM   14  C8  UNL     1      28.538  -0.415  53.850  1.00  0.00     0.000 A 
HETATM   15  C9  UNL     1      27.581  -0.945  52.992  1.00  0.00     0.001 A 
HETATM   16  C10 UNL     1      26.815  -0.169  52.154  1.00  0.00     0.007 A 
ENDBRANCH  10  11
ENDBRANCH   9  10
ENDBRANCH   6   9
BRANCH   7  17
HETATM   17  C12 UNL     1      22.649   0.663  52.038  1.00  0.00    -0.026 A 
HETATM   18  C13 UNL     1      21.305   0.393  51.887  1.00  0.00     0.012 A 
HETATM   19  C14 UNL     1      20.701  -0.368  52.889  1.00  0.00     0.037 A 
HETATM   20  C15 UNL     1      21.424  -0.822  53.974  1.00  0.00     0.065 A 
HETATM   21  C16 UNL     1      22.771  -0.545  54.113  1.00  0.00     0.037 A 
HETATM   22  C17 UNL     1      23.370   0.207  53.123  1.00  0.00     0.012 A 
BRANCH  20  23
HETATM   23  O3  UNL     1      20.846  -1.584  54.987  1.00  0.00    -0.361 OA
HETATM   24  H14 UNL     1      19.847  -1.791  54.991  1.00  0.00     0.217 HD
ENDBRANCH  20  23
ENDBRANCH   7  17
TORSDOF 5
ENDMDL
MODEL 2
REMARK VINA RESULT:      -7.5      2.644      4.048
REMARK  5 active torsions:
REMARK  status: ('A' for Active; 'I' for Inactive)
REMARK    1  A    between atoms: N2_6  and  C3_7 
REMARK    2  A    between atoms: C3_7  and  C4_8 
REMARK    3  A    between atoms: C4_8  and  C5_9 
REMARK    4  A    between atoms: C11_15  and  C12_16 
REMARK    5  A    between atoms: C15_19  and  O3_20 
ROOT
HETATM    1  O1  UNL     1      20.594   1.666  50.774  1.00  0.00    -0.270 OA
HETATM    2  C1  UNL     1      21.638   1.956  51.420  1.00  0.00     0.253 C 
HETATM    3  N1  UNL     1      21.801   3.017  52.380  1.00  0.00    -0.277 N 
HETATM    4  C2  UNL     1      23.188   3.341  52.425  1.00  0.00     0.326 C 
HETATM    5  O2  UNL     1      23.694   4.227  53.159  1.00  0.00    -0.247 OA
HETATM    6  N2  UNL     1      23.854   2.473  51.495  1.00  0.00    -0.316 N 
HETATM    7  C11 UNL     1      22.993   1.307  51.394  1.00  0.00     0.214 C 
HETATM    8  H1  UNL     1      21.009   3.455  52.934  1.00  0.00     0.173 HD
ENDROOT
BRANCH   6   9
HETATM    9  C3  UNL     1      25.126   2.791  50.843  1.00  0.00     0.133 C 
BRANCH   9  10
HETATM   10  C4  UNL     1      24.767   3.396  49.490  1.00  0.00     0.058 C 
BRANCH  10  11
HETATM   11  C5  UNL     1      25.768   4.398  49.109  1.00  0.00    -0.057 A 
HETATM   12  C6  UNL     1      25.328   5.693  48.826  1.00  0.00     0.007 A 
HETATM   13  C7  UNL     1      26.156   6.737  48.456  1.00  0.00     0.001 A 
HETATM   14  C8  UNL     1      27.504   6.483  48.361  1.00  0.00     0.000 A 
HETATM   15  C9  UNL     1      27.960   5.199  48.638  1.00  0.00     0.001 A 
HETATM   16  C10 UNL     1      27.124   4.171  49.006  1.00  0.00     0.007 A 
ENDBRANCH  10  11
ENDBRANCH   9  10
ENDBRANCH   6   9
BRANCH   7  17
HETATM   17  C12 UNL     1      23.184   0.473  52.627  1.00  0.00    -0.026 A 
HETATM   18  C13 UNL     1      24.433   0.235  53.162  1.00  0.00     0.012 A 
HETATM   19  C14 UNL     1      24.483  -0.556  54.310  1.00  0.00     0.037 A 
HETATM   20  C15 UNL     1      23.332  -1.071  54.874  1.00  0.00     0.065 A 
HETATM   21  C16 UNL     1      22.087  -0.825  54.328  1.00  0.00     0.037 A 
HETATM   22  C17 UNL     1      22.035  -0.043  53.192  1.00  0.00     0.012 A 
BRANCH  20  23
HETATM   23  O3  UNL     1      23.355  -1.862  56.020  1.00  0.00    -0.361 OA
HETATM   24  H14 UNL     1      24.096  -2.545  56.179  1.00  0.00     0.217 HD
ENDBRANCH  20  23
ENDBRANCH   7  17
TORSDOF 5
ENDMDL
MODEL 3
REMARK VINA RESULT:      -7.3      2.430      5.169
REMARK  5 active torsions:
REMARK  status: ('A' for Active; 'I' for Inactive)
REMARK    1  A    between atoms: N2_6  and  C3_7 
REMARK    2  A    between atoms: C3_7  and  C4_8 
REMARK    3  A    between atoms: C4_8  and  C5_9 
REMARK    4  A    between atoms: C11_15  and  C12_16 
REMARK    5  A    between atoms: C15_19  and  O3_20 
ROOT
HETATM    1  O1  UNL     1      21.848   5.804  51.111  1.00  0.00    -0.270 OA
HETATM    2  C1  UNL     1      22.372   4.762  50.632  1.00  0.00     0.253 C 
HETATM    3  N1  UNL     1      22.019   4.098  49.404  1.00  0.00    -0.277 N 
HETATM    4  C2  UNL     1      22.421   2.736  49.526  1.00  0.00     0.326 C 
HETATM    5  O2  UNL     1      22.268   1.859  48.638  1.00  0.00    -0.247 OA
HETATM    6  N2  UNL     1      23.015   2.587  50.825  1.00  0.00    -0.316 N 
HETATM    7  C11 UNL     1      23.491   3.916  51.170  1.00  0.00     0.214 C 
HETATM    8  H1  UNL     1      21.545   4.567  48.579  1.00  0.00     0.173 HD
ENDROOT
BRANCH   6   9
HETATM    9  C3  UNL     1      23.076   1.321  51.559  1.00  0.00     0.133 C 
BRANCH   9  10
HETATM   10  C4  UNL     1      23.588   1.667  52.954  1.00  0.00     0.058 C 
BRANCH  10  11
HETATM   11  C5  UNL     1      25.033   1.427  53.030  1.00  0.00    -0.057 A 
HETATM   12  C6  UNL     1      25.549   0.307  52.375  1.00  0.00     0.007 A 
HETATM   13  C7  UNL     1      26.887  -0.043  52.361  1.00  0.00     0.001 A 
HETATM   14  C8  UNL     1      27.768   0.767  53.037  1.00  0.00     0.000 A 
HETATM   15  C9  UNL     1      27.272   1.886  53.695  1.00  0.00     0.001 A 
HETATM   16  C10 UNL     1      25.938   2.222  53.699  1.00  0.00     0.007 A 
ENDBRANCH  10  11
ENDBRANCH   9  10
ENDBRANCH   6   9
BRANCH   7  17
HETATM   17  C12 UNL     1      24.749   4.181  50.397  1.00  0.00    -0.026 A 
HETATM   18  C13 UNL     1      25.636   3.174  50.077  1.00  0.00     0.012 A 
HETATM   19  C14 UNL     1      26.771   3.543  49.355  1.00  0.00     0.037 A 
HETATM   20  C15 UNL     1      26.986   4.856  48.985  1.00  0.00     0.065 A 
HETATM   21  C16 UNL     1      26.090   5.856  49.312  1.00  0.00     0.037 A 
HETATM   22  C17 UNL     1      24.966   5.492  50.025  1.00  0.00     0.012 A 
BRANCH  20  23
HETATM   23  O3  UNL     1      28.111   5.251  48.264  1.00  0.00    -0.361 OA
HETATM   24  H14 UNL     1      28.909   4.627  48.140  1.00  0.00     0.217 HD
ENDBRANCH  20  23
ENDBRANCH   7  17
TORSDOF 5
ENDMDL
MODEL 4
REMARK VINA RESULT:      -7.1      3.257      4.641
REMARK  5 active torsions:
REMARK  status: ('A' for Active; 'I' for Inactive)
REMARK    1  A    between atoms: N2_6  and  C3_7 
REMARK    2  A    between atoms: C3_7  and  C4_8 
REMARK    3  A    between atoms: C4_8  and  C5_9 
REMARK    4  A    between atoms: C11_15  and  C12_16 
REMARK    5  A    between atoms: C15_19  and  O3_20 
ROOT
HETATM    1  O1  UNL     1      21.934   1.251  49.863  1.00  0.00    -0.270 OA
HETATM    2  C1  UNL     1      22.560   1.995  50.666  1.00  0.00     0.253 C 
HETATM    3  N1  UNL     1      21.999   2.812  51.711  1.00  0.00    -0.277 N 
HETATM    4  C2  UNL     1      22.926   3.864  51.972  1.00  0.00     0.326 C 
HETATM    5  O2  UNL     1      22.762   4.769  52.829  1.00  0.00    -0.247 OA
HETATM    6  N2  UNL     1      24.040   3.674  51.085  1.00  0.00    -0.316 N 
HETATM    7  C11 UNL     1      24.035   2.252  50.785  1.00  0.00     0.214 C 
HETATM    8  H1  UNL     1      21.063   2.636  52.177  1.00  0.00     0.173 HD
ENDROOT
BRANCH   6   9
HETATM    9  C3  UNL     1      24.928   4.749  50.641  1.00  0.00     0.133 C 
BRANCH   9  10
HETATM   10  C4  UNL     1      25.319   4.408  49.207  1.00  0.00     0.058 C 
BRANCH  10  11
HETATM   11  C5  UNL     1      26.466   5.225  48.795  1.00  0.00    -0.057 A 
HETATM   12  C6  UNL     1      26.242   6.570  48.495  1.00  0.00     0.007 A 
HETATM   13  C7  UNL     1      27.226   7.456  48.095  1.00  0.00     0.001 A 
HETATM   14  C8  UNL     1      28.510   6.980  47.984  1.00  0.00     0.000 A 
HETATM   15  C9  UNL     1      28.752   5.643  48.277  1.00  0.00     0.001 A 
HETATM   16  C10 UNL     1      27.763   4.773  48.675  1.00  0.00     0.007 A 
ENDBRANCH  10  11
ENDBRANCH   9  10
ENDBRANCH   6   9
BRANCH   7  17
HETATM   17  C12 UNL     1      24.588   1.518  51.971  1.00  0.00    -0.026 A 
HETATM   18  C13 UNL     1      23.886   0.509  52.597  1.00  0.00     0.012 A 
HETATM   19  C14 UNL     1      24.504  -0.099  53.691  1.00  0.00     0.037 A 
HETATM   20  C15 UNL     1      25.755   0.299  54.117  1.00  0.00     0.065 A 
HETATM   21  C16 UNL     1      26.447   1.312  53.482  1.00  0.00     0.037 A 
HETATM   22  C17 UNL     1      25.839   1.914  52.400  1.00  0.00     0.012 A 
BRANCH  20  23
HETATM   23  O3  UNL     1      26.393  -0.292  55.206  1.00  0.00    -0.361 OA
HETATM   24  H14 UNL     1      26.919   0.265  55.880  1.00  0.00     0.217 HD
ENDBRANCH  20  23
ENDBRANCH   7  17
TORSDOF 5
ENDMDL
MODEL 5
REMARK VINA RESULT:      -7.0      2.149      5.153
REMARK  5 active torsions:
REMARK  status: ('A' for Active; 'I' for Inactive)
REMARK    1  A    between atoms: N2_6  and  C3_7 
REMARK    2  A    between atoms: C3_7  and  C4_8 
REMARK    3  A    between atoms: C4_8  and  C5_9 
REMARK    4  A    between atoms: C11_15  and  C12_16 
REMARK    5  A    between atoms: C15_19  and  O3_20 
ROOT
HETATM    1  O1  UNL     1      23.761   4.793  53.551  1.00  0.00    -0.270 OA
HETATM    2  C1  UNL     1      24.060   4.000  52.618  1.00  0.00     0.253 C 
HETATM    3  N1  UNL     1      24.675   4.331  51.358  1.00  0.00    -0.277 N 
HETATM    4  C2  UNL     1      24.320   3.310  50.430  1.00  0.00     0.326 C 
HETATM    5  O2  UNL     1      24.684   3.276  49.227  1.00  0.00    -0.247 OA
HETATM    6  N2  UNL     1      23.495   2.368  51.133  1.00  0.00    -0.316 N 
HETATM    7  C11 UNL     1      23.877   2.511  52.528  1.00  0.00     0.214 C 
HETATM    8  H1  UNL     1      25.275   5.189  51.188  1.00  0.00     0.173 HD
ENDROOT
BRANCH   6   9
HETATM    9  C3  UNL     1      22.511   1.497  50.488  1.00  0.00     0.133 C 
BRANCH   9  10
HETATM   10  C4  UNL     1      21.266   1.544  51.368  1.00  0.00     0.058 C 
BRANCH  10  11
HETATM   11  C5  UNL     1      21.401   0.593  52.477  1.00  0.00    -0.057 A 
HETATM   12  C6  UNL     1      20.782   0.904  53.689  1.00  0.00     0.007 A 
HETATM   13  C7  UNL     1      20.825   0.104  54.817  1.00  0.00     0.001 A 
HETATM   14  C8  UNL     1      21.524  -1.076  54.739  1.00  0.00     0.000 A 
HETATM   15  C9  UNL     1      22.148  -1.402  53.539  1.00  0.00     0.001 A 
HETATM   16  C10 UNL     1      22.096  -0.597  52.426  1.00  0.00     0.007 A 
ENDBRANCH  10  11
ENDBRANCH   9  10
ENDBRANCH   6   9
BRANCH   7  17
HETATM   17  C12 UNL     1      25.195   1.822  52.728  1.00  0.00    -0.026 A 
HETATM   18  C13 UNL     1      25.557   0.712  51.995  1.00  0.00     0.012 A 
HETATM   19  C14 UNL     1      26.808   0.158  52.272  1.00  0.00     0.037 A 
HETATM   20  C15 UNL     1      27.633   0.703  53.235  1.00  0.00     0.065 A 
HETATM   21  C16 UNL     1      27.258   1.816  53.964  1.00  0.00     0.037 A 
HETATM   22  C17 UNL     1      26.022   2.365  53.691  1.00  0.00     0.012 A 
BRANCH  20  23
HETATM   23  O3  UNL     1      28.886   0.170  53.530  1.00  0.00    -0.361 OA
HETATM   24  H14 UNL     1      29.268   0.202  54.476  1.00  0.00     0.217 HD
ENDBRANCH  20  23
ENDBRANCH   7  17
TORSDOF 5
ENDMDL
MODEL 6
REMARK VINA RESULT:      -6.9      2.856      4.122
REMARK  5 active torsions:
REMARK  status: ('A' for Active; 'I' for Inactive)
REMARK    1  A    between atoms: N2_6  and  C3_7 
REMARK    2  A    between atoms: C3_7  and  C4_8 
REMARK    3  A    between atoms: C4_8  and  C5_9 
REMARK    4  A    between atoms: C11_15  and  C12_16 
REMARK    5  A    between atoms: C15_19  and  O3_20 
ROOT
HETATM    1  O1  UNL     1      21.578   2.221  48.212  1.00  0.00    -0.270 OA
HETATM    2  C1  UNL     1      21.983   2.652  49.326  1.00  0.00     0.253 C 
HETATM    3  N1  UNL     1      21.308   3.577  50.199  1.00  0.00    -0.277 N 
HETATM    4  C2  UNL     1      22.302   4.205  51.004  1.00  0.00     0.326 C 
HETATM    5  O2  UNL     1      22.070   5.073  51.884  1.00  0.00    -0.247 OA
HETATM    6  N2  UNL     1      23.570   3.655  50.615  1.00  0.00    -0.316 N 
HETATM    7  C11 UNL     1      23.253   2.346  50.068  1.00  0.00     0.214 C 
HETATM    8  H1  UNL     1      20.259   3.737  50.211  1.00  0.00     0.173 HD
ENDROOT
BRANCH   6   9
HETATM    9  C3  UNL     1      24.849   4.347  50.778  1.00  0.00     0.133 C 
BRANCH   9  10
HETATM   10  C4  UNL     1      25.752   3.834  49.660  1.00  0.00     0.058 C 
BRANCH  10  11
HETATM   11  C5  UNL     1      26.475   4.954  49.048  1.00  0.00    -0.057 A 
HETATM   12  C6  UNL     1      27.813   4.762  48.700  1.00  0.00     0.007 A 
HETATM   13  C7  UNL     1      28.616   5.726  48.117  1.00  0.00     0.001 A 
HETATM   14  C8  UNL     1      28.058   6.956  47.863  1.00  0.00     0.000 A 
HETATM   15  C9  UNL     1      26.727   7.166  48.203  1.00  0.00     0.001 A 
HETATM   16  C10 UNL     1      25.940   6.197  48.781  1.00  0.00     0.007 A 
ENDBRANCH  10  11
ENDBRANCH   9  10
ENDBRANCH   6   9
BRANCH   7  17
HETATM   17  C12 UNL     1      22.966   1.416  51.210  1.00  0.00    -0.026 A 
HETATM   18  C13 UNL     1      21.796   0.690  51.283  1.00  0.00     0.012 A 
HETATM   19  C14 UNL     1      21.642  -0.142  52.394  1.00  0.00     0.037 A 
HETATM   20  C15 UNL     1      22.621  -0.225  53.364  1.00  0.00     0.065 A 
HETATM   21  C16 UNL     1      23.789   0.508  53.278  1.00  0.00     0.037 A 
HETATM   22  C17 UNL     1      23.943   1.331  52.181  1.00  0.00     0.012 A 
BRANCH  20  23
HETATM   23  O3  UNL     1      22.492  -1.048  54.482  1.00  0.00    -0.361 OA
HETATM   24  H14 UNL     1      22.830  -2.011  54.473  1.00  0.00     0.217 HD
ENDBRANCH  20  23
ENDBRANCH   7  17
TORSDOF 5
ENDMDL
MODEL 7
REMARK VINA RESULT:      -6.8      2.340      6.136
REMARK  5 active torsions:
REMARK  status: ('A' for Active; 'I' for Inactive)
REMARK    1  A    between atoms: N2_6  and  C3_7 
REMARK    2  A    between atoms: C3_7  and  C4_8 
REMARK    3  A    between atoms: C4_8  and  C5_9 
REMARK    4  A    between atoms: C11_15  and  C12_16 
REMARK    5  A    between atoms: C15_19  and  O3_20 
ROOT
HETATM    1  O1  UNL     1      24.386   4.649  51.353  1.00  0.00    -0.270 OA
HETATM    2  C1  UNL     1      23.874   3.496  51.343  1.00  0.00     0.253 C 
HETATM    3  N1  UNL     1      23.477   2.732  50.189  1.00  0.00    -0.277 N 
HETATM    4  C2  UNL     1      22.477   1.809  50.614  1.00  0.00     0.326 C 
HETATM    5  O2  UNL     1      21.902   0.979  49.865  1.00  0.00    -0.247 OA
HETATM    6  N2  UNL     1      22.279   2.020  52.020  1.00  0.00    -0.316 N 
HETATM    7  C11 UNL     1      23.531   2.588  52.489  1.00  0.00     0.214 C 
HETATM    8  H1  UNL     1      23.875   2.861  49.214  1.00  0.00     0.173 HD
ENDROOT
BRANCH   6   9
HETATM    9  C3  UNL     1      21.041   1.697  52.732  1.00  0.00     0.133 C 
BRANCH   9  10
HETATM   10  C4  UNL     1      20.970   0.174  52.784  1.00  0.00     0.058 C 
BRANCH  10  11
HETATM   11  C5  UNL     1      19.585  -0.268  52.591  1.00  0.00    -0.057 A 
HETATM   12  C6  UNL     1      19.076  -1.238  53.458  1.00  0.00     0.007 A 
HETATM   13  C7  UNL     1      17.792  -1.748  53.394  1.00  0.00     0.001 A 
HETATM   14  C8  UNL     1      16.960  -1.267  52.412  1.00  0.00     0.000 A 
HETATM   15  C9  UNL     1      17.449  -0.301  51.540  1.00  0.00     0.001 A 
HETATM   16  C10 UNL     1      18.729   0.197  51.615  1.00  0.00     0.007 A 
ENDBRANCH  10  11
ENDBRANCH   9  10
ENDBRANCH   6   9
BRANCH   7  17
HETATM   17  C12 UNL     1      24.543   1.484  52.587  1.00  0.00    -0.026 A 
HETATM   18  C13 UNL     1      25.719   1.507  51.867  1.00  0.00     0.012 A 
HETATM   19  C14 UNL     1      26.581   0.422  52.040  1.00  0.00     0.037 A 
HETATM   20  C15 UNL     1      26.260  -0.616  52.892  1.00  0.00     0.065 A 
HETATM   21  C16 UNL     1      25.078  -0.626  53.607  1.00  0.00     0.037 A 
HETATM   22  C17 UNL     1      24.225   0.445  53.437  1.00  0.00     0.012 A 
BRANCH  20  23
HETATM   23  O3  UNL     1      27.103  -1.709  53.084  1.00  0.00    -0.361 OA
HETATM   24  H14 UNL     1      27.962  -1.818  52.543  1.00  0.00     0.217 HD
ENDBRANCH  20  23
ENDBRANCH   7  17
TORSDOF 5
ENDMDL
MODEL 8
REMARK VINA RESULT:      -6.6      8.907     11.851
REMARK  5 active torsions:
REMARK  status: ('A' for Active; 'I' for Inactive)
REMARK    1  A    between atoms: N2_6  and  C3_7 
REMARK    2  A    between atoms: C3_7  and  C4_8 
REMARK    3  A    between atoms: C4_8  and  C5_9 
REMARK    4  A    between atoms: C11_15  and  C12_16 
REMARK    5  A    between atoms: C15_19  and  O3_20 
ROOT
HETATM    1  O1  UNL     1      31.896   5.976  50.276  1.00  0.00    -0.270 OA
HETATM    2  C1  UNL     1      31.651   7.069  49.696  1.00  0.00     0.253 C 
HETATM    3  N1  UNL     1      31.638   8.383  50.286  1.00  0.00    -0.277 N 
HETATM    4  C2  UNL     1      30.798   9.204  49.478  1.00  0.00     0.326 C 
HETATM    5  O2  UNL     1      30.556  10.418  49.697  1.00  0.00    -0.247 OA
HETATM    6  N2  UNL     1      30.311   8.382  48.406  1.00  0.00    -0.316 N 
HETATM    7  C11 UNL     1      31.310   7.337  48.258  1.00  0.00     0.214 C 
HETATM    8  H1  UNL     1      32.167   8.654  51.164  1.00  0.00     0.173 HD
ENDROOT
BRANCH   6   9
HETATM    9  C3  UNL     1      29.063   8.632  47.682  1.00  0.00     0.133 C 
BRANCH   9  10
HETATM   10  C4  UNL     1      28.704   7.318  46.995  1.00  0.00     0.058 C 
BRANCH  10  11
HETATM   11  C5  UNL     1      27.718   6.588  47.799  1.00  0.00    -0.057 A 
HETATM   12  C6  UNL     1      28.085   5.345  48.320  1.00  0.00     0.007 A 
HETATM   13  C7  UNL     1      27.262   4.548  49.094  1.00  0.00     0.001 A 
HETATM   14  C8  UNL     1      25.997   5.009  49.368  1.00  0.00     0.000 A 
HETATM   15  C9  UNL     1      25.613   6.244  48.857  1.00  0.00     0.001 A 
HETATM   16  C10 UNL     1      26.444   7.027  48.089  1.00  0.00     0.007 A 
ENDBRANCH  10  11
ENDBRANCH   9  10
ENDBRANCH   6   9
BRANCH   7  17
HETATM   17  C12 UNL     1      32.498   7.917  47.550  1.00  0.00    -0.026 A 
HETATM   18  C13 UNL     1      32.363   8.770  46.474  1.00  0.00     0.012 A 
HETATM   19  C14 UNL     1      33.542   9.245  45.898  1.00  0.00     0.037 A 
HETATM   20  C15 UNL     1      34.778   8.873  46.390  1.00  0.00     0.065 A 
HETATM   21  C16 UNL     1      34.899   8.017  47.468  1.00  0.00     0.037 A 
HETATM   22  C17 UNL     1      33.734   7.546  48.039  1.00  0.00     0.012 A 
BRANCH  20  23
HETATM   23  O3  UNL     1      35.969   9.333  45.833  1.00  0.00    -0.361 OA
HETATM   24  H14 UNL     1      36.826   8.781  45.882  1.00  0.00     0.217 HD
ENDBRANCH  20  23
ENDBRANCH   7  17
TORSDOF 5
ENDMDL
MODEL 9
REMARK VINA RESULT:      -6.6      9.394     12.300
REMARK  5 active torsions:
REMARK  status: ('A' for Active; 'I' for Inactive)
REMARK    1  A    between atoms: N2_6  and  C3_7 
REMARK    2  A    between atoms: C3_7  and  C4_8 
REMARK    3  A    between atoms: C4_8  and  C5_9 
REMARK    4  A    between atoms: C11_15  and  C12_16 
REMARK    5  A    between atoms: C15_19  and  O3_20 
ROOT
HETATM    1  O1  UNL     1      35.084   3.352  47.537  1.00  0.00    -0.270 OA
HETATM    2  C1  UNL     1      34.467   4.446  47.421  1.00  0.00     0.253 C 
HETATM    3  N1  UNL     1      34.986   5.767  47.659  1.00  0.00    -0.277 N 
HETATM    4  C2  UNL     1      33.880   6.611  47.965  1.00  0.00     0.326 C 
HETATM    5  O2  UNL     1      33.963   7.838  48.228  1.00  0.00    -0.247 OA
HETATM    6  N2  UNL     1      32.699   5.795  47.910  1.00  0.00    -0.316 N 
HETATM    7  C11 UNL     1      33.045   4.705  47.012  1.00  0.00     0.214 C 
HETATM    8  H1  UNL     1      36.013   6.029  47.608  1.00  0.00     0.173 HD
ENDROOT
BRANCH   6   9
HETATM    9  C3  UNL     1      31.464   6.088  48.639  1.00  0.00     0.133 C 
BRANCH   9  10
HETATM   10  C4  UNL     1      30.404   5.152  48.067  1.00  0.00     0.058 C 
BRANCH  10  11
HETATM   11  C5  UNL     1      29.101   5.824  48.049  1.00  0.00    -0.057 A 
HETATM   12  C6  UNL     1      28.004   5.148  48.587  1.00  0.00     0.007 A 
HETATM   13  C7  UNL     1      26.719   5.657  48.638  1.00  0.00     0.001 A 
HETATM   14  C8  UNL     1      26.508   6.915  48.125  1.00  0.00     0.000 A 
HETATM   15  C9  UNL     1      27.588   7.603  47.584  1.00  0.00     0.001 A 
HETATM   16  C10 UNL     1      28.861   7.083  47.541  1.00  0.00     0.007 A 
ENDBRANCH  10  11
ENDBRANCH   9  10
ENDBRANCH   6   9
BRANCH   7  17
HETATM   17  C12 UNL     1      33.004   5.223  45.605  1.00  0.00    -0.026 A 
HETATM   18  C13 UNL     1      32.386   6.413  45.282  1.00  0.00     0.012 A 
HETATM   19  C14 UNL     1      32.414   6.790  43.938  1.00  0.00     0.037 A 
HETATM   20  C15 UNL     1      33.033   6.003  42.988  1.00  0.00     0.065 A 
HETATM   21  C16 UNL     1      33.648   4.812  43.325  1.00  0.00     0.037 A 
HETATM   22  C17 UNL     1      33.622   4.438  44.653  1.00  0.00     0.012 A 
BRANCH  20  23
HETATM   23  O3  UNL     1      33.075   6.357  41.641  1.00  0.00    -0.361 OA
HETATM   24  H14 UNL     1      33.790   6.989  41.281  1.00  0.00     0.217 HD
ENDBRANCH  20  23
ENDBRANCH   7  17
TORSDOF 5
ENDMDL
