MODEL 1
REMARK VINA RESULT:      -8.4      0.000      0.000
REMARK  7 active torsions:
REMARK  status: ('A' for Active; 'I' for Inactive)
REMARK    1  A    between atoms: C2_2  and  C3_3 
REMARK    2  A    between atoms: C3_3  and  C4_4 
REMARK    3  A    between atoms: C4_4  and  C5_5 
REMARK    4  A    between atoms: C5_5  and  C6_6 
REMARK       I    between atoms: C6_6  and  N1_8 
REMARK    5  A    between atoms: N1_8  and  C7_9 
REMARK    6  A    between atoms: N2_14  and  C12_15 
REMARK    7  A    between atoms: C15_19  and  C16_20 
ROOT
HETATM    1  C7  UNL     1      24.123  -0.004  53.405  1.00  0.00     0.126 A 
HETATM    2  C8  UNL     1      23.903  -0.736  54.477  1.00  0.00     0.049 A 
HETATM    3  C9  UNL     1      22.617  -1.014  55.052  1.00  0.00     0.001 A 
HETATM    4  C10 UNL     1      21.582  -0.482  54.448  1.00  0.00    -0.006 A 
HETATM    5  C11 UNL     1      21.678   0.355  53.258  1.00  0.00     0.176 A 
HETATM    6  N2  UNL     1      23.010   0.537  52.727  1.00  0.00    -0.161 N 
ENDROOT
BRANCH   6   7
HETATM    7  C12 UNL     1      23.018   1.294  51.497  1.00  0.00     0.731 A 
HETATM    8  N3  UNL     1      21.966   1.116  50.679  1.00  0.00    -0.075 NA
HETATM    9  C13 UNL     1      21.821   1.743  49.483  1.00  0.00     0.139 A 
HETATM   10  C14 UNL     1      22.792   2.614  49.054  1.00  0.00     0.053 A 
HETATM   11  C15 UNL     1      23.852   2.771  49.913  1.00  0.00     0.089 A 
HETATM   12  N5  UNL     1      23.940   2.130  51.077  1.00  0.00    -0.062 NA
BRANCH  11  13
HETATM   13  C16 UNL     1      24.933   3.672  49.543  1.00  0.00     0.011 A 
HETATM   14  C17 UNL     1      24.756   4.973  49.128  1.00  0.00     0.017 A 
HETATM   15  C18 UNL     1      25.791   5.816  48.779  1.00  0.00     0.020 A 
HETATM   16  C19 UNL     1      27.089   5.363  48.836  1.00  0.00     0.116 A 
HETATM   17  N4  UNL     1      27.298   4.075  49.243  1.00  0.00    -0.272 NA
HETATM   18  C20 UNL     1      26.256   3.288  49.575  1.00  0.00     0.130 A 
ENDBRANCH  11  13
ENDBRANCH   6   7
BRANCH   1  19
HETATM   19  N1  UNL     1      25.405   0.245  52.879  1.00  0.00    -0.312 N 
HETATM   20  C6  UNL     1      26.347   1.211  53.302  1.00  0.00     0.223 C 
HETATM   21  O1  UNL     1      26.161   2.013  54.246  1.00  0.00    -0.273 OA
HETATM   22  H12 UNL     1      25.872  -0.225  52.096  1.00  0.00     0.170 HD
BRANCH  20  23
HETATM   23  C5  UNL     1      27.701   1.528  52.799  1.00  0.00     0.103 C 
BRANCH  23  24
HETATM   24  C4  UNL     1      28.610   1.601  54.014  1.00  0.00     0.009 C 
BRANCH  24  25
HETATM   25  C3  UNL     1      29.031   0.256  54.497  1.00  0.00     0.000 C 
BRANCH  25  26
HETATM   26  C2  UNL     1      29.812  -0.529  53.466  1.00  0.00    -0.005 C 
HETATM   27  C1  UNL     1      29.184  -1.887  53.256  1.00  0.00     0.005 C 
ENDBRANCH  25  26
ENDBRANCH  24  25
ENDBRANCH  23  24
ENDBRANCH  20  23
ENDBRANCH   1  19
TORSDOF 7
ENDMDL
MODEL 2
REMARK VINA RESULT:      -8.1      1.821      6.197
REMARK  7 active torsions:
REMARK  status: ('A' for Active; 'I' for Inactive)
REMARK    1  A    between atoms: C2_2  and  C3_3 
REMARK    2  A    between atoms: C3_3  and  C4_4 
REMARK    3  A    between atoms: C4_4  and  C5_5 
REMARK    4  A    between atoms: C5_5  and  C6_6 
REMARK       I    between atoms: C6_6  and  N1_8 
REMARK    5  A    between atoms: N1_8  and  C7_9 
REMARK    6  A    between atoms: N2_14  and  C12_15 
REMARK    7  A    between atoms: C15_19  and  C16_20 
ROOT
HETATM    1  C7  UNL     1      26.984   1.880  53.426  1.00  0.00     0.126 A 
HETATM    2  C8  UNL     1      28.258   2.210  53.395  1.00  0.00     0.049 A 
HETATM    3  C9  UNL     1      29.324   1.499  54.042  1.00  0.00     0.001 A 
HETATM    4  C10 UNL     1      28.983   0.433  54.724  1.00  0.00    -0.006 A 
HETATM    5  C11 UNL     1      27.611  -0.045  54.851  1.00  0.00     0.176 A 
HETATM    6  N2  UNL     1      26.616   0.710  54.124  1.00  0.00    -0.161 N 
ENDROOT
BRANCH   6   7
HETATM    7  C12 UNL     1      25.299   0.125  54.217  1.00  0.00     0.731 A 
HETATM    8  N3  UNL     1      25.112  -0.772  55.201  1.00  0.00    -0.075 NA
HETATM    9  C13 UNL     1      23.939  -1.422  55.423  1.00  0.00     0.139 A 
HETATM   10  C14 UNL     1      22.863  -1.170  54.608  1.00  0.00     0.053 A 
HETATM   11  C15 UNL     1      23.089  -0.250  53.615  1.00  0.00     0.089 A 
HETATM   12  N5  UNL     1      24.262   0.358  53.445  1.00  0.00    -0.062 NA
BRANCH  11  13
HETATM   13  C16 UNL     1      22.007   0.080  52.698  1.00  0.00     0.011 A 
HETATM   14  C17 UNL     1      22.180   0.688  51.476  1.00  0.00     0.017 A 
HETATM   15  C18 UNL     1      21.144   0.997  50.618  1.00  0.00     0.020 A 
HETATM   16  C19 UNL     1      19.849   0.695  50.974  1.00  0.00     0.116 A 
HETATM   17  N4  UNL     1      19.645   0.092  52.183  1.00  0.00    -0.272 NA
HETATM   18  C20 UNL     1      20.687  -0.192  52.988  1.00  0.00     0.130 A 
ENDBRANCH  11  13
ENDBRANCH   6   7
BRANCH   1  19
HETATM   19  N1  UNL     1      25.970   2.612  52.778  1.00  0.00    -0.312 N 
HETATM   20  C6  UNL     1      25.808   2.833  51.391  1.00  0.00     0.223 C 
HETATM   21  O1  UNL     1      26.578   2.388  50.509  1.00  0.00    -0.273 OA
HETATM   22  H12 UNL     1      25.182   3.113  53.200  1.00  0.00     0.170 HD
BRANCH  20  23
HETATM   23  C5  UNL     1      24.776   3.585  50.646  1.00  0.00     0.103 C 
BRANCH  23  24
HETATM   24  C4  UNL     1      25.454   4.141  49.406  1.00  0.00     0.009 C 
BRANCH  24  25
HETATM   25  C3  UNL     1      25.675   5.612  49.484  1.00  0.00     0.000 C 
BRANCH  25  26
HETATM   26  C2  UNL     1      26.813   6.091  48.610  1.00  0.00    -0.005 C 
HETATM   27  C1  UNL     1      27.901   5.044  48.548  1.00  0.00     0.005 C 
ENDBRANCH  25  26
ENDBRANCH  24  25
ENDBRANCH  23  24
ENDBRANCH  20  23
ENDBRANCH   1  19
TORSDOF 7
ENDMDL
MODEL 3
REMARK VINA RESULT:      -8.1      2.386      6.070
REMARK  7 active torsions:
REMARK  status: ('A' for Active; 'I' for Inactive)
REMARK    1  A    between atoms: C2_2  and  C3_3 
REMARK    2  A    between atoms: C3_3  and  C4_4 
REMARK    3  A    between atoms: C4_4  and  C5_5 
REMARK    4  A    between atoms: C5_5  and  C6_6 
REMARK       I    between atoms: C6_6  and  N1_8 
REMARK    5  A    between atoms: N1_8  and  C7_9 
REMARK    6  A    between atoms: N2_14  and  C12_15 
REMARK    7  A    between atoms: C15_19  and  C16_20 
ROOT
HETATM    1  C7  UNL     1      21.904   1.107  50.260  1.00  0.00     0.126 A 
HETATM    2  C8  UNL     1      21.232   1.198  49.132  1.00  0.00     0.049 A 
HETATM    3  C9  UNL     1      21.593   2.009  48.004  1.00  0.00     0.001 A 
HETATM    4  C10 UNL     1      22.688   2.719  48.125  1.00  0.00    -0.006 A 
HETATM    5  C11 UNL     1      23.526   2.723  49.318  1.00  0.00     0.176 A 
HETATM    6  N2  UNL     1      23.105   1.837  50.380  1.00  0.00    -0.161 N 
ENDROOT
BRANCH   6   7
HETATM    7  C12 UNL     1      24.032   1.820  51.488  1.00  0.00     0.731 A 
HETATM    8  N3  UNL     1      23.915   2.819  52.380  1.00  0.00    -0.075 NA
HETATM    9  C13 UNL     1      24.711   2.957  53.473  1.00  0.00     0.139 A 
HETATM   10  C14 UNL     1      25.705   2.039  53.706  1.00  0.00     0.053 A 
HETATM   11  C15 UNL     1      25.796   1.034  52.775  1.00  0.00     0.089 A 
HETATM   12  N5  UNL     1      24.986   0.947  51.721  1.00  0.00    -0.062 NA
BRANCH  11  13
HETATM   13  C16 UNL     1      26.822   0.014  52.935  1.00  0.00     0.011 A 
HETATM   14  C17 UNL     1      28.128   0.270  53.286  1.00  0.00     0.017 A 
HETATM   15  C18 UNL     1      29.091  -0.707  53.432  1.00  0.00     0.020 A 
HETATM   16  C19 UNL     1      28.761  -2.027  53.223  1.00  0.00     0.116 A 
HETATM   17  N4  UNL     1      27.472  -2.315  52.873  1.00  0.00    -0.272 NA
HETATM   18  C20 UNL     1      26.565  -1.327  52.742  1.00  0.00     0.130 A 
ENDBRANCH  11  13
ENDBRANCH   6   7
BRANCH   1  19
HETATM   19  N1  UNL     1      21.508   0.300  51.343  1.00  0.00    -0.312 N 
HETATM   20  C6  UNL     1      20.408   0.486  52.212  1.00  0.00     0.223 C 
HETATM   21  O1  UNL     1      19.599   1.439  52.133  1.00  0.00    -0.273 OA
HETATM   22  H12 UNL     1      21.952  -0.557  51.692  1.00  0.00     0.170 HD
BRANCH  20  23
HETATM   23  C5  UNL     1      19.937  -0.314  53.363  1.00  0.00     0.103 C 
BRANCH  23  24
HETATM   24  C4  UNL     1      20.892  -0.033  54.509  1.00  0.00     0.009 C 
BRANCH  24  25
HETATM   25  C3  UNL     1      21.816  -1.171  54.777  1.00  0.00     0.000 C 
BRANCH  25  26
HETATM   26  C2  UNL     1      23.253  -0.870  54.412  1.00  0.00    -0.005 C 
HETATM   27  C1  UNL     1      24.171  -1.237  55.555  1.00  0.00     0.005 C 
ENDBRANCH  25  26
ENDBRANCH  24  25
ENDBRANCH  23  24
ENDBRANCH  20  23
ENDBRANCH   1  19
TORSDOF 7
ENDMDL
MODEL 4
REMARK VINA RESULT:      -8.1      1.850      5.666
REMARK  7 active torsions:
REMARK  status: ('A' for Active; 'I' for Inactive)
REMARK    1  A    between atoms: C2_2  and  C3_3 
REMARK    2  A    between atoms: C3_3  and  C4_4 
REMARK    3  A    between atoms: C4_4  and  C5_5 
REMARK    4  A    between atoms: C5_5  and  C6_6 
REMARK       I    between atoms: C6_6  and  N1_8 
REMARK    5  A    between atoms: N1_8  and  C7_9 
REMARK    6  A    between atoms: N2_14  and  C12_15 
REMARK    7  A    between atoms: C15_19  and  C16_20 
ROOT
HETATM    1  C7  UNL     1      26.163   3.786  49.770  1.00  0.00     0.126 A 
HETATM    2  C8  UNL     1      27.207   4.254  49.119  1.00  0.00     0.049 A 
HETATM    3  C9  UNL     1      27.325   5.571  48.561  1.00  0.00     0.001 A 
HETATM    4  C10 UNL     1      26.294   6.365  48.718  1.00  0.00    -0.006 A 
HETATM    5  C11 UNL     1      25.070   5.978  49.410  1.00  0.00     0.176 A 
HETATM    6  N2  UNL     1      25.066   4.649  49.978  1.00  0.00    -0.161 N 
ENDROOT
BRANCH   6   7
HETATM    7  C12 UNL     1      23.864   4.371  50.729  1.00  0.00     0.731 A 
HETATM    8  N3  UNL     1      23.013   5.398  50.895  1.00  0.00    -0.075 NA
HETATM    9  C13 UNL     1      21.843   5.310  51.581  1.00  0.00     0.139 A 
HETATM   10  C14 UNL     1      21.483   4.115  52.153  1.00  0.00     0.053 A 
HETATM   11  C15 UNL     1      22.375   3.088  51.963  1.00  0.00     0.089 A 
HETATM   12  N5  UNL     1      23.508   3.232  51.279  1.00  0.00    -0.062 NA
BRANCH  11  13
HETATM   13  C16 UNL     1      22.081   1.783  52.535  1.00  0.00     0.011 A 
HETATM   14  C17 UNL     1      23.013   0.789  52.729  1.00  0.00     0.017 A 
HETATM   15  C18 UNL     1      22.718  -0.446  53.271  1.00  0.00     0.020 A 
HETATM   16  C19 UNL     1      21.427  -0.735  53.649  1.00  0.00     0.116 A 
HETATM   17  N4  UNL     1      20.478   0.231  53.468  1.00  0.00    -0.272 NA
HETATM   18  C20 UNL     1      20.812   1.423  52.936  1.00  0.00     0.130 A 
ENDBRANCH  11  13
ENDBRANCH   6   7
BRANCH   1  19
HETATM   19  N1  UNL     1      26.090   2.482  50.297  1.00  0.00    -0.312 N 
HETATM   20  C6  UNL     1      26.771   1.958  51.419  1.00  0.00     0.223 C 
HETATM   21  O1  UNL     1      27.570   2.610  52.130  1.00  0.00    -0.273 OA
HETATM   22  H12 UNL     1      25.536   1.690  49.955  1.00  0.00     0.170 HD
BRANCH  20  23
HETATM   23  C5  UNL     1      26.743   0.609  52.025  1.00  0.00     0.103 C 
BRANCH  23  24
HETATM   24  C4  UNL     1      26.728   0.809  53.530  1.00  0.00     0.009 C 
BRANCH  24  25
HETATM   25  C3  UNL     1      27.613  -0.153  54.245  1.00  0.00     0.000 C 
BRANCH  25  26
HETATM   26  C2  UNL     1      29.085   0.081  53.980  1.00  0.00    -0.005 C 
HETATM   27  C1  UNL     1      29.760  -1.216  53.597  1.00  0.00     0.005 C 
ENDBRANCH  25  26
ENDBRANCH  24  25
ENDBRANCH  23  24
ENDBRANCH  20  23
ENDBRANCH   1  19
TORSDOF 7
ENDMDL
MODEL 5
REMARK VINA RESULT:      -8.1      2.111      5.795
REMARK  7 active torsions:
REMARK  status: ('A' for Active; 'I' for Inactive)
REMARK    1  A    between atoms: C2_2  and  C3_3 
REMARK    2  A    between atoms: C3_3  and  C4_4 
REMARK    3  A    between atoms: C4_4  and  C5_5 
REMARK    4  A    between atoms: C5_5  and  C6_6 
REMARK       I    between atoms: C6_6  and  N1_8 
REMARK    5  A    between atoms: N1_8  and  C7_9 
REMARK    6  A    between atoms: N2_14  and  C12_15 
REMARK    7  A    between atoms: C15_19  and  C16_20 
ROOT
HETATM    1  C7  UNL     1      21.212   0.782  52.177  1.00  0.00     0.126 A 
HETATM    2  C8  UNL     1      19.990   0.322  52.342  1.00  0.00     0.049 A 
HETATM    3  C9  UNL     1      19.598  -0.697  53.274  1.00  0.00     0.001 A 
HETATM    4  C10 UNL     1      20.550  -1.206  54.016  1.00  0.00    -0.006 A 
HETATM    5  C11 UNL     1      21.948  -0.798  53.935  1.00  0.00     0.176 A 
HETATM    6  N2  UNL     1      22.236   0.267  53.001  1.00  0.00    -0.161 N 
ENDROOT
BRANCH   6   7
HETATM    7  C12 UNL     1      23.618   0.684  53.045  1.00  0.00     0.731 A 
HETATM    8  N3  UNL     1      23.842   2.010  53.043  1.00  0.00    -0.075 NA
HETATM    9  C13 UNL     1      25.080   2.570  53.072  1.00  0.00     0.139 A 
HETATM   10  C14 UNL     1      26.187   1.759  53.103  1.00  0.00     0.053 A 
HETATM   11  C15 UNL     1      25.922   0.412  53.103  1.00  0.00     0.089 A 
HETATM   12  N5  UNL     1      24.685  -0.081  53.075  1.00  0.00    -0.062 NA
BRANCH  11  13
HETATM   13  C16 UNL     1      27.034  -0.527  53.132  1.00  0.00     0.011 A 
HETATM   14  C17 UNL     1      28.315  -0.206  53.518  1.00  0.00     0.017 A 
HETATM   15  C18 UNL     1      29.360  -1.107  53.538  1.00  0.00     0.020 A 
HETATM   16  C19 UNL     1      29.144  -2.411  53.156  1.00  0.00     0.116 A 
HETATM   17  N4  UNL     1      27.883  -2.761  52.767  1.00  0.00    -0.272 NA
HETATM   18  C20 UNL     1      26.892  -1.847  52.763  1.00  0.00     0.130 A 
ENDBRANCH  11  13
ENDBRANCH   6   7
BRANCH   1  19
HETATM   19  N1  UNL     1      21.553   1.781  51.245  1.00  0.00    -0.312 N 
HETATM   20  C6  UNL     1      21.721   1.647  49.848  1.00  0.00     0.223 C 
HETATM   21  O1  UNL     1      21.583   0.573  49.219  1.00  0.00    -0.273 OA
HETATM   22  H12 UNL     1      21.743   2.774  51.420  1.00  0.00     0.170 HD
BRANCH  20  23
HETATM   23  C5  UNL     1      22.076   2.645  48.815  1.00  0.00     0.103 C 
BRANCH  23  24
HETATM   24  C4  UNL     1      23.007   3.645  49.479  1.00  0.00     0.009 C 
BRANCH  24  25
HETATM   25  C3  UNL     1      24.429   3.201  49.461  1.00  0.00     0.000 C 
BRANCH  25  26
HETATM   26  C2  UNL     1      25.404   4.314  49.780  1.00  0.00    -0.005 C 
HETATM   27  C1  UNL     1      26.802   3.921  49.361  1.00  0.00     0.005 C 
ENDBRANCH  25  26
ENDBRANCH  24  25
ENDBRANCH  23  24
ENDBRANCH  20  23
ENDBRANCH   1  19
TORSDOF 7
ENDMDL
MODEL 6
REMARK VINA RESULT:      -7.9      1.971      5.891
REMARK  7 active torsions:
REMARK  status: ('A' for Active; 'I' for Inactive)
REMARK    1  A    between atoms: C2_2  and  C3_3 
REMARK    2  A    between atoms: C3_3  and  C4_4 
REMARK    3  A    between atoms: C4_4  and  C5_5 
REMARK    4  A    between atoms: C5_5  and  C6_6 
REMARK       I    between atoms: C6_6  and  N1_8 
REMARK    5  A    between atoms: N1_8  and  C7_9 
REMARK    6  A    between atoms: N2_14  and  C12_15 
REMARK    7  A    between atoms: C15_19  and  C16_20 
ROOT
HETATM    1  C7  UNL     1      26.863   2.066  53.028  1.00  0.00     0.126 A 
HETATM    2  C8  UNL     1      28.166   2.120  53.207  1.00  0.00     0.049 A 
HETATM    3  C9  UNL     1      28.940   1.209  54.003  1.00  0.00     0.001 A 
HETATM    4  C10 UNL     1      28.278   0.249  54.600  1.00  0.00    -0.006 A 
HETATM    5  C11 UNL     1      26.834   0.073  54.496  1.00  0.00     0.176 A 
HETATM    6  N2  UNL     1      26.150   1.011  53.634  1.00  0.00    -0.161 N 
ENDROOT
BRANCH   6   7
HETATM    7  C12 UNL     1      24.742   0.717  53.503  1.00  0.00     0.731 A 
HETATM    8  N3  UNL     1      24.354  -0.521  53.853  1.00  0.00    -0.075 NA
HETATM    9  C13 UNL     1      23.071  -0.963  53.783  1.00  0.00     0.139 A 
HETATM   10  C14 UNL     1      22.089  -0.118  53.330  1.00  0.00     0.053 A 
HETATM   11  C15 UNL     1      22.520   1.138  52.981  1.00  0.00     0.089 A 
HETATM   12  N5  UNL     1      23.793   1.518  53.072  1.00  0.00    -0.062 NA
BRANCH  11  13
HETATM   13  C16 UNL     1      21.551   2.105  52.485  1.00  0.00     0.011 A 
HETATM   14  C17 UNL     1      21.877   3.326  51.940  1.00  0.00     0.017 A 
HETATM   15  C18 UNL     1      20.946   4.233  51.475  1.00  0.00     0.020 A 
HETATM   16  C19 UNL     1      19.605   3.933  51.547  1.00  0.00     0.116 A 
HETATM   17  N4  UNL     1      19.249   2.729  52.085  1.00  0.00    -0.272 NA
HETATM   18  C20 UNL     1      20.193   1.873  52.525  1.00  0.00     0.130 A 
ENDBRANCH  11  13
ENDBRANCH   6   7
BRANCH   1  19
HETATM   19  N1  UNL     1      26.144   2.986  52.241  1.00  0.00    -0.312 N 
HETATM   20  C6  UNL     1      26.188   3.152  50.837  1.00  0.00     0.223 C 
HETATM   21  O1  UNL     1      26.905   2.472  50.067  1.00  0.00    -0.273 OA
HETATM   22  H12 UNL     1      25.471   3.696  52.550  1.00  0.00     0.170 HD
BRANCH  20  23
HETATM   23  C5  UNL     1      25.466   4.090  49.950  1.00  0.00     0.103 C 
BRANCH  23  24
HETATM   24  C4  UNL     1      24.305   3.315  49.352  1.00  0.00     0.009 C 
BRANCH  24  25
HETATM   25  C3  UNL     1      23.351   4.192  48.614  1.00  0.00     0.000 C 
BRANCH  25  26
HETATM   26  C2  UNL     1      22.249   3.421  47.920  1.00  0.00    -0.005 C 
HETATM   27  C1  UNL     1      22.276   1.972  48.346  1.00  0.00     0.005 C 
ENDBRANCH  25  26
ENDBRANCH  24  25
ENDBRANCH  23  24
ENDBRANCH  20  23
ENDBRANCH   1  19
TORSDOF 7
ENDMDL
MODEL 7
REMARK VINA RESULT:      -7.9      1.646      5.529
REMARK  7 active torsions:
REMARK  status: ('A' for Active; 'I' for Inactive)
REMARK    1  A    between atoms: C2_2  and  C3_3 
REMARK    2  A    between atoms: C3_3  and  C4_4 
REMARK    3  A    between atoms: C4_4  and  C5_5 
REMARK    4  A    between atoms: C5_5  and  C6_6 
REMARK       I    between atoms: C6_6  and  N1_8 
REMARK    5  A    between atoms: N1_8  and  C7_9 
REMARK    6  A    between atoms: N2_14  and  C12_15 
REMARK    7  A    between atoms: C15_19  and  C16_20 
ROOT
HETATM    1  C7  UNL     1      24.667   4.161  50.586  1.00  0.00     0.126 A 
HETATM    2  C8  UNL     1      25.167   5.267  50.078  1.00  0.00     0.049 A 
HETATM    3  C9  UNL     1      24.673   5.954  48.918  1.00  0.00     0.001 A 
HETATM    4  C10 UNL     1      23.637   5.418  48.321  1.00  0.00    -0.006 A 
HETATM    5  C11 UNL     1      22.987   4.192  48.768  1.00  0.00     0.176 A 
HETATM    6  N2  UNL     1      23.526   3.601  49.972  1.00  0.00    -0.161 N 
ENDROOT
BRANCH   6   7
HETATM    7  C12 UNL     1      22.774   2.448  50.409  1.00  0.00     0.731 A 
HETATM    8  N3  UNL     1      21.756   2.065  49.619  1.00  0.00    -0.075 NA
HETATM    9  C13 UNL     1      20.944   1.008  49.886  1.00  0.00     0.139 A 
HETATM   10  C14 UNL     1      21.150   0.269  51.025  1.00  0.00     0.053 A 
HETATM   11  C15 UNL     1      22.197   0.688  51.808  1.00  0.00     0.089 A 
HETATM   12  N5  UNL     1      22.962   1.733  51.495  1.00  0.00    -0.062 NA
BRANCH  11  13
HETATM   13  C16 UNL     1      22.491  -0.031  53.038  1.00  0.00     0.011 A 
HETATM   14  C17 UNL     1      23.759  -0.270  53.517  1.00  0.00     0.017 A 
HETATM   15  C18 UNL     1      24.023  -0.956  54.686  1.00  0.00     0.020 A 
HETATM   16  C19 UNL     1      22.981  -1.445  55.440  1.00  0.00     0.116 A 
HETATM   17  N4  UNL     1      21.710  -1.225  54.991  1.00  0.00    -0.272 NA
HETATM   18  C20 UNL     1      21.500  -0.549  53.844  1.00  0.00     0.130 A 
ENDBRANCH  11  13
ENDBRANCH   6   7
BRANCH   1  19
HETATM   19  N1  UNL     1      25.187   3.518  51.726  1.00  0.00    -0.312 N 
HETATM   20  C6  UNL     1      26.244   2.581  51.791  1.00  0.00     0.223 C 
HETATM   21  O1  UNL     1      26.891   2.176  50.798  1.00  0.00    -0.273 OA
HETATM   22  H12 UNL     1      24.886   3.615  52.702  1.00  0.00     0.170 HD
BRANCH  20  23
HETATM   23  C5  UNL     1      26.838   1.871  52.944  1.00  0.00     0.103 C 
BRANCH  23  24
HETATM   24  C4  UNL     1      27.278   0.509  52.435  1.00  0.00     0.009 C 
BRANCH  24  25
HETATM   25  C3  UNL     1      27.542  -0.457  53.539  1.00  0.00     0.000 C 
BRANCH  25  26
HETATM   26  C2  UNL     1      28.691  -1.397  53.246  1.00  0.00    -0.005 C 
HETATM   27  C1  UNL     1      30.007  -0.739  53.592  1.00  0.00     0.005 C 
ENDBRANCH  25  26
ENDBRANCH  24  25
ENDBRANCH  23  24
ENDBRANCH  20  23
ENDBRANCH   1  19
TORSDOF 7
ENDMDL
MODEL 8
REMARK VINA RESULT:      -7.9      2.267      6.615
REMARK  7 active torsions:
REMARK  status: ('A' for Active; 'I' for Inactive)
REMARK    1  A    between atoms: C2_2  and  C3_3 
REMARK    2  A    between atoms: C3_3  and  C4_4 
REMARK    3  A    between atoms: C4_4  and  C5_5 
REMARK    4  A    between atoms: C5_5  and  C6_6 
REMARK       I    between atoms: C6_6  and  N1_8 
REMARK    5  A    between atoms: N1_8  and  C7_9 
REMARK    6  A    between atoms: N2_14  and  C12_15 
REMARK    7  A    between atoms: C15_19  and  C16_20 
ROOT
HETATM    1  C7  UNL     1      26.832   1.875  53.469  1.00  0.00     0.126 A 
HETATM    2  C8  UNL     1      28.090   2.217  53.293  1.00  0.00     0.049 A 
HETATM    3  C9  UNL     1      29.232   1.443  53.691  1.00  0.00     0.001 A 
HETATM    4  C10 UNL     1      28.984   0.301  54.283  1.00  0.00    -0.006 A 
HETATM    5  C11 UNL     1      27.641  -0.200  54.550  1.00  0.00     0.176 A 
HETATM    6  N2  UNL     1      26.558   0.627  54.069  1.00  0.00    -0.161 N 
ENDROOT
BRANCH   6   7
HETATM    7  C12 UNL     1      25.263   0.024  54.282  1.00  0.00     0.731 A 
HETATM    8  N3  UNL     1      25.162  -0.824  55.320  1.00  0.00    -0.075 NA
HETATM    9  C13 UNL     1      24.022  -1.482  55.655  1.00  0.00     0.139 A 
HETATM   10  C14 UNL     1      22.887  -1.292  54.905  1.00  0.00     0.053 A 
HETATM   11  C15 UNL     1      23.026  -0.421  53.852  1.00  0.00     0.089 A 
HETATM   12  N5  UNL     1      24.171   0.198  53.572  1.00  0.00    -0.062 NA
BRANCH  11  13
HETATM   13  C16 UNL     1      21.878  -0.158  52.997  1.00  0.00     0.011 A 
HETATM   14  C17 UNL     1      21.959   0.310  51.705  1.00  0.00     0.017 A 
HETATM   15  C18 UNL     1      20.861   0.556  50.907  1.00  0.00     0.020 A 
HETATM   16  C19 UNL     1      19.595   0.333  51.399  1.00  0.00     0.116 A 
HETATM   17  N4  UNL     1      19.481  -0.130  52.679  1.00  0.00    -0.272 NA
HETATM   18  C20 UNL     1      20.582  -0.358  53.422  1.00  0.00     0.130 A 
ENDBRANCH  11  13
ENDBRANCH   6   7
BRANCH   1  19
HETATM   19  N1  UNL     1      25.741   2.670  53.066  1.00  0.00    -0.312 N 
HETATM   20  C6  UNL     1      25.307   2.948  51.750  1.00  0.00     0.223 C 
HETATM   21  O1  UNL     1      25.858   2.506  50.715  1.00  0.00    -0.273 OA
HETATM   22  H12 UNL     1      25.081   3.187  53.656  1.00  0.00     0.170 HD
BRANCH  20  23
HETATM   23  C5  UNL     1      24.180   3.768  51.255  1.00  0.00     0.103 C 
BRANCH  23  24
HETATM   24  C4  UNL     1      23.330   4.114  52.466  1.00  0.00     0.009 C 
BRANCH  24  25
HETATM   25  C3  UNL     1      22.087   4.851  52.102  1.00  0.00     0.000 C 
BRANCH  25  26
HETATM   26  C2  UNL     1      20.865   3.961  52.036  1.00  0.00    -0.005 C 
HETATM   27  C1  UNL     1      20.152   4.148  50.717  1.00  0.00     0.005 C 
ENDBRANCH  25  26
ENDBRANCH  24  25
ENDBRANCH  23  24
ENDBRANCH  20  23
ENDBRANCH   1  19
TORSDOF 7
ENDMDL
MODEL 9
REMARK VINA RESULT:      -7.5      2.391      5.638
REMARK  7 active torsions:
REMARK  status: ('A' for Active; 'I' for Inactive)
REMARK    1  A    between atoms: C2_2  and  C3_3 
REMARK    2  A    between atoms: C3_3  and  C4_4 
REMARK    3  A    between atoms: C4_4  and  C5_5 
REMARK    4  A    between atoms: C5_5  and  C6_6 
REMARK       I    between atoms: C6_6  and  N1_8 
REMARK    5  A    between atoms: N1_8  and  C7_9 
REMARK    6  A    between atoms: N2_14  and  C12_15 
REMARK    7  A    between atoms: C15_19  and  C16_20 
ROOT
HETATM    1  C7  UNL     1      20.036   2.196  51.711  1.00  0.00     0.126 A 
HETATM    2  C8  UNL     1      18.951   2.613  51.096  1.00  0.00     0.049 A 
HETATM    3  C9  UNL     1      17.773   1.829  50.850  1.00  0.00     0.001 A 
HETATM    4  C10 UNL     1      17.798   0.591  51.278  1.00  0.00    -0.006 A 
HETATM    5  C11 UNL     1      18.935  -0.007  51.968  1.00  0.00     0.176 A 
HETATM    6  N2  UNL     1      20.054   0.876  52.211  1.00  0.00    -0.161 N 
ENDROOT
BRANCH   6   7
HETATM    7  C12 UNL     1      21.100   0.246  52.981  1.00  0.00     0.731 A 
HETATM    8  N3  UNL     1      20.704  -0.533  54.002  1.00  0.00    -0.075 NA
HETATM    9  C13 UNL     1      21.557  -1.191  54.830  1.00  0.00     0.139 A 
HETATM   10  C14 UNL     1      22.911  -1.071  54.640  1.00  0.00     0.053 A 
HETATM   11  C15 UNL     1      23.281  -0.268  53.589  1.00  0.00     0.089 A 
HETATM   12  N5  UNL     1      22.398   0.353  52.808  1.00  0.00    -0.062 NA
BRANCH  11  13
HETATM   13  C16 UNL     1      24.696  -0.077  53.310  1.00  0.00     0.011 A 
HETATM   14  C17 UNL     1      25.191   0.682  52.274  1.00  0.00     0.017 A 
HETATM   15  C18 UNL     1      26.537   0.853  52.020  1.00  0.00     0.020 A 
HETATM   16  C19 UNL     1      27.467   0.243  52.831  1.00  0.00     0.116 A 
HETATM   17  N4  UNL     1      27.007  -0.518  53.868  1.00  0.00    -0.272 NA
HETATM   18  C20 UNL     1      25.683  -0.656  54.078  1.00  0.00     0.130 A 
ENDBRANCH  11  13
ENDBRANCH   6   7
BRANCH   1  19
HETATM   19  N1  UNL     1      21.172   3.001  51.927  1.00  0.00    -0.312 N 
HETATM   20  C6  UNL     1      22.244   3.248  51.040  1.00  0.00     0.223 C 
HETATM   21  O1  UNL     1      22.336   2.763  49.889  1.00  0.00    -0.273 OA
HETATM   22  H12 UNL     1      21.418   3.539  52.765  1.00  0.00     0.170 HD
BRANCH  20  23
HETATM   23  C5  UNL     1      23.460   4.075  51.198  1.00  0.00     0.103 C 
BRANCH  23  24
HETATM   24  C4  UNL     1      24.429   3.634  50.115  1.00  0.00     0.009 C 
BRANCH  24  25
HETATM   25  C3  UNL     1      25.715   4.386  50.156  1.00  0.00     0.000 C 
BRANCH  25  26
HETATM   26  C2  UNL     1      26.783   3.789  49.266  1.00  0.00    -0.005 C 
HETATM   27  C1  UNL     1      27.645   4.882  48.677  1.00  0.00     0.005 C 
ENDBRANCH  25  26
ENDBRANCH  24  25
ENDBRANCH  23  24
ENDBRANCH  20  23
ENDBRANCH   1  19
TORSDOF 7
ENDMDL
