MODEL 1
REMARK VINA RESULT:      -8.4      0.000      0.000
REMARK  7 active torsions:
REMARK  status: ('A' for Active; 'I' for Inactive)
REMARK    1  A    between atoms: C1_2  and  C2_3 
REMARK       I    between atoms: C1_2  and  N4_22 
REMARK    2  A    between atoms: C2_3  and  C3_4 
REMARK    3  A    between atoms: C8_11  and  N3_12 
REMARK    4  A    between atoms: N3_12  and  C9_13 
REMARK    5  A    between atoms: N4_22  and  C17_23 
REMARK    6  A    between atoms: C17_23  and  C18_24 
REMARK    7  A    between atoms: C18_24  and  N5_25 
ROOT
HETATM    1  C3  UNL     1      20.665   0.340  51.698  1.00  0.00    -0.048 A 
HETATM    2  C4  UNL     1      19.835  -0.176  52.662  1.00  0.00     0.010 A 
HETATM    3  C5  UNL     1      20.327  -0.719  53.830  1.00  0.00     0.033 A 
HETATM    4  C6  UNL     1      21.678  -0.779  54.108  1.00  0.00     0.072 A 
HETATM    5  N1  UNL     1      22.117  -1.308  55.270  1.00  0.00    -0.241 NA
HETATM    6  C7  UNL     1      23.469  -1.325  55.488  1.00  0.00     0.236 A 
HETATM    7  N2  UNL     1      24.330  -0.825  54.560  1.00  0.00    -0.224 NA
HETATM    8  C8  UNL     1      23.879  -0.301  53.404  1.00  0.00     0.142 A 
HETATM    9  C15 UNL     1      22.515  -0.265  53.148  1.00  0.00     0.039 A 
HETATM   10  C16 UNL     1      22.039   0.287  51.962  1.00  0.00     0.025 A 
ENDROOT
BRANCH   1  11
HETATM   11  C2  UNL     1      20.449   0.983  50.376  1.00  0.00     0.141 C 
BRANCH  11  12
HETATM   12  C1  UNL     1      20.639   2.440  50.438  1.00  0.00     0.221 C 
HETATM   13  O1  UNL     1      21.100   2.486  49.250  1.00  0.00    -0.273 OA
HETATM   14  N4  UNL     1      20.437   3.481  51.370  1.00  0.00    -0.359 N 
HETATM   15  H12 UNL     1      20.076   2.928  52.205  1.00  0.00     0.162 HD
BRANCH  14  16
HETATM   16  C17 UNL     1      20.772   4.797  50.928  1.00  0.00     0.152 C 
BRANCH  16  17
HETATM   17  C18 UNL     1      21.908   5.458  51.657  1.00  0.00     0.292 C 
BRANCH  17  18
HETATM   18  N5  UNL     1      23.191   5.370  51.016  1.00  0.00     0.094 N 
HETATM   19  C19 UNL     1      23.959   4.269  51.507  1.00  0.00     0.298 C 
HETATM   20  C20 UNL     1      24.288   3.238  50.461  1.00  0.00     0.198 C 
HETATM   21  O2  UNL     1      24.905   3.769  49.360  1.00  0.00    -0.388 OA
HETATM   22  C21 UNL     1      24.510   5.023  48.993  1.00  0.00     0.198 C 
HETATM   23  C22 UNL     1      23.149   5.349  49.605  1.00  0.00     0.298 C 
ENDBRANCH  17  18
ENDBRANCH  16  17
ENDBRANCH  14  16
ENDBRANCH  11  12
ENDBRANCH   1  11
BRANCH   8  24
HETATM   24  N3  UNL     1      24.824   0.224  52.452  1.00  0.00    -0.340 N 
HETATM   25  H6  UNL     1      24.619   0.375  51.433  1.00  0.00     0.167 HD
BRANCH  24  26
HETATM   26  C9  UNL     1      26.136   0.566  52.877  1.00  0.00     0.035 A 
HETATM   27  C10 UNL     1      26.418   1.870  53.216  1.00  0.00     0.029 A 
HETATM   28  C11 UNL     1      27.681   2.292  53.649  1.00  0.00     0.004 A 
HETATM   29  C12 UNL     1      28.709   1.369  53.747  1.00  0.00     0.019 A 
HETATM   30  C13 UNL     1      28.410   0.068  53.406  1.00  0.00     0.013 A 
HETATM   31 BR1  UNL     1      29.847  -1.207  53.555  1.00  0.00    -0.051 Br
HETATM   32  C14 UNL     1      27.170  -0.351  52.980  1.00  0.00     0.048 A 
ENDBRANCH  24  26
ENDBRANCH   8  24
TORSDOF 7
ENDMDL
MODEL 2
REMARK VINA RESULT:      -8.2      3.066      5.899
REMARK  7 active torsions:
REMARK  status: ('A' for Active; 'I' for Inactive)
REMARK    1  A    between atoms: C1_2  and  C2_3 
REMARK       I    between atoms: C1_2  and  N4_22 
REMARK    2  A    between atoms: C2_3  and  C3_4 
REMARK    3  A    between atoms: C8_11  and  N3_12 
REMARK    4  A    between atoms: N3_12  and  C9_13 
REMARK    5  A    between atoms: N4_22  and  C17_23 
REMARK    6  A    between atoms: C17_23  and  C18_24 
REMARK    7  A    between atoms: C18_24  and  N5_25 
ROOT
HETATM    1  C3  UNL     1      20.953   0.126  53.284  1.00  0.00    -0.048 A 
HETATM    2  C4  UNL     1      19.757  -0.150  52.670  1.00  0.00     0.010 A 
HETATM    3  C5  UNL     1      19.513   0.205  51.360  1.00  0.00     0.033 A 
HETATM    4  C6  UNL     1      20.449   0.857  50.583  1.00  0.00     0.072 A 
HETATM    5  N1  UNL     1      20.174   1.175  49.299  1.00  0.00    -0.241 NA
HETATM    6  C7  UNL     1      21.151   1.810  48.580  1.00  0.00     0.236 A 
HETATM    7  N2  UNL     1      22.353   2.104  49.148  1.00  0.00    -0.224 NA
HETATM    8  C8  UNL     1      22.614   1.782  50.429  1.00  0.00     0.142 A 
HETATM    9  C15 UNL     1      21.648   1.137  51.190  1.00  0.00     0.039 A 
HETATM   10  C16 UNL     1      21.914   0.788  52.511  1.00  0.00     0.025 A 
ENDROOT
BRANCH   1  11
HETATM   11  C2  UNL     1      21.509  -0.127  54.639  1.00  0.00     0.141 C 
BRANCH  11  12
HETATM   12  C1  UNL     1      22.915  -0.551  54.582  1.00  0.00     0.221 C 
HETATM   13  O1  UNL     1      22.701  -1.552  55.345  1.00  0.00    -0.273 OA
HETATM   14  N4  UNL     1      24.114  -0.119  53.975  1.00  0.00    -0.359 N 
HETATM   15  H12 UNL     1      23.776   0.762  53.482  1.00  0.00     0.162 HD
BRANCH  14  16
HETATM   16  C17 UNL     1      25.270  -0.922  54.218  1.00  0.00     0.152 C 
BRANCH  16  17
HETATM   17  C18 UNL     1      26.227  -1.048  53.065  1.00  0.00     0.292 C 
BRANCH  17  18
HETATM   18  N5  UNL     1      27.393  -0.211  53.133  1.00  0.00     0.094 N 
HETATM   19  C19 UNL     1      27.178   1.054  52.505  1.00  0.00     0.298 C 
HETATM   20  C20 UNL     1      27.296   2.228  53.440  1.00  0.00     0.198 C 
HETATM   21  O2  UNL     1      28.484   2.253  54.122  1.00  0.00    -0.388 OA
HETATM   22  C21 UNL     1      29.007   1.041  54.467  1.00  0.00     0.198 C 
HETATM   23  C22 UNL     1      27.922  -0.033  54.430  1.00  0.00     0.298 C 
ENDBRANCH  17  18
ENDBRANCH  16  17
ENDBRANCH  14  16
ENDBRANCH  11  12
ENDBRANCH   1  11
BRANCH   8  24
HETATM   24  N3  UNL     1      23.902   2.106  50.989  1.00  0.00    -0.340 N 
HETATM   25  H6  UNL     1      24.385   1.543  51.733  1.00  0.00     0.167 HD
BRANCH  24  26
HETATM   26  C9  UNL     1      24.594   3.261  50.538  1.00  0.00     0.035 A 
HETATM   27  C10 UNL     1      25.747   3.113  49.799  1.00  0.00     0.029 A 
HETATM   28  C11 UNL     1      26.489   4.196  49.312  1.00  0.00     0.004 A 
HETATM   29  C12 UNL     1      26.060   5.486  49.575  1.00  0.00     0.019 A 
HETATM   30  C13 UNL     1      24.904   5.617  50.314  1.00  0.00     0.013 A 
HETATM   31 BR1  UNL     1      24.313   7.418  50.664  1.00  0.00    -0.051 Br
HETATM   32  C14 UNL     1      24.172   4.556  50.795  1.00  0.00     0.048 A 
ENDBRANCH  24  26
ENDBRANCH   8  24
TORSDOF 7
ENDMDL
MODEL 3
REMARK VINA RESULT:      -8.1      2.932      5.119
REMARK  7 active torsions:
REMARK  status: ('A' for Active; 'I' for Inactive)
REMARK    1  A    between atoms: C1_2  and  C2_3 
REMARK       I    between atoms: C1_2  and  N4_22 
REMARK    2  A    between atoms: C2_3  and  C3_4 
REMARK    3  A    between atoms: C8_11  and  N3_12 
REMARK    4  A    between atoms: N3_12  and  C9_13 
REMARK    5  A    between atoms: N4_22  and  C17_23 
REMARK    6  A    between atoms: C17_23  and  C18_24 
REMARK    7  A    between atoms: C18_24  and  N5_25 
ROOT
HETATM    1  C3  UNL     1      24.120  -0.399  53.660  1.00  0.00    -0.048 A 
HETATM    2  C4  UNL     1      24.852  -0.656  54.792  1.00  0.00     0.010 A 
HETATM    3  C5  UNL     1      26.091  -0.089  55.001  1.00  0.00     0.033 A 
HETATM    4  C6  UNL     1      26.675   0.771  54.093  1.00  0.00     0.072 A 
HETATM    5  N1  UNL     1      27.886   1.315  54.342  1.00  0.00    -0.241 NA
HETATM    6  C7  UNL     1      28.403   2.169  53.405  1.00  0.00     0.236 A 
HETATM    7  N2  UNL     1      27.712   2.453  52.267  1.00  0.00    -0.224 NA
HETATM    8  C8  UNL     1      26.506   1.903  52.029  1.00  0.00     0.142 A 
HETATM    9  C15 UNL     1      25.950   1.033  52.957  1.00  0.00     0.039 A 
HETATM   10  C16 UNL     1      24.697   0.470  52.726  1.00  0.00     0.025 A 
ENDROOT
BRANCH   1  11
HETATM   11  C2  UNL     1      22.790  -0.834  53.160  1.00  0.00     0.141 C 
BRANCH  11  12
HETATM   12  C1  UNL     1      21.845   0.288  53.068  1.00  0.00     0.221 C 
HETATM   13  O1  UNL     1      21.511   0.179  54.294  1.00  0.00    -0.273 OA
HETATM   14  N4  UNL     1      21.395   1.197  52.087  1.00  0.00    -0.359 N 
HETATM   15  H12 UNL     1      21.940   0.855  51.239  1.00  0.00     0.162 HD
BRANCH  14  16
HETATM   16  C17 UNL     1      20.436   2.165  52.515  1.00  0.00     0.152 C 
BRANCH  16  17
HETATM   17  C18 UNL     1      20.871   3.600  52.411  1.00  0.00     0.292 C 
BRANCH  17  18
HETATM   18  N5  UNL     1      20.289   4.347  51.331  1.00  0.00     0.094 N 
HETATM   19  C19 UNL     1      21.161   4.421  50.201  1.00  0.00     0.298 C 
HETATM   20  C20 UNL     1      20.607   3.777  48.959  1.00  0.00     0.198 C 
HETATM   21  O2  UNL     1      19.371   4.254  48.612  1.00  0.00    -0.388 OA
HETATM   22  C21 UNL     1      18.543   4.589  49.644  1.00  0.00     0.198 C 
HETATM   23  C22 UNL     1      19.005   3.913  50.933  1.00  0.00     0.298 C 
ENDBRANCH  17  18
ENDBRANCH  16  17
ENDBRANCH  14  16
ENDBRANCH  11  12
ENDBRANCH   1  11
BRANCH   8  24
HETATM   24  N3  UNL     1      25.807   2.235  50.814  1.00  0.00    -0.340 N 
HETATM   25  H6  UNL     1      25.238   1.555  50.251  1.00  0.00     0.167 HD
BRANCH  24  26
HETATM   26  C9  UNL     1      25.871   3.560  50.305  1.00  0.00     0.035 A 
HETATM   27  C10 UNL     1      26.822   3.877  49.362  1.00  0.00     0.029 A 
HETATM   28  C11 UNL     1      26.952   5.155  48.805  1.00  0.00     0.004 A 
HETATM   29  C12 UNL     1      26.092   6.163  49.210  1.00  0.00     0.019 A 
HETATM   30  C13 UNL     1      25.145   5.829  50.154  1.00  0.00     0.013 A 
HETATM   31 BR1  UNL     1      23.950   7.238  50.702  1.00  0.00    -0.051 Br
HETATM   32  C14 UNL     1      25.014   4.574  50.704  1.00  0.00     0.048 A 
ENDBRANCH  24  26
ENDBRANCH   8  24
TORSDOF 7
ENDMDL
MODEL 4
REMARK VINA RESULT:      -7.9      4.106      5.990
REMARK  7 active torsions:
REMARK  status: ('A' for Active; 'I' for Inactive)
REMARK    1  A    between atoms: C1_2  and  C2_3 
REMARK       I    between atoms: C1_2  and  N4_22 
REMARK    2  A    between atoms: C2_3  and  C3_4 
REMARK    3  A    between atoms: C8_11  and  N3_12 
REMARK    4  A    between atoms: N3_12  and  C9_13 
REMARK    5  A    between atoms: N4_22  and  C17_23 
REMARK    6  A    between atoms: C17_23  and  C18_24 
REMARK    7  A    between atoms: C18_24  and  N5_25 
ROOT
HETATM    1  C3  UNL     1      25.522   4.355  49.352  1.00  0.00    -0.048 A 
HETATM    2  C4  UNL     1      24.282   4.152  48.799  1.00  0.00     0.010 A 
HETATM    3  C5  UNL     1      23.294   3.457  49.464  1.00  0.00     0.033 A 
HETATM    4  C6  UNL     1      23.483   2.923  50.723  1.00  0.00     0.072 A 
HETATM    5  N1  UNL     1      22.484   2.259  51.345  1.00  0.00    -0.241 NA
HETATM    6  C7  UNL     1      22.735   1.765  52.597  1.00  0.00     0.236 A 
HETATM    7  N2  UNL     1      23.951   1.942  53.184  1.00  0.00    -0.224 NA
HETATM    8  C8  UNL     1      24.939   2.604  52.553  1.00  0.00     0.142 A 
HETATM    9  C15 UNL     1      24.722   3.120  51.283  1.00  0.00     0.039 A 
HETATM   10  C16 UNL     1      25.733   3.818  50.628  1.00  0.00     0.025 A 
ENDROOT
BRANCH   1  11
HETATM   11  C2  UNL     1      26.758   5.048  48.907  1.00  0.00     0.141 C 
BRANCH  11  12
HETATM   12  C1  UNL     1      26.676   6.501  49.113  1.00  0.00     0.221 C 
HETATM   13  O1  UNL     1      26.960   6.746  47.894  1.00  0.00    -0.273 OA
HETATM   14  N4  UNL     1      26.405   7.392  50.174  1.00  0.00    -0.359 N 
HETATM   15  H12 UNL     1      26.267   6.705  50.975  1.00  0.00     0.162 HD
BRANCH  14  16
HETATM   16  C17 UNL     1      26.425   8.783  49.851  1.00  0.00     0.152 C 
BRANCH  16  17
HETATM   17  C18 UNL     1      27.714   9.499  50.142  1.00  0.00     0.292 C 
BRANCH  17  18
HETATM   18  N5  UNL     1      28.616   9.629  49.031  1.00  0.00     0.094 N 
HETATM   19  C19 UNL     1      28.973  10.992  48.790  1.00  0.00     0.298 C 
HETATM   20  C20 UNL     1      30.442  11.276  48.951  1.00  0.00     0.198 C 
HETATM   21  O2  UNL     1      31.234  10.456  48.191  1.00  0.00    -0.388 OA
HETATM   22  C21 UNL     1      30.792   9.175  48.027  1.00  0.00     0.198 C 
HETATM   23  C22 UNL     1      29.773   8.824  49.109  1.00  0.00     0.298 C 
ENDBRANCH  17  18
ENDBRANCH  16  17
ENDBRANCH  14  16
ENDBRANCH  11  12
ENDBRANCH   1  11
BRANCH   8  24
HETATM   24  N3  UNL     1      26.208   2.773  53.214  1.00  0.00    -0.340 N 
HETATM   25  H6  UNL     1      26.529   3.666  53.664  1.00  0.00     0.167 HD
BRANCH  24  26
HETATM   26  C9  UNL     1      27.119   1.685  53.276  1.00  0.00     0.035 A 
HETATM   27  C10 UNL     1      28.403   1.904  53.723  1.00  0.00     0.029 A 
HETATM   28  C11 UNL     1      29.363   0.889  53.820  1.00  0.00     0.004 A 
HETATM   29  C12 UNL     1      29.024  -0.403  53.454  1.00  0.00     0.019 A 
HETATM   30  C13 UNL     1      27.736  -0.605  53.009  1.00  0.00     0.013 A 
HETATM   31 BR1  UNL     1      27.276  -2.409  52.511  1.00  0.00    -0.051 Br
HETATM   32  C14 UNL     1      26.789   0.390  52.912  1.00  0.00     0.048 A 
ENDBRANCH  24  26
ENDBRANCH   8  24
TORSDOF 7
ENDMDL
MODEL 5
REMARK VINA RESULT:      -7.9      1.195      1.553
REMARK  7 active torsions:
REMARK  status: ('A' for Active; 'I' for Inactive)
REMARK    1  A    between atoms: C1_2  and  C2_3 
REMARK       I    between atoms: C1_2  and  N4_22 
REMARK    2  A    between atoms: C2_3  and  C3_4 
REMARK    3  A    between atoms: C8_11  and  N3_12 
REMARK    4  A    between atoms: N3_12  and  C9_13 
REMARK    5  A    between atoms: N4_22  and  C17_23 
REMARK    6  A    between atoms: C17_23  and  C18_24 
REMARK    7  A    between atoms: C18_24  and  N5_25 
ROOT
HETATM    1  C3  UNL     1      20.641   0.288  51.619  1.00  0.00    -0.048 A 
HETATM    2  C4  UNL     1      19.795  -0.166  52.599  1.00  0.00     0.010 A 
HETATM    3  C5  UNL     1      20.268  -0.676  53.790  1.00  0.00     0.033 A 
HETATM    4  C6  UNL     1      21.615  -0.763  54.075  1.00  0.00     0.072 A 
HETATM    5  N1  UNL     1      22.037  -1.257  55.259  1.00  0.00    -0.241 NA
HETATM    6  C7  UNL     1      23.387  -1.304  55.483  1.00  0.00     0.236 A 
HETATM    7  N2  UNL     1      24.264  -0.865  54.538  1.00  0.00    -0.224 NA
HETATM    8  C8  UNL     1      23.831  -0.375  53.361  1.00  0.00     0.142 A 
HETATM    9  C15 UNL     1      22.470  -0.311  53.099  1.00  0.00     0.039 A 
HETATM   10  C16 UNL     1      22.012   0.206  51.890  1.00  0.00     0.025 A 
ENDROOT
BRANCH   1  11
HETATM   11  C2  UNL     1      20.447   0.884  50.272  1.00  0.00     0.141 C 
BRANCH  11  12
HETATM   12  C1  UNL     1      21.231   2.115  50.100  1.00  0.00     0.221 C 
HETATM   13  O1  UNL     1      21.401   1.899  48.854  1.00  0.00    -0.273 OA
HETATM   14  N4  UNL     1      21.685   3.185  50.901  1.00  0.00    -0.359 N 
HETATM   15  H12 UNL     1      21.317   2.885  51.853  1.00  0.00     0.162 HD
BRANCH  14  16
HETATM   16  C17 UNL     1      22.430   4.203  50.231  1.00  0.00     0.152 C 
BRANCH  16  17
HETATM   17  C18 UNL     1      23.923   4.027  50.239  1.00  0.00     0.292 C 
BRANCH  17  18
HETATM   18  N5  UNL     1      24.661   4.954  49.427  1.00  0.00     0.094 N 
HETATM   19  C19 UNL     1      24.363   6.311  49.762  1.00  0.00     0.298 C 
HETATM   20  C20 UNL     1      25.547   7.090  50.269  1.00  0.00     0.198 C 
HETATM   21  O2  UNL     1      26.618   7.055  49.417  1.00  0.00    -0.388 OA
HETATM   22  C21 UNL     1      26.802   5.893  48.726  1.00  0.00     0.198 C 
HETATM   23  C22 UNL     1      26.058   4.748  49.411  1.00  0.00     0.298 C 
ENDBRANCH  17  18
ENDBRANCH  16  17
ENDBRANCH  14  16
ENDBRANCH  11  12
ENDBRANCH   1  11
BRANCH   8  24
HETATM   24  N3  UNL     1      24.794   0.084  52.392  1.00  0.00    -0.340 N 
HETATM   25  H6  UNL     1      24.616   0.138  51.358  1.00  0.00     0.167 HD
BRANCH  24  26
HETATM   26  C9  UNL     1      26.084   0.494  52.822  1.00  0.00     0.035 A 
HETATM   27  C10 UNL     1      26.310   1.820  53.115  1.00  0.00     0.029 A 
HETATM   28  C11 UNL     1      27.548   2.309  53.548  1.00  0.00     0.004 A 
HETATM   29  C12 UNL     1      28.610   1.432  53.695  1.00  0.00     0.019 A 
HETATM   30  C13 UNL     1      28.368   0.108  53.399  1.00  0.00     0.013 A 
HETATM   31 BR1  UNL     1      29.852  -1.102  53.617  1.00  0.00    -0.051 Br
HETATM   32  C14 UNL     1      27.152  -0.376  52.973  1.00  0.00     0.048 A 
ENDBRANCH  24  26
ENDBRANCH   8  24
TORSDOF 7
ENDMDL
MODEL 6
REMARK VINA RESULT:      -7.8      4.906      8.640
REMARK  7 active torsions:
REMARK  status: ('A' for Active; 'I' for Inactive)
REMARK    1  A    between atoms: C1_2  and  C2_3 
REMARK       I    between atoms: C1_2  and  N4_22 
REMARK    2  A    between atoms: C2_3  and  C3_4 
REMARK    3  A    between atoms: C8_11  and  N3_12 
REMARK    4  A    between atoms: N3_12  and  C9_13 
REMARK    5  A    between atoms: N4_22  and  C17_23 
REMARK    6  A    between atoms: C17_23  and  C18_24 
REMARK    7  A    between atoms: C18_24  and  N5_25 
ROOT
HETATM    1  C3  UNL     1      26.222   4.631  49.090  1.00  0.00    -0.048 A 
HETATM    2  C4  UNL     1      25.066   5.280  48.736  1.00  0.00     0.010 A 
HETATM    3  C5  UNL     1      25.065   6.601  48.341  1.00  0.00     0.033 A 
HETATM    4  C6  UNL     1      26.219   7.356  48.276  1.00  0.00     0.072 A 
HETATM    5  N1  UNL     1      26.176   8.644  47.872  1.00  0.00    -0.241 NA
HETATM    6  C7  UNL     1      27.359   9.331  47.819  1.00  0.00     0.236 A 
HETATM    7  N2  UNL     1      28.530   8.728  48.162  1.00  0.00    -0.224 NA
HETATM    8  C8  UNL     1      28.560   7.443  48.564  1.00  0.00     0.142 A 
HETATM    9  C15 UNL     1      27.380   6.714  48.630  1.00  0.00     0.039 A 
HETATM   10  C16 UNL     1      27.402   5.381  49.032  1.00  0.00     0.025 A 
ENDROOT
BRANCH   1  11
HETATM   11  C2  UNL     1      26.545   3.251  49.538  1.00  0.00     0.141 C 
BRANCH  11  12
HETATM   12  C1  UNL     1      25.976   2.958  50.861  1.00  0.00     0.221 C 
HETATM   13  O1  UNL     1      27.113   2.638  51.340  1.00  0.00    -0.273 OA
HETATM   14  N4  UNL     1      24.708   2.978  51.480  1.00  0.00    -0.359 N 
HETATM   15  H12 UNL     1      24.095   3.275  50.662  1.00  0.00     0.162 HD
BRANCH  14  16
HETATM   16  C17 UNL     1      24.673   2.609  52.860  1.00  0.00     0.152 C 
BRANCH  16  17
HETATM   17  C18 UNL     1      24.244   1.197  53.144  1.00  0.00     0.292 C 
BRANCH  17  18
HETATM   18  N5  UNL     1      25.190   0.396  53.871  1.00  0.00     0.094 N 
HETATM   19  C19 UNL     1      25.506  -0.815  53.181  1.00  0.00     0.298 C 
HETATM   20  C20 UNL     1      26.954  -0.936  52.791  1.00  0.00     0.198 C 
HETATM   21  O2  UNL     1      27.810  -0.778  53.848  1.00  0.00    -0.388 OA
HETATM   22  C21 UNL     1      27.426   0.115  54.807  1.00  0.00     0.198 C 
HETATM   23  C22 UNL     1      26.373   1.069  54.248  1.00  0.00     0.298 C 
ENDBRANCH  17  18
ENDBRANCH  16  17
ENDBRANCH  14  16
ENDBRANCH  11  12
ENDBRANCH   1  11
BRANCH   8  24
HETATM   24  N3  UNL     1      29.822   6.843  48.912  1.00  0.00    -0.340 N 
HETATM   25  H6  UNL     1      30.167   6.714  49.896  1.00  0.00     0.167 HD
BRANCH  24  26
HETATM   26  C9  UNL     1      30.691   6.386  47.886  1.00  0.00     0.035 A 
HETATM   27  C10 UNL     1      31.133   7.274  46.930  1.00  0.00     0.029 A 
HETATM   28  C11 UNL     1      31.993   6.910  45.887  1.00  0.00     0.004 A 
HETATM   29  C12 UNL     1      32.432   5.600  45.795  1.00  0.00     0.019 A 
HETATM   30  C13 UNL     1      31.981   4.724  46.759  1.00  0.00     0.013 A 
HETATM   31 BR1  UNL     1      32.606   2.906  46.623  1.00  0.00    -0.051 Br
HETATM   32  C14 UNL     1      31.135   5.078  47.785  1.00  0.00     0.048 A 
ENDBRANCH  24  26
ENDBRANCH   8  24
TORSDOF 7
ENDMDL
MODEL 7
REMARK VINA RESULT:      -7.7      5.849      9.147
REMARK  7 active torsions:
REMARK  status: ('A' for Active; 'I' for Inactive)
REMARK    1  A    between atoms: C1_2  and  C2_3 
REMARK       I    between atoms: C1_2  and  N4_22 
REMARK    2  A    between atoms: C2_3  and  C3_4 
REMARK    3  A    between atoms: C8_11  and  N3_12 
REMARK    4  A    between atoms: N3_12  and  C9_13 
REMARK    5  A    between atoms: N4_22  and  C17_23 
REMARK    6  A    between atoms: C17_23  and  C18_24 
REMARK    7  A    between atoms: C18_24  and  N5_25 
ROOT
HETATM    1  C3  UNL     1      27.757   6.809  48.551  1.00  0.00    -0.048 A 
HETATM    2  C4  UNL     1      27.558   8.095  48.986  1.00  0.00     0.010 A 
HETATM    3  C5  UNL     1      26.424   8.462  49.678  1.00  0.00     0.033 A 
HETATM    4  C6  UNL     1      25.418   7.567  49.979  1.00  0.00     0.072 A 
HETATM    5  N1  UNL     1      24.328   7.964  50.670  1.00  0.00    -0.241 NA
HETATM    6  C7  UNL     1      23.373   7.022  50.946  1.00  0.00     0.236 A 
HETATM    7  N2  UNL     1      23.528   5.734  50.534  1.00  0.00    -0.224 NA
HETATM    8  C8  UNL     1      24.619   5.350  49.845  1.00  0.00     0.142 A 
HETATM    9  C15 UNL     1      25.608   6.277  49.547  1.00  0.00     0.039 A 
HETATM   10  C16 UNL     1      26.746   5.887  48.845  1.00  0.00     0.025 A 
ENDROOT
BRANCH   1  11
HETATM   11  C2  UNL     1      28.844   6.118  47.810  1.00  0.00     0.141 C 
BRANCH  11  12
HETATM   12  C1  UNL     1      30.170   6.440  48.357  1.00  0.00     0.221 C 
HETATM   13  O1  UNL     1      30.267   5.309  48.939  1.00  0.00    -0.273 OA
HETATM   14  N4  UNL     1      31.076   7.522  48.328  1.00  0.00    -0.359 N 
HETATM   15  H12 UNL     1      30.524   8.225  47.751  1.00  0.00     0.162 HD
BRANCH  14  16
HETATM   16  C17 UNL     1      32.305   7.334  49.032  1.00  0.00     0.152 C 
BRANCH  16  17
HETATM   17  C18 UNL     1      33.471   6.887  48.196  1.00  0.00     0.292 C 
BRANCH  17  18
HETATM   18  N5  UNL     1      33.550   5.474  47.948  1.00  0.00     0.094 N 
HETATM   19  C19 UNL     1      33.254   5.153  46.587  1.00  0.00     0.298 C 
HETATM   20  C20 UNL     1      34.396   4.509  45.848  1.00  0.00     0.198 C 
HETATM   21  O2  UNL     1      34.888   3.398  46.482  1.00  0.00    -0.388 OA
HETATM   22  C21 UNL     1      34.877   3.429  47.847  1.00  0.00     0.198 C 
HETATM   23  C22 UNL     1      34.764   4.869  48.342  1.00  0.00     0.298 C 
ENDBRANCH  17  18
ENDBRANCH  16  17
ENDBRANCH  14  16
ENDBRANCH  11  12
ENDBRANCH   1  11
BRANCH   8  24
HETATM   24  N3  UNL     1      24.745   3.975  49.433  1.00  0.00    -0.340 N 
HETATM   25  H6  UNL     1      24.615   3.636  48.447  1.00  0.00     0.167 HD
BRANCH  24  26
HETATM   26  C9  UNL     1      25.058   2.978  50.395  1.00  0.00     0.035 A 
HETATM   27  C10 UNL     1      26.377   2.700  50.676  1.00  0.00     0.029 A 
HETATM   28  C11 UNL     1      26.773   1.737  51.612  1.00  0.00     0.004 A 
HETATM   29  C12 UNL     1      25.808   1.019  52.298  1.00  0.00     0.019 A 
HETATM   30  C13 UNL     1      24.493   1.311  52.006  1.00  0.00     0.013 A 
HETATM   31 BR1  UNL     1      23.161   0.310  52.975  1.00  0.00    -0.051 Br
HETATM   32  C14 UNL     1      24.099   2.256  51.087  1.00  0.00     0.048 A 
ENDBRANCH  24  26
ENDBRANCH   8  24
TORSDOF 7
ENDMDL
MODEL 8
REMARK VINA RESULT:      -7.6      5.452      9.278
REMARK  7 active torsions:
REMARK  status: ('A' for Active; 'I' for Inactive)
REMARK    1  A    between atoms: C1_2  and  C2_3 
REMARK       I    between atoms: C1_2  and  N4_22 
REMARK    2  A    between atoms: C2_3  and  C3_4 
REMARK    3  A    between atoms: C8_11  and  N3_12 
REMARK    4  A    between atoms: N3_12  and  C9_13 
REMARK    5  A    between atoms: N4_22  and  C17_23 
REMARK    6  A    between atoms: C17_23  and  C18_24 
REMARK    7  A    between atoms: C18_24  and  N5_25 
ROOT
HETATM    1  C3  UNL     1      26.073   6.151  49.385  1.00  0.00    -0.048 A 
HETATM    2  C4  UNL     1      25.510   7.041  50.265  1.00  0.00     0.010 A 
HETATM    3  C5  UNL     1      26.004   8.319  50.423  1.00  0.00     0.033 A 
HETATM    4  C6  UNL     1      27.091   8.786  49.711  1.00  0.00     0.072 A 
HETATM    5  N1  UNL     1      27.535  10.049  49.887  1.00  0.00    -0.241 NA
HETATM    6  C7  UNL     1      28.610  10.453  49.140  1.00  0.00     0.236 A 
HETATM    7  N2  UNL     1      29.200   9.603  48.256  1.00  0.00    -0.224 NA
HETATM    8  C8  UNL     1      28.748   8.346  48.090  1.00  0.00     0.142 A 
HETATM    9  C15 UNL     1      27.660   7.901  48.829  1.00  0.00     0.039 A 
HETATM   10  C16 UNL     1      27.177   6.607  48.655  1.00  0.00     0.025 A 
ENDROOT
BRANCH   1  11
HETATM   11  C2  UNL     1      25.776   4.749  48.991  1.00  0.00     0.141 C 
BRANCH  11  12
HETATM   12  C1  UNL     1      26.295   3.784  49.971  1.00  0.00     0.221 C 
HETATM   13  O1  UNL     1      27.236   3.416  49.193  1.00  0.00    -0.273 OA
HETATM   14  N4  UNL     1      25.976   3.344  51.274  1.00  0.00    -0.359 N 
HETATM   15  H12 UNL     1      25.103   3.922  51.466  1.00  0.00     0.162 HD
BRANCH  14  16
HETATM   16  C17 UNL     1      26.839   2.353  51.834  1.00  0.00     0.152 C 
BRANCH  16  17
HETATM   17  C18 UNL     1      26.195   1.029  52.138  1.00  0.00     0.292 C 
BRANCH  17  18
HETATM   18  N5  UNL     1      26.726   0.328  53.274  1.00  0.00     0.094 N 
HETATM   19  C19 UNL     1      27.124  -1.004  52.940  1.00  0.00     0.298 C 
HETATM   20  C20 UNL     1      28.593  -1.269  53.131  1.00  0.00     0.198 C 
HETATM   21  O2  UNL     1      29.035  -0.964  54.391  1.00  0.00    -0.388 OA
HETATM   22  C21 UNL     1      28.443   0.108  54.994  1.00  0.00     0.198 C 
HETATM   23  C22 UNL     1      27.770   0.997  53.950  1.00  0.00     0.298 C 
ENDBRANCH  17  18
ENDBRANCH  16  17
ENDBRANCH  14  16
ENDBRANCH  11  12
ENDBRANCH   1  11
BRANCH   8  24
HETATM   24  N3  UNL     1      29.399   7.482  47.139  1.00  0.00    -0.340 N 
HETATM   25  H6  UNL     1      29.023   7.259  46.184  1.00  0.00     0.167 HD
BRANCH  24  26
HETATM   26  C9  UNL     1      30.633   6.864  47.478  1.00  0.00     0.035 A 
HETATM   27  C10 UNL     1      30.673   5.503  47.686  1.00  0.00     0.029 A 
HETATM   28  C11 UNL     1      31.844   4.814  48.019  1.00  0.00     0.004 A 
HETATM   29  C12 UNL     1      33.031   5.516  48.151  1.00  0.00     0.019 A 
HETATM   30  C13 UNL     1      32.974   6.877  47.939  1.00  0.00     0.013 A 
HETATM   31 BR1  UNL     1      34.634   7.840  48.117  1.00  0.00    -0.051 Br
HETATM   32  C14 UNL     1      31.824   7.558  47.611  1.00  0.00     0.048 A 
ENDBRANCH  24  26
ENDBRANCH   8  24
TORSDOF 7
ENDMDL
MODEL 9
REMARK VINA RESULT:      -7.6      5.572      8.172
REMARK  7 active torsions:
REMARK  status: ('A' for Active; 'I' for Inactive)
REMARK    1  A    between atoms: C1_2  and  C2_3 
REMARK       I    between atoms: C1_2  and  N4_22 
REMARK    2  A    between atoms: C2_3  and  C3_4 
REMARK    3  A    between atoms: C8_11  and  N3_12 
REMARK    4  A    between atoms: N3_12  and  C9_13 
REMARK    5  A    between atoms: N4_22  and  C17_23 
REMARK    6  A    between atoms: C17_23  and  C18_24 
REMARK    7  A    between atoms: C18_24  and  N5_25 
ROOT
HETATM    1  C3  UNL     1      27.596   5.463  48.564  1.00  0.00    -0.048 A 
HETATM    2  C4  UNL     1      26.721   6.517  48.472  1.00  0.00     0.010 A 
HETATM    3  C5  UNL     1      25.475   6.482  49.061  1.00  0.00     0.033 A 
HETATM    4  C6  UNL     1      25.026   5.393  49.780  1.00  0.00     0.072 A 
HETATM    5  N1  UNL     1      23.803   5.404  50.353  1.00  0.00    -0.241 NA
HETATM    6  C7  UNL     1      23.425   4.296  51.063  1.00  0.00     0.236 A 
HETATM    7  N2  UNL     1      24.259   3.227  51.180  1.00  0.00    -0.224 NA
HETATM    8  C8  UNL     1      25.476   3.227  50.603  1.00  0.00     0.142 A 
HETATM    9  C15 UNL     1      25.895   4.333  49.876  1.00  0.00     0.039 A 
HETATM   10  C16 UNL     1      27.157   4.348  49.287  1.00  0.00     0.025 A 
ENDROOT
BRANCH   1  11
HETATM   11  C2  UNL     1      28.970   5.205  48.062  1.00  0.00     0.141 C 
BRANCH  11  12
HETATM   12  C1  UNL     1      29.934   6.190  48.575  1.00  0.00     0.221 C 
HETATM   13  O1  UNL     1      30.834   5.302  48.744  1.00  0.00    -0.273 OA
HETATM   14  N4  UNL     1      29.974   7.578  48.829  1.00  0.00    -0.359 N 
HETATM   15  H12 UNL     1      28.982   7.854  48.560  1.00  0.00     0.162 HD
BRANCH  14  16
HETATM   16  C17 UNL     1      31.208   8.091  49.331  1.00  0.00     0.152 C 
BRANCH  16  17
HETATM   17  C18 UNL     1      31.956   9.008  48.403  1.00  0.00     0.292 C 
BRANCH  17  18
HETATM   18  N5  UNL     1      33.057   8.412  47.698  1.00  0.00     0.094 N 
HETATM   19  C19 UNL     1      33.984   7.786  48.587  1.00  0.00     0.298 C 
HETATM   20  C20 UNL     1      34.123   6.302  48.379  1.00  0.00     0.198 C 
HETATM   21  O2  UNL     1      34.433   5.967  47.087  1.00  0.00    -0.388 OA
HETATM   22  C21 UNL     1      33.888   6.753  46.113  1.00  0.00     0.198 C 
HETATM   23  C22 UNL     1      32.689   7.523  46.664  1.00  0.00     0.298 C 
ENDBRANCH  17  18
ENDBRANCH  16  17
ENDBRANCH  14  16
ENDBRANCH  11  12
ENDBRANCH   1  11
BRANCH   8  24
HETATM   24  N3  UNL     1      26.330   2.077  50.757  1.00  0.00    -0.340 N 
HETATM   25  H6  UNL     1      26.828   1.596  49.967  1.00  0.00     0.167 HD
BRANCH  24  26
HETATM   26  C9  UNL     1      26.532   1.518  52.048  1.00  0.00     0.035 A 
HETATM   27  C10 UNL     1      27.677   1.828  52.747  1.00  0.00     0.029 A 
HETATM   28  C11 UNL     1      27.953   1.326  54.024  1.00  0.00     0.004 A 
HETATM   29  C12 UNL     1      27.044   0.475  54.631  1.00  0.00     0.019 A 
HETATM   30  C13 UNL     1      25.903   0.175  53.918  1.00  0.00     0.013 A 
HETATM   31 BR1  UNL     1      24.643  -1.003  54.777  1.00  0.00    -0.051 Br
HETATM   32  C14 UNL     1      25.628   0.667  52.662  1.00  0.00     0.048 A 
ENDBRANCH  24  26
ENDBRANCH   8  24
TORSDOF 7
ENDMDL
