MODEL 1
REMARK VINA RESULT:      -7.6      0.000      0.000
REMARK  3 active torsions:
REMARK  status: ('A' for Active; 'I' for Inactive)
REMARK    1  A    between atoms: C4_6  and  C5_7 
REMARK       I    between atoms: C5_7  and  N2_9 
REMARK    2  A    between atoms: N2_9  and  S1_10 
REMARK    3  A    between atoms: S1_10  and  C6_13 
ROOT
HETATM    1  C5  UNL     1      25.007   1.975  52.799  1.00  0.00     0.268 C 
HETATM    2  O1  UNL     1      24.269   2.830  53.376  1.00  0.00    -0.267 OA
HETATM    3  N2  UNL     1      24.452   1.441  51.602  1.00  0.00    -0.246 N 
HETATM    4  H5  UNL     1      24.972   0.742  51.064  1.00  0.00     0.182 HD
ENDROOT
BRANCH   3   5
HETATM    5  S1  UNL     1      22.885   2.132  51.270  1.00  0.00     0.265 S 
HETATM    6  O2  UNL     1      22.857   3.526  51.792  1.00  0.00    -0.200 OA
HETATM    7  O3  UNL     1      22.746   2.174  49.777  1.00  0.00    -0.200 OA
BRANCH   5   8
HETATM    8  C6  UNL     1      21.606   1.135  51.930  1.00  0.00     0.080 A 
HETATM    9  C7  UNL     1      20.435   0.958  51.211  1.00  0.00     0.027 A 
HETATM   10  C8  UNL     1      19.396   0.167  51.713  1.00  0.00     0.025 A 
HETATM   11  C9  UNL     1      19.517  -0.462  52.953  1.00  0.00     0.034 A 
HETATM   12 CL2  UNL     1      18.188  -1.444  53.544  1.00  0.00    -0.084 Cl
HETATM   13  C10 UNL     1      20.688  -0.280  53.666  1.00  0.00     0.025 A 
HETATM   14  C11 UNL     1      21.729   0.508  53.169  1.00  0.00     0.027 A 
ENDBRANCH   5   8
ENDBRANCH   3   5
BRANCH   1  15
HETATM   15  C4  UNL     1      26.311   1.566  53.305  1.00  0.00     0.073 A 
HETATM   16  C3  UNL     1      26.380   0.297  53.989  1.00  0.00     0.137 A 
HETATM   17  N1  UNL     1      27.337  -0.311  54.524  1.00  0.00    -0.267 NA
HETATM   18 CL1  UNL     1      25.024  -0.788  54.246  1.00  0.00    -0.062 Cl
HETATM   19  C2  UNL     1      28.708   0.021  54.663  1.00  0.00     0.134 A 
HETATM   20  C1  UNL     1      29.542  -1.020  53.962  1.00  0.00     0.040 C 
HETATM   21  P1  UNL     1      29.032   1.658  53.863  1.00  0.00    -0.079 P 
HETATM   22  C12 UNL     1      27.435   2.249  53.197  1.00  0.00     0.026 A 
HETATM   23  H11 UNL     1      29.961   1.470  52.768  1.00  0.00     0.063 HD
ENDBRANCH   1  15
TORSDOF 3
ENDMDL
MODEL 2
REMARK VINA RESULT:      -7.1      3.362      4.005
REMARK  3 active torsions:
REMARK  status: ('A' for Active; 'I' for Inactive)
REMARK    1  A    between atoms: C4_6  and  C5_7 
REMARK       I    between atoms: C5_7  and  N2_9 
REMARK    2  A    between atoms: N2_9  and  S1_10 
REMARK    3  A    between atoms: S1_10  and  C6_13 
ROOT
HETATM    1  C5  UNL     1      25.335   2.408  52.933  1.00  0.00     0.268 C 
HETATM    2  O1  UNL     1      24.594   3.067  53.723  1.00  0.00    -0.267 OA
HETATM    3  N2  UNL     1      24.878   2.387  51.586  1.00  0.00    -0.246 N 
HETATM    4  H5  UNL     1      25.409   1.879  50.872  1.00  0.00     0.182 HD
ENDROOT
BRANCH   3   5
HETATM    5  S1  UNL     1      23.398   3.294  51.408  1.00  0.00     0.265 S 
HETATM    6  O2  UNL     1      22.339   2.648  52.230  1.00  0.00    -0.200 OA
HETATM    7  O3  UNL     1      23.669   4.662  51.959  1.00  0.00    -0.200 OA
BRANCH   5   8
HETATM    8  C6  UNL     1      22.951   3.440  49.721  1.00  0.00     0.080 A 
HETATM    9  C7  UNL     1      22.577   2.310  49.011  1.00  0.00     0.027 A 
HETATM   10  C8  UNL     1      22.214   2.396  47.663  1.00  0.00     0.025 A 
HETATM   11  C9  UNL     1      22.221   3.625  47.002  1.00  0.00     0.034 A 
HETATM   12 CL2  UNL     1      21.759   3.686  45.310  1.00  0.00    -0.084 Cl
HETATM   13  C10 UNL     1      22.597   4.748  47.716  1.00  0.00     0.025 A 
HETATM   14  C11 UNL     1      22.960   4.669  49.063  1.00  0.00     0.027 A 
ENDBRANCH   5   8
ENDBRANCH   3   5
BRANCH   1  15
HETATM   15  C4  UNL     1      26.553   1.726  53.355  1.00  0.00     0.073 A 
HETATM   16  C3  UNL     1      26.427   0.343  53.748  1.00  0.00     0.137 A 
HETATM   17  N1  UNL     1      27.274  -0.489  54.151  1.00  0.00    -0.267 NA
HETATM   18 CL1  UNL     1      24.932  -0.576  53.748  1.00  0.00    -0.062 Cl
HETATM   19  C2  UNL     1      28.670  -0.384  54.375  1.00  0.00     0.134 A 
HETATM   20  C1  UNL     1      29.389  -1.356  53.476  1.00  0.00     0.040 C 
HETATM   21  P1  UNL     1      29.237   1.326  53.952  1.00  0.00    -0.079 P 
HETATM   22  C12 UNL     1      27.760   2.257  53.410  1.00  0.00     0.026 A 
HETATM   23  H11 UNL     1      30.178   1.249  52.854  1.00  0.00     0.063 HD
ENDBRANCH   1  15
TORSDOF 3
ENDMDL
MODEL 3
REMARK VINA RESULT:      -7.1      3.228      4.199
REMARK  3 active torsions:
REMARK  status: ('A' for Active; 'I' for Inactive)
REMARK    1  A    between atoms: C4_6  and  C5_7 
REMARK       I    between atoms: C5_7  and  N2_9 
REMARK    2  A    between atoms: N2_9  and  S1_10 
REMARK    3  A    between atoms: S1_10  and  C6_13 
ROOT
HETATM    1  C5  UNL     1      24.997   1.925  52.845  1.00  0.00     0.268 C 
HETATM    2  O1  UNL     1      24.255   2.769  53.433  1.00  0.00    -0.267 OA
HETATM    3  N2  UNL     1      24.428   1.373  51.663  1.00  0.00    -0.246 N 
HETATM    4  H5  UNL     1      24.950   0.681  51.118  1.00  0.00     0.182 HD
ENDROOT
BRANCH   3   5
HETATM    5  S1  UNL     1      22.842   2.033  51.359  1.00  0.00     0.265 S 
HETATM    6  O2  UNL     1      22.206   1.264  50.254  1.00  0.00    -0.200 OA
HETATM    7  O3  UNL     1      22.045   1.823  52.612  1.00  0.00    -0.200 OA
BRANCH   5   8
HETATM    8  C6  UNL     1      22.930   3.750  51.025  1.00  0.00     0.080 A 
HETATM    9  C7  UNL     1      23.931   4.237  50.200  1.00  0.00     0.027 A 
HETATM   10  C8  UNL     1      24.027   5.603  49.916  1.00  0.00     0.025 A 
HETATM   11  C9  UNL     1      23.114   6.508  50.458  1.00  0.00     0.034 A 
HETATM   12 CL2  UNL     1      23.272   8.213  50.074  1.00  0.00    -0.084 Cl
HETATM   13  C10 UNL     1      22.118   6.016  51.282  1.00  0.00     0.025 A 
HETATM   14  C11 UNL     1      22.017   4.652  51.569  1.00  0.00     0.027 A 
ENDBRANCH   5   8
ENDBRANCH   3   5
BRANCH   1  15
HETATM   15  C4  UNL     1      26.318   1.542  53.327  1.00  0.00     0.073 A 
HETATM   16  C3  UNL     1      26.422   0.286  54.028  1.00  0.00     0.137 A 
HETATM   17  N1  UNL     1      27.401  -0.300  54.550  1.00  0.00    -0.267 NA
HETATM   18 CL1  UNL     1      25.090  -0.815  54.334  1.00  0.00    -0.062 Cl
HETATM   19  C2  UNL     1      28.769   0.055  54.652  1.00  0.00     0.134 A 
HETATM   20  C1  UNL     1      29.602  -0.985  53.947  1.00  0.00     0.040 C 
HETATM   21  P1  UNL     1      29.050   1.684  53.818  1.00  0.00    -0.079 P 
HETATM   22  C12 UNL     1      27.429   2.240  53.181  1.00  0.00     0.026 A 
HETATM   23  H11 UNL     1      29.955   1.491  52.705  1.00  0.00     0.063 HD
ENDBRANCH   1  15
TORSDOF 3
ENDMDL
MODEL 4
REMARK VINA RESULT:      -7.0      2.972      3.582
REMARK  3 active torsions:
REMARK  status: ('A' for Active; 'I' for Inactive)
REMARK    1  A    between atoms: C4_6  and  C5_7 
REMARK       I    between atoms: C5_7  and  N2_9 
REMARK    2  A    between atoms: N2_9  and  S1_10 
REMARK    3  A    between atoms: S1_10  and  C6_13 
ROOT
HETATM    1  C5  UNL     1      23.363  -0.208  53.774  1.00  0.00     0.268 C 
HETATM    2  O1  UNL     1      22.997  -0.667  54.898  1.00  0.00    -0.267 OA
HETATM    3  N2  UNL     1      22.296   0.000  52.855  1.00  0.00    -0.246 N 
HETATM    4  H5  UNL     1      22.491   0.369  51.919  1.00  0.00     0.182 HD
ENDROOT
BRANCH   3   5
HETATM    5  S1  UNL     1      20.763  -0.446  53.556  1.00  0.00     0.265 S 
HETATM    6  O2  UNL     1      20.861  -1.838  54.076  1.00  0.00    -0.200 OA
HETATM    7  O3  UNL     1      20.536   0.483  54.711  1.00  0.00    -0.200 OA
BRANCH   5   8
HETATM    8  C6  UNL     1      19.461  -0.245  52.402  1.00  0.00     0.080 A 
HETATM    9  C7  UNL     1      19.685   0.470  51.236  1.00  0.00     0.027 A 
HETATM   10  C8  UNL     1      18.665   0.648  50.296  1.00  0.00     0.025 A 
HETATM   11  C9  UNL     1      17.397   0.108  50.512  1.00  0.00     0.034 A 
HETATM   12 CL2  UNL     1      16.146   0.356  49.305  1.00  0.00    -0.084 Cl
HETATM   13  C10 UNL     1      17.180  -0.604  51.677  1.00  0.00     0.025 A 
HETATM   14  C11 UNL     1      18.195  -0.785  52.621  1.00  0.00     0.027 A 
ENDBRANCH   5   8
ENDBRANCH   3   5
BRANCH   1  15
HETATM   15  C4  UNL     1      24.750   0.086  53.438  1.00  0.00     0.073 A 
HETATM   16  C3  UNL     1      25.064   1.449  53.083  1.00  0.00     0.137 A 
HETATM   17  N1  UNL     1      26.142   1.997  52.752  1.00  0.00    -0.267 NA
HETATM   18 CL1  UNL     1      23.912   2.773  53.035  1.00  0.00    -0.062 Cl
HETATM   19  C2  UNL     1      27.454   1.484  52.597  1.00  0.00     0.134 A 
HETATM   20  C1  UNL     1      28.375   2.184  53.563  1.00  0.00     0.040 C 
HETATM   21  P1  UNL     1      27.463  -0.323  52.994  1.00  0.00    -0.079 P 
HETATM   22  C12 UNL     1      25.746  -0.779  53.429  1.00  0.00     0.026 A 
HETATM   23  H11 UNL     1      28.317  -0.548  54.141  1.00  0.00     0.063 HD
ENDBRANCH   1  15
TORSDOF 3
ENDMDL
MODEL 5
REMARK VINA RESULT:      -7.0      4.311      6.137
REMARK  3 active torsions:
REMARK  status: ('A' for Active; 'I' for Inactive)
REMARK    1  A    between atoms: C4_6  and  C5_7 
REMARK       I    between atoms: C5_7  and  N2_9 
REMARK    2  A    between atoms: N2_9  and  S1_10 
REMARK    3  A    between atoms: S1_10  and  C6_13 
ROOT
HETATM    1  C5  UNL     1      26.495   2.591  51.624  1.00  0.00     0.268 C 
HETATM    2  O1  UNL     1      26.626   2.529  50.364  1.00  0.00    -0.267 OA
HETATM    3  N2  UNL     1      25.407   3.399  52.058  1.00  0.00    -0.246 N 
HETATM    4  H5  UNL     1      25.219   3.512  53.058  1.00  0.00     0.182 HD
ENDROOT
BRANCH   3   5
HETATM    5  S1  UNL     1      24.551   4.084  50.701  1.00  0.00     0.265 S 
HETATM    6  O2  UNL     1      24.302   3.010  49.700  1.00  0.00    -0.200 OA
HETATM    7  O3  UNL     1      23.232   4.565  51.228  1.00  0.00    -0.200 OA
BRANCH   5   8
HETATM    8  C6  UNL     1      25.424   5.445  50.030  1.00  0.00     0.080 A 
HETATM    9  C7  UNL     1      25.236   6.710  50.564  1.00  0.00     0.027 A 
HETATM   10  C8  UNL     1      25.919   7.817  50.049  1.00  0.00     0.025 A 
HETATM   11  C9  UNL     1      26.808   7.670  48.984  1.00  0.00     0.034 A 
HETATM   12 CL2  UNL     1      27.644   9.086  48.369  1.00  0.00    -0.084 Cl
HETATM   13  C10 UNL     1      26.991   6.406  48.454  1.00  0.00     0.025 A 
HETATM   14  C11 UNL     1      26.311   5.296  48.965  1.00  0.00     0.027 A 
ENDBRANCH   5   8
ENDBRANCH   3   5
BRANCH   1  15
HETATM   15  C4  UNL     1      27.375   1.900  52.559  1.00  0.00     0.073 A 
HETATM   16  C3  UNL     1      27.152   0.487  52.747  1.00  0.00     0.137 A 
HETATM   17  N1  UNL     1      27.730  -0.360  53.469  1.00  0.00    -0.267 NA
HETATM   18 CL1  UNL     1      25.918  -0.459  51.933  1.00  0.00    -0.062 Cl
HETATM   19  C2  UNL     1      28.815  -0.247  54.374  1.00  0.00     0.134 A 
HETATM   20  C1  UNL     1      29.945  -1.124  53.902  1.00  0.00     0.040 C 
HETATM   21  P1  UNL     1      29.414   1.504  54.404  1.00  0.00    -0.079 P 
HETATM   22  C12 UNL     1      28.356   2.448  53.250  1.00  0.00     0.026 A 
HETATM   23  H11 UNL     1      30.782   1.540  53.930  1.00  0.00     0.063 HD
ENDBRANCH   1  15
TORSDOF 3
ENDMDL
MODEL 6
REMARK VINA RESULT:      -7.0      4.952      7.266
REMARK  3 active torsions:
REMARK  status: ('A' for Active; 'I' for Inactive)
REMARK    1  A    between atoms: C4_6  and  C5_7 
REMARK       I    between atoms: C5_7  and  N2_9 
REMARK    2  A    between atoms: N2_9  and  S1_10 
REMARK    3  A    between atoms: S1_10  and  C6_13 
ROOT
HETATM    1  C5  UNL     1      26.352   4.127  49.716  1.00  0.00     0.268 C 
HETATM    2  O1  UNL     1      26.324   2.915  49.347  1.00  0.00    -0.267 OA
HETATM    3  N2  UNL     1      25.678   4.378  50.944  1.00  0.00    -0.246 N 
HETATM    4  H5  UNL     1      25.645   5.328  51.326  1.00  0.00     0.182 HD
ENDROOT
BRANCH   3   5
HETATM    5  S1  UNL     1      24.995   2.913  51.599  1.00  0.00     0.265 S 
HETATM    6  O2  UNL     1      24.017   3.273  52.662  1.00  0.00    -0.200 OA
HETATM    7  O3  UNL     1      24.259   2.246  50.475  1.00  0.00    -0.200 OA
BRANCH   5   8
HETATM    8  C6  UNL     1      26.251   1.836  52.172  1.00  0.00     0.080 A 
HETATM    9  C7  UNL     1      26.114   0.468  51.996  1.00  0.00     0.027 A 
HETATM   10  C8  UNL     1      27.100  -0.417  52.444  1.00  0.00     0.025 A 
HETATM   11  C9  UNL     1      28.248   0.060  53.078  1.00  0.00     0.034 A 
HETATM   12 CL2  UNL     1      29.460  -1.086  53.624  1.00  0.00    -0.084 Cl
HETATM   13  C10 UNL     1      28.378   1.426  53.252  1.00  0.00     0.025 A 
HETATM   14  C11 UNL     1      27.396   2.315  52.807  1.00  0.00     0.027 A 
ENDBRANCH   5   8
ENDBRANCH   3   5
BRANCH   1  15
HETATM   15  C4  UNL     1      27.013   5.183  48.959  1.00  0.00     0.073 A 
HETATM   16  C3  UNL     1      26.184   6.261  48.476  1.00  0.00     0.137 A 
HETATM   17  N1  UNL     1      26.456   7.288  47.810  1.00  0.00    -0.267 NA
HETATM   18 CL1  UNL     1      24.454   6.401  48.737  1.00  0.00    -0.062 Cl
HETATM   19  C2  UNL     1      27.677   7.772  47.277  1.00  0.00     0.134 A 
HETATM   20  C1  UNL     1      27.982   9.116  47.887  1.00  0.00     0.040 C 
HETATM   21  P1  UNL     1      29.048   6.611  47.717  1.00  0.00    -0.079 P 
HETATM   22  C12 UNL     1      28.300   5.245  48.675  1.00  0.00     0.026 A 
HETATM   23  H11 UNL     1      30.003   7.308  48.553  1.00  0.00     0.063 HD
ENDBRANCH   1  15
TORSDOF 3
ENDMDL
MODEL 7
REMARK VINA RESULT:      -6.8      4.219      6.895
REMARK  3 active torsions:
REMARK  status: ('A' for Active; 'I' for Inactive)
REMARK    1  A    between atoms: C4_6  and  C5_7 
REMARK       I    between atoms: C5_7  and  N2_9 
REMARK    2  A    between atoms: N2_9  and  S1_10 
REMARK    3  A    between atoms: S1_10  and  C6_13 
ROOT
HETATM    1  C5  UNL     1      22.942   2.538  51.081  1.00  0.00     0.268 C 
HETATM    2  O1  UNL     1      22.870   2.269  49.844  1.00  0.00    -0.267 OA
HETATM    3  N2  UNL     1      23.146   3.917  51.367  1.00  0.00    -0.246 N 
HETATM    4  H5  UNL     1      23.218   4.234  52.338  1.00  0.00     0.182 HD
ENDROOT
BRANCH   3   5
HETATM    5  S1  UNL     1      23.240   4.857  49.900  1.00  0.00     0.265 S 
HETATM    6  O2  UNL     1      22.387   4.214  48.863  1.00  0.00    -0.200 OA
HETATM    7  O3  UNL     1      22.671   6.207  50.222  1.00  0.00    -0.200 OA
BRANCH   5   8
HETATM    8  C6  UNL     1      24.902   5.051  49.384  1.00  0.00     0.080 A 
HETATM    9  C7  UNL     1      25.796   4.005  49.545  1.00  0.00     0.027 A 
HETATM   10  C8  UNL     1      27.130   4.130  49.143  1.00  0.00     0.025 A 
HETATM   11  C9  UNL     1      27.590   5.316  48.569  1.00  0.00     0.034 A 
HETATM   12 CL2  UNL     1      29.272   5.429  48.079  1.00  0.00    -0.084 Cl
HETATM   13  C10 UNL     1      26.694   6.357  48.412  1.00  0.00     0.025 A 
HETATM   14  C11 UNL     1      25.360   6.237  48.812  1.00  0.00     0.027 A 
ENDBRANCH   5   8
ENDBRANCH   3   5
BRANCH   1  15
HETATM   15  C4  UNL     1      22.827   1.533  52.131  1.00  0.00     0.073 A 
HETATM   16  C3  UNL     1      21.553   1.425  52.799  1.00  0.00     0.137 A 
HETATM   17  N1  UNL     1      21.156   0.675  53.722  1.00  0.00    -0.267 NA
HETATM   18 CL1  UNL     1      20.137   2.399  52.440  1.00  0.00    -0.062 Cl
HETATM   19  C2  UNL     1      21.810  -0.344  54.459  1.00  0.00     0.134 A 
HETATM   20  C1  UNL     1      21.096  -1.652  54.233  1.00  0.00     0.040 C 
HETATM   21  P1  UNL     1      23.551  -0.522  53.856  1.00  0.00    -0.079 P 
HETATM   22  C12 UNL     1      23.782   0.712  52.527  1.00  0.00     0.026 A 
HETATM   23  H11 UNL     1      23.722  -1.850  53.303  1.00  0.00     0.063 HD
ENDBRANCH   1  15
TORSDOF 3
ENDMDL
MODEL 8
REMARK VINA RESULT:      -6.8      3.563      7.047
REMARK  3 active torsions:
REMARK  status: ('A' for Active; 'I' for Inactive)
REMARK    1  A    between atoms: C4_6  and  C5_7 
REMARK       I    between atoms: C5_7  and  N2_9 
REMARK    2  A    between atoms: N2_9  and  S1_10 
REMARK    3  A    between atoms: S1_10  and  C6_13 
ROOT
HETATM    1  C5  UNL     1      21.457   1.592  51.174  1.00  0.00     0.268 C 
HETATM    2  O1  UNL     1      22.369   1.330  50.333  1.00  0.00    -0.267 OA
HETATM    3  N2  UNL     1      21.873   2.439  52.240  1.00  0.00    -0.246 N 
HETATM    4  H5  UNL     1      21.207   2.708  52.971  1.00  0.00     0.182 HD
ENDROOT
BRANCH   3   5
HETATM    5  S1  UNL     1      23.553   2.879  52.076  1.00  0.00     0.265 S 
HETATM    6  O2  UNL     1      23.753   3.519  50.747  1.00  0.00    -0.200 OA
HETATM    7  O3  UNL     1      23.834   3.892  53.146  1.00  0.00    -0.200 OA
BRANCH   5   8
HETATM    8  C6  UNL     1      24.592   1.491  52.323  1.00  0.00     0.080 A 
HETATM    9  C7  UNL     1      25.809   1.421  51.664  1.00  0.00     0.027 A 
HETATM   10  C8  UNL     1      26.660   0.325  51.841  1.00  0.00     0.025 A 
HETATM   11  C9  UNL     1      26.301  -0.724  52.688  1.00  0.00     0.034 A 
HETATM   12 CL2  UNL     1      27.399  -2.080  52.880  1.00  0.00    -0.084 Cl
HETATM   13  C10 UNL     1      25.085  -0.649  53.341  1.00  0.00     0.025 A 
HETATM   14  C11 UNL     1      24.230   0.444  53.169  1.00  0.00     0.027 A 
ENDBRANCH   5   8
ENDBRANCH   3   5
BRANCH   1  15
HETATM   15  C4  UNL     1      20.096   1.079  51.071  1.00  0.00     0.073 A 
HETATM   16  C3  UNL     1      19.691   0.096  52.046  1.00  0.00     0.137 A 
HETATM   17  N1  UNL     1      18.610  -0.518  52.212  1.00  0.00    -0.267 NA
HETATM   18 CL1  UNL     1      20.701  -0.518  53.344  1.00  0.00    -0.062 Cl
HETATM   19  C2  UNL     1      17.384  -0.481  51.501  1.00  0.00     0.134 A 
HETATM   20  C1  UNL     1      16.289  -0.023  52.430  1.00  0.00     0.040 C 
HETATM   21  P1  UNL     1      17.511   0.735  50.112  1.00  0.00    -0.079 P 
HETATM   22  C12 UNL     1      19.200   1.431  50.168  1.00  0.00     0.026 A 
HETATM   23  H11 UNL     1      16.553   1.799  50.331  1.00  0.00     0.063 HD
ENDBRANCH   1  15
TORSDOF 3
ENDMDL
MODEL 9
REMARK VINA RESULT:      -6.7      4.307      5.692
REMARK  3 active torsions:
REMARK  status: ('A' for Active; 'I' for Inactive)
REMARK    1  A    between atoms: C4_6  and  C5_7 
REMARK       I    between atoms: C5_7  and  N2_9 
REMARK    2  A    between atoms: N2_9  and  S1_10 
REMARK    3  A    between atoms: S1_10  and  C6_13 
ROOT
HETATM    1  C5  UNL     1      24.938   3.549  51.008  1.00  0.00     0.268 C 
HETATM    2  O1  UNL     1      24.820   2.468  50.354  1.00  0.00    -0.267 OA
HETATM    3  N2  UNL     1      25.219   3.365  52.391  1.00  0.00    -0.246 N 
HETATM    4  H5  UNL     1      25.331   4.178  53.003  1.00  0.00     0.182 HD
ENDROOT
BRANCH   3   5
HETATM    5  S1  UNL     1      25.321   1.671  52.794  1.00  0.00     0.265 S 
HETATM    6  O2  UNL     1      26.129   0.979  51.753  1.00  0.00    -0.200 OA
HETATM    7  O3  UNL     1      26.049   1.587  54.102  1.00  0.00    -0.200 OA
BRANCH   5   8
HETATM    8  C6  UNL     1      23.726   0.974  52.988  1.00  0.00     0.080 A 
HETATM    9  C7  UNL     1      23.599  -0.367  53.311  1.00  0.00     0.027 A 
HETATM   10  C8  UNL     1      22.339  -0.952  53.471  1.00  0.00     0.025 A 
HETATM   11  C9  UNL     1      21.178  -0.193  53.310  1.00  0.00     0.034 A 
HETATM   12 CL2  UNL     1      19.617  -0.968  53.522  1.00  0.00    -0.084 Cl
HETATM   13  C10 UNL     1      21.312   1.144  52.987  1.00  0.00     0.025 A 
HETATM   14  C11 UNL     1      22.568   1.734  52.825  1.00  0.00     0.027 A 
ENDBRANCH   5   8
ENDBRANCH   3   5
BRANCH   1  15
HETATM   15  C4  UNL     1      24.801   4.870  50.408  1.00  0.00     0.073 A 
HETATM   16  C3  UNL     1      25.824   5.276  49.476  1.00  0.00     0.137 A 
HETATM   17  N1  UNL     1      25.979   6.330  48.815  1.00  0.00    -0.267 NA
HETATM   18 CL1  UNL     1      27.207   4.303  49.004  1.00  0.00    -0.062 Cl
HETATM   19  C2  UNL     1      25.211   7.519  48.738  1.00  0.00     0.134 A 
HETATM   20  C1  UNL     1      24.727   7.704  47.323  1.00  0.00     0.040 C 
HETATM   21  P1  UNL     1      23.733   7.372  49.841  1.00  0.00    -0.079 P 
HETATM   22  C12 UNL     1      23.827   5.730  50.640  1.00  0.00     0.026 A 
HETATM   23  H11 UNL     1      22.534   7.436  49.031  1.00  0.00     0.063 HD
ENDBRANCH   1  15
TORSDOF 3
ENDMDL
