MODEL 1
REMARK VINA RESULT:      -9.1      0.000      0.000
REMARK  5 active torsions:
REMARK  status: ('A' for Active; 'I' for Inactive)
REMARK    1  A    between atoms: O1_2  and  C2_3 
REMARK    2  A    between atoms: C5_6  and  C6_7 
REMARK    3  A    between atoms: C7_8  and  C8_9 
REMARK       I    between atoms: C8_9  and  N1_11 
REMARK    4  A    between atoms: N1_11  and  C9_12 
REMARK    5  A    between atoms: C18_23  and  C19_25 
ROOT
HETATM    1  C9  UNL     1      22.528   0.636  51.517  1.00  0.00     0.180 C 
HETATM    2  C10 UNL     1      21.398   0.237  50.782  1.00  0.00     0.053 C 
HETATM    3  C11 UNL     1      19.995   0.737  50.484  1.00  0.00     0.023 C 
HETATM    4  C12 UNL     1      18.647   0.509  50.917  1.00  0.00     0.071 A 
HETATM    5  N2  UNL     1      17.606  -0.067  51.672  1.00  0.00    -0.250 NA
HETATM    6  C13 UNL     1      17.437  -0.691  52.743  1.00  0.00     0.149 A 
HETATM    7  N3  UNL     1      18.310  -1.154  53.820  1.00  0.00    -0.379 N 
HETATM    8  C14 UNL     1      19.607  -0.684  53.352  1.00  0.00     0.059 A 
HETATM    9  C15 UNL     1      20.790  -0.786  54.232  1.00  0.00     0.056 A 
HETATM   10  C16 UNL     1      22.200  -0.264  54.295  1.00  0.00     0.067 A 
HETATM   11  C17 UNL     1      21.236  -0.117  53.483  1.00  0.00     0.118 A 
HETATM   12  C18 UNL     1      20.228  -0.012  52.707  1.00  0.00     0.048 A 
HETATM   13 BR1  UNL     1      20.026   2.157  52.393  1.00  0.00    -0.086 Br
HETATM   14  C19 UNL     1      19.131  -0.085  52.132  1.00  0.00     0.083 A 
HETATM   15  N4  UNL     1      22.732   0.557  53.063  1.00  0.00    -0.389 N 
HETATM   16  H14 UNL     1      18.205  -1.684  54.742  1.00  0.00     0.160 HD
HETATM   17  H17 UNL     1      23.411   1.210  53.497  1.00  0.00     0.156 HD
ENDROOT
BRANCH   1  18
HETATM   18  N1  UNL     1      23.222   1.832  51.174  1.00  0.00    -0.337 N 
HETATM   19  C8  UNL     1      24.586   2.136  51.214  1.00  0.00     0.242 C 
HETATM   20  O2  UNL     1      25.282   1.142  51.631  1.00  0.00    -0.269 OA
HETATM   21  H8  UNL     1      22.690   2.684  50.817  1.00  0.00     0.164 HD
BRANCH  19  22
HETATM   22  C7  UNL     1      25.237   3.364  50.864  1.00  0.00     0.075 C 
HETATM   23  C6  UNL     1      25.792   3.658  49.702  1.00  0.00     0.017 C 
BRANCH  23  24
HETATM   24  C5  UNL     1      26.467   4.870  49.270  1.00  0.00    -0.036 A 
HETATM   25  C4  UNL     1      25.867   6.117  49.493  1.00  0.00     0.014 A 
HETATM   26  C3  UNL     1      26.537   7.243  49.081  1.00  0.00     0.037 A 
HETATM   27  C2  UNL     1      27.764   7.201  48.461  1.00  0.00     0.068 A 
HETATM   28  C21 UNL     1      28.360   5.982  48.238  1.00  0.00     0.037 A 
HETATM   29  C20 UNL     1      27.701   4.846  48.645  1.00  0.00     0.014 A 
BRANCH  27  30
HETATM   30  O1  UNL     1      28.311   8.425  48.105  1.00  0.00    -0.356 OA
HETATM   31  C1  UNL     1      28.852   9.254  49.087  1.00  0.00     0.210 C 
ENDBRANCH  27  30
ENDBRANCH  23  24
ENDBRANCH  19  22
ENDBRANCH   1  18
TORSDOF 5
ENDMDL
MODEL 2
REMARK VINA RESULT:      -8.9      3.133      4.784
REMARK  5 active torsions:
REMARK  status: ('A' for Active; 'I' for Inactive)
REMARK    1  A    between atoms: O1_2  and  C2_3 
REMARK    2  A    between atoms: C5_6  and  C6_7 
REMARK    3  A    between atoms: C7_8  and  C8_9 
REMARK       I    between atoms: C8_9  and  N1_11 
REMARK    4  A    between atoms: N1_11  and  C9_12 
REMARK    5  A    between atoms: C18_23  and  C19_25 
ROOT
HETATM    1  C9  UNL     1      24.987   3.115  51.931  1.00  0.00     0.180 C 
HETATM    2  C10 UNL     1      25.412   2.786  53.231  1.00  0.00     0.053 C 
HETATM    3  C11 UNL     1      26.344   1.800  53.912  1.00  0.00     0.023 C 
HETATM    4  C12 UNL     1      26.276   0.552  54.617  1.00  0.00     0.071 A 
HETATM    5  N2  UNL     1      25.671  -0.588  55.182  1.00  0.00    -0.250 NA
HETATM    6  C13 UNL     1      24.612  -1.248  55.094  1.00  0.00     0.149 A 
HETATM    7  N3  UNL     1      23.395  -1.152  54.290  1.00  0.00    -0.379 N 
HETATM    8  C14 UNL     1      23.684   0.028  53.487  1.00  0.00     0.059 A 
HETATM    9  C15 UNL     1      22.776   0.409  52.384  1.00  0.00     0.056 A 
HETATM   10  C16 UNL     1      22.763   1.339  51.201  1.00  0.00     0.067 A 
HETATM   11  C17 UNL     1      23.607   1.074  52.110  1.00  0.00     0.118 A 
HETATM   12  C18 UNL     1      24.410   0.762  53.053  1.00  0.00     0.048 A 
HETATM   13 BR1  UNL     1      26.310   0.361  52.017  1.00  0.00    -0.086 Br
HETATM   14  C19 UNL     1      24.982   0.295  54.049  1.00  0.00     0.083 A 
HETATM   15  N4  UNL     1      23.969   2.335  51.040  1.00  0.00    -0.389 N 
HETATM   16  H14 UNL     1      22.480  -1.692  54.186  1.00  0.00     0.160 HD
HETATM   17  H17 UNL     1      24.035   2.454  50.012  1.00  0.00     0.156 HD
ENDROOT
BRANCH   1  18
HETATM   18  N1  UNL     1      25.919   3.612  50.975  1.00  0.00    -0.337 N 
HETATM   19  C8  UNL     1      25.741   4.487  49.900  1.00  0.00     0.242 C 
HETATM   20  O2  UNL     1      24.524   4.881  49.806  1.00  0.00    -0.269 OA
HETATM   21  H8  UNL     1      26.943   3.319  51.014  1.00  0.00     0.164 HD
BRANCH  19  22
HETATM   22  C7  UNL     1      26.714   4.953  48.958  1.00  0.00     0.075 C 
HETATM   23  C6  UNL     1      27.164   6.189  48.833  1.00  0.00     0.017 C 
BRANCH  23  24
HETATM   24  C5  UNL     1      28.142   6.738  47.911  1.00  0.00    -0.036 A 
HETATM   25  C4  UNL     1      27.752   7.713  46.982  1.00  0.00     0.014 A 
HETATM   26  C3  UNL     1      28.704   8.219  46.132  1.00  0.00     0.037 A 
HETATM   27  C2  UNL     1      30.019   7.813  46.151  1.00  0.00     0.068 A 
HETATM   28  C21 UNL     1      30.410   6.857  47.059  1.00  0.00     0.037 A 
HETATM   29  C20 UNL     1      29.468   6.342  47.916  1.00  0.00     0.014 A 
BRANCH  27  30
HETATM   30  O1  UNL     1      30.859   8.419  45.229  1.00  0.00    -0.356 OA
HETATM   31  C1  UNL     1      31.863   7.673  44.612  1.00  0.00     0.210 C 
ENDBRANCH  27  30
ENDBRANCH  23  24
ENDBRANCH  19  22
ENDBRANCH   1  18
TORSDOF 5
ENDMDL
MODEL 3
REMARK VINA RESULT:      -8.8      5.243     11.817
REMARK  5 active torsions:
REMARK  status: ('A' for Active; 'I' for Inactive)
REMARK    1  A    between atoms: O1_2  and  C2_3 
REMARK    2  A    between atoms: C5_6  and  C6_7 
REMARK    3  A    between atoms: C7_8  and  C8_9 
REMARK       I    between atoms: C8_9  and  N1_11 
REMARK    4  A    between atoms: N1_11  and  C9_12 
REMARK    5  A    between atoms: C18_23  and  C19_25 
ROOT
HETATM    1  C9  UNL     1      29.299   6.208  48.180  1.00  0.00     0.180 C 
HETATM    2  C10 UNL     1      30.411   5.718  47.473  1.00  0.00     0.053 C 
HETATM    3  C11 UNL     1      31.725   5.014  47.758  1.00  0.00     0.023 C 
HETATM    4  C12 UNL     1      33.118   5.329  47.897  1.00  0.00     0.071 A 
HETATM    5  N2  UNL     1      34.267   6.145  47.935  1.00  0.00    -0.250 NA
HETATM    6  C13 UNL     1      34.578   7.347  48.085  1.00  0.00     0.149 A 
HETATM    7  N3  UNL     1      33.840   8.586  48.319  1.00  0.00    -0.379 N 
HETATM    8  C14 UNL     1      32.470   8.093  48.356  1.00  0.00     0.059 A 
HETATM    9  C15 UNL     1      31.371   9.001  48.747  1.00  0.00     0.056 A 
HETATM   10  C16 UNL     1      29.920   8.916  49.138  1.00  0.00     0.067 A 
HETATM   11  C17 UNL     1      30.802   8.063  48.813  1.00  0.00     0.118 A 
HETATM   12  C18 UNL     1      31.735   7.258  48.479  1.00  0.00     0.048 A 
HETATM   13 BR1  UNL     1      31.675   5.703  50.036  1.00  0.00    -0.086 Br
HETATM   14  C19 UNL     1      32.790   6.709  48.126  1.00  0.00     0.083 A 
HETATM   15  N4  UNL     1      29.215   7.514  49.033  1.00  0.00    -0.389 N 
HETATM   16  H14 UNL     1      34.068   9.622  48.452  1.00  0.00     0.160 HD
HETATM   17  H17 UNL     1      28.501   7.557  49.783  1.00  0.00     0.156 HD
ENDROOT
BRANCH   1  18
HETATM   18  N1  UNL     1      28.456   5.313  48.900  1.00  0.00    -0.337 N 
HETATM   19  C8  UNL     1      27.062   5.247  48.985  1.00  0.00     0.242 C 
HETATM   20  O2  UNL     1      26.499   6.159  48.280  1.00  0.00    -0.269 OA
HETATM   21  H8  UNL     1      28.874   4.535  49.495  1.00  0.00     0.164 HD
BRANCH  19  22
HETATM   22  C7  UNL     1      26.257   4.327  49.733  1.00  0.00     0.075 C 
HETATM   23  C6  UNL     1      26.675   3.245  50.364  1.00  0.00     0.017 C 
BRANCH  23  24
HETATM   24  C5  UNL     1      25.929   2.268  51.139  1.00  0.00    -0.036 A 
HETATM   25  C4  UNL     1      26.606   1.212  51.764  1.00  0.00     0.014 A 
HETATM   26  C3  UNL     1      25.872   0.313  52.496  1.00  0.00     0.037 A 
HETATM   27  C2  UNL     1      24.507   0.401  52.644  1.00  0.00     0.068 A 
HETATM   28  C21 UNL     1      23.834   1.434  52.035  1.00  0.00     0.037 A 
HETATM   29  C20 UNL     1      24.557   2.343  51.298  1.00  0.00     0.014 A 
BRANCH  27  30
HETATM   30  O1  UNL     1      23.910  -0.584  53.416  1.00  0.00    -0.356 OA
HETATM   31  C1  UNL     1      22.560  -0.883  53.235  1.00  0.00     0.210 C 
ENDBRANCH  27  30
ENDBRANCH  23  24
ENDBRANCH  19  22
ENDBRANCH   1  18
TORSDOF 5
ENDMDL
MODEL 4
REMARK VINA RESULT:      -8.1      3.505     10.223
REMARK  5 active torsions:
REMARK  status: ('A' for Active; 'I' for Inactive)
REMARK    1  A    between atoms: O1_2  and  C2_3 
REMARK    2  A    between atoms: C5_6  and  C6_7 
REMARK    3  A    between atoms: C7_8  and  C8_9 
REMARK       I    between atoms: C8_9  and  N1_11 
REMARK    4  A    between atoms: N1_11  and  C9_12 
REMARK    5  A    between atoms: C18_23  and  C19_25 
ROOT
HETATM    1  C9  UNL     1      22.521   1.996  52.712  1.00  0.00     0.180 C 
HETATM    2  C10 UNL     1      22.656   3.361  52.405  1.00  0.00     0.053 C 
HETATM    3  C11 UNL     1      22.615   4.267  51.188  1.00  0.00     0.023 C 
HETATM    4  C12 UNL     1      23.523   4.927  50.294  1.00  0.00     0.071 A 
HETATM    5  N2  UNL     1      24.770   5.307  49.758  1.00  0.00    -0.250 NA
HETATM    6  C13 UNL     1      25.965   4.936  49.766  1.00  0.00     0.149 A 
HETATM    7  N3  UNL     1      26.703   3.835  50.380  1.00  0.00    -0.379 N 
HETATM    8  C14 UNL     1      25.633   3.140  51.084  1.00  0.00     0.059 A 
HETATM    9  C15 UNL     1      25.900   1.834  51.724  1.00  0.00     0.056 A 
HETATM   10  C16 UNL     1      25.126   0.692  52.325  1.00  0.00     0.067 A 
HETATM   11  C17 UNL     1      24.803   1.795  51.788  1.00  0.00     0.118 A 
HETATM   12  C18 UNL     1      24.547   2.918  51.237  1.00  0.00     0.048 A 
HETATM   13 BR1  UNL     1      23.021   2.432  49.728  1.00  0.00    -0.086 Br
HETATM   14  C19 UNL     1      24.574   4.032  50.691  1.00  0.00     0.083 A 
HETATM   15  N4  UNL     1      23.570   0.863  52.479  1.00  0.00    -0.389 N 
HETATM   16  H14 UNL     1      27.713   3.488  50.409  1.00  0.00     0.160 HD
HETATM   17  H17 UNL     1      23.221  -0.110  52.388  1.00  0.00     0.156 HD
ENDROOT
BRANCH   1  18
HETATM   18  N1  UNL     1      21.285   1.327  52.479  1.00  0.00    -0.337 N 
HETATM   19  C8  UNL     1      20.583   0.412  53.270  1.00  0.00     0.242 C 
HETATM   20  O2  UNL     1      21.191   0.174  54.374  1.00  0.00    -0.269 OA
HETATM   21  H8  UNL     1      20.738   1.495  51.580  1.00  0.00     0.164 HD
BRANCH  19  22
HETATM   22  C7  UNL     1      19.340  -0.242  52.987  1.00  0.00     0.075 C 
HETATM   23  C6  UNL     1      18.940  -1.411  53.454  1.00  0.00     0.017 C 
BRANCH  23  24
HETATM   24  C5  UNL     1      17.704  -2.138  53.218  1.00  0.00    -0.036 A 
HETATM   25  C4  UNL     1      17.558  -3.441  53.714  1.00  0.00     0.014 A 
HETATM   26  C3  UNL     1      16.374  -4.096  53.481  1.00  0.00     0.037 A 
HETATM   27  C2  UNL     1      15.329  -3.533  52.786  1.00  0.00     0.068 A 
HETATM   28  C21 UNL     1      15.464  -2.255  52.295  1.00  0.00     0.037 A 
HETATM   29  C20 UNL     1      16.644  -1.587  52.521  1.00  0.00     0.014 A 
BRANCH  27  30
HETATM   30  O1  UNL     1      14.199  -4.322  52.635  1.00  0.00    -0.356 OA
HETATM   31  C1  UNL     1      13.491  -4.741  53.761  1.00  0.00     0.210 C 
ENDBRANCH  27  30
ENDBRANCH  23  24
ENDBRANCH  19  22
ENDBRANCH   1  18
TORSDOF 5
ENDMDL
MODEL 5
REMARK VINA RESULT:      -8.0      2.878      4.772
REMARK  5 active torsions:
REMARK  status: ('A' for Active; 'I' for Inactive)
REMARK    1  A    between atoms: O1_2  and  C2_3 
REMARK    2  A    between atoms: C5_6  and  C6_7 
REMARK    3  A    between atoms: C7_8  and  C8_9 
REMARK       I    between atoms: C8_9  and  N1_11 
REMARK    4  A    between atoms: N1_11  and  C9_12 
REMARK    5  A    between atoms: C18_23  and  C19_25 
ROOT
HETATM    1  C9  UNL     1      25.952   2.968  50.557  1.00  0.00     0.180 C 
HETATM    2  C10 UNL     1      24.776   2.209  50.421  1.00  0.00     0.053 C 
HETATM    3  C11 UNL     1      23.386   2.139  51.027  1.00  0.00     0.023 C 
HETATM    4  C12 UNL     1      22.664   1.374  52.003  1.00  0.00     0.071 A 
HETATM    5  N2  UNL     1      22.463   0.388  52.989  1.00  0.00    -0.250 NA
HETATM    6  C13 UNL     1      23.126  -0.322  53.777  1.00  0.00     0.149 A 
HETATM    7  N3  UNL     1      24.546  -0.478  54.085  1.00  0.00    -0.379 N 
HETATM    8  C14 UNL     1      25.138   0.492  53.174  1.00  0.00     0.059 A 
HETATM    9  C15 UNL     1      26.581   0.803  53.264  1.00  0.00     0.056 A 
HETATM   10  C16 UNL     1      27.551   1.829  52.744  1.00  0.00     0.067 A 
HETATM   11  C17 UNL     1      26.303   1.641  52.611  1.00  0.00     0.118 A 
HETATM   12  C18 UNL     1      25.053   1.395  52.518  1.00  0.00     0.048 A 
HETATM   13 BR1  UNL     1      24.100   3.328  52.962  1.00  0.00    -0.086 Br
HETATM   14  C19 UNL     1      23.902   0.937  52.585  1.00  0.00     0.083 A 
HETATM   15  N4  UNL     1      27.018   2.872  51.694  1.00  0.00    -0.389 N 
HETATM   16  H14 UNL     1      25.145  -1.066  54.746  1.00  0.00     0.160 HD
HETATM   17  H17 UNL     1      27.602   3.709  51.883  1.00  0.00     0.156 HD
ENDROOT
BRANCH   1  18
HETATM   18  N1  UNL     1      25.946   4.361  50.254  1.00  0.00    -0.337 N 
HETATM   19  C8  UNL     1      26.728   5.101  49.363  1.00  0.00     0.242 C 
HETATM   20  O2  UNL     1      27.569   4.359  48.740  1.00  0.00    -0.269 OA
HETATM   21  H8  UNL     1      25.263   5.018  50.740  1.00  0.00     0.164 HD
BRANCH  19  22
HETATM   22  C7  UNL     1      26.689   6.509  49.099  1.00  0.00     0.075 C 
HETATM   23  C6  UNL     1      27.659   7.242  48.582  1.00  0.00     0.017 C 
BRANCH  23  24
HETATM   24  C5  UNL     1      27.699   8.663  48.285  1.00  0.00    -0.036 A 
HETATM   25  C4  UNL     1      27.276   9.123  47.029  1.00  0.00     0.014 A 
HETATM   26  C3  UNL     1      27.318  10.473  46.785  1.00  0.00     0.037 A 
HETATM   27  C2  UNL     1      27.753  11.391  47.712  1.00  0.00     0.068 A 
HETATM   28  C21 UNL     1      28.169  10.949  48.946  1.00  0.00     0.037 A 
HETATM   29  C20 UNL     1      28.133   9.600  49.205  1.00  0.00     0.014 A 
BRANCH  27  30
HETATM   30  O1  UNL     1      27.734  12.719  47.314  1.00  0.00    -0.356 OA
HETATM   31  C1  UNL     1      27.492  13.721  48.253  1.00  0.00     0.210 C 
ENDBRANCH  27  30
ENDBRANCH  23  24
ENDBRANCH  19  22
ENDBRANCH   1  18
TORSDOF 5
ENDMDL
MODEL 6
REMARK VINA RESULT:      -7.8      2.259      3.482
REMARK  5 active torsions:
REMARK  status: ('A' for Active; 'I' for Inactive)
REMARK    1  A    between atoms: O1_2  and  C2_3 
REMARK    2  A    between atoms: C5_6  and  C6_7 
REMARK    3  A    between atoms: C7_8  and  C8_9 
REMARK       I    between atoms: C8_9  and  N1_11 
REMARK    4  A    between atoms: N1_11  and  C9_12 
REMARK    5  A    between atoms: C18_23  and  C19_25 
ROOT
HETATM    1  C9  UNL     1      24.485   2.731  50.110  1.00  0.00     0.180 C 
HETATM    2  C10 UNL     1      23.102   2.508  49.991  1.00  0.00     0.053 C 
HETATM    3  C11 UNL     1      21.804   3.058  50.554  1.00  0.00     0.023 C 
HETATM    4  C12 UNL     1      20.832   2.733  51.558  1.00  0.00     0.071 A 
HETATM    5  N2  UNL     1      20.245   1.995  52.605  1.00  0.00    -0.250 NA
HETATM    6  C13 UNL     1      20.559   1.141  53.463  1.00  0.00     0.149 A 
HETATM    7  N3  UNL     1      21.792   0.445  53.828  1.00  0.00    -0.379 N 
HETATM    8  C14 UNL     1      22.729   1.015  52.870  1.00  0.00     0.059 A 
HETATM    9  C15 UNL     1      24.173   0.717  52.985  1.00  0.00     0.056 A 
HETATM   10  C16 UNL     1      25.477   1.215  52.424  1.00  0.00     0.067 A 
HETATM   11  C17 UNL     1      24.262   1.541  52.264  1.00  0.00     0.118 A 
HETATM   12  C18 UNL     1      23.021   1.819  52.148  1.00  0.00     0.048 A 
HETATM   13 BR1  UNL     1      22.940   4.002  52.421  1.00  0.00    -0.086 Br
HETATM   14  C19 UNL     1      21.783   1.876  52.210  1.00  0.00     0.083 A 
HETATM   15  N4  UNL     1      25.418   2.299  51.286  1.00  0.00    -0.389 N 
HETATM   16  H14 UNL     1      22.098  -0.282  54.548  1.00  0.00     0.160 HD
HETATM   17  H17 UNL     1      26.293   2.836  51.433  1.00  0.00     0.156 HD
ENDROOT
BRANCH   1  18
HETATM   18  N1  UNL     1      25.049   3.976  49.708  1.00  0.00    -0.337 N 
HETATM   19  C8  UNL     1      26.341   4.294  49.281  1.00  0.00     0.242 C 
HETATM   20  O2  UNL     1      27.102   3.261  49.261  1.00  0.00    -0.269 OA
HETATM   21  H8  UNL     1      24.457   4.862  49.702  1.00  0.00     0.164 HD
BRANCH  19  22
HETATM   22  C7  UNL     1      26.864   5.570  48.893  1.00  0.00     0.075 C 
HETATM   23  C6  UNL     1      28.032   5.804  48.323  1.00  0.00     0.017 C 
BRANCH  23  24
HETATM   24  C5  UNL     1      28.632   7.059  47.902  1.00  0.00    -0.036 A 
HETATM   25  C4  UNL     1      28.019   7.820  46.897  1.00  0.00     0.014 A 
HETATM   26  C3  UNL     1      28.607   9.005  46.530  1.00  0.00     0.037 A 
HETATM   27  C2  UNL     1      29.766   9.476  47.101  1.00  0.00     0.068 A 
HETATM   28  C21 UNL     1      30.374   8.736  48.088  1.00  0.00     0.037 A 
HETATM   29  C20 UNL     1      29.797   7.547  48.466  1.00  0.00     0.014 A 
BRANCH  27  30
HETATM   30  O1  UNL     1      30.234  10.691  46.622  1.00  0.00    -0.356 OA
HETATM   31  C1  UNL     1      29.392  11.802  46.611  1.00  0.00     0.210 C 
ENDBRANCH  27  30
ENDBRANCH  23  24
ENDBRANCH  19  22
ENDBRANCH   1  18
TORSDOF 5
ENDMDL
MODEL 7
REMARK VINA RESULT:      -7.7      5.661      8.281
REMARK  5 active torsions:
REMARK  status: ('A' for Active; 'I' for Inactive)
REMARK    1  A    between atoms: O1_2  and  C2_3 
REMARK    2  A    between atoms: C5_6  and  C6_7 
REMARK    3  A    between atoms: C7_8  and  C8_9 
REMARK       I    between atoms: C8_9  and  N1_11 
REMARK    4  A    between atoms: N1_11  and  C9_12 
REMARK    5  A    between atoms: C18_23  and  C19_25 
ROOT
HETATM    1  C9  UNL     1      15.623   0.708  51.602  1.00  0.00     0.180 C 
HETATM    2  C10 UNL     1      15.461   1.432  50.407  1.00  0.00     0.053 C 
HETATM    3  C11 UNL     1      15.772   2.812  49.857  1.00  0.00     0.023 C 
HETATM    4  C12 UNL     1      15.106   4.060  49.617  1.00  0.00     0.071 A 
HETATM    5  N2  UNL     1      14.039   4.981  49.607  1.00  0.00    -0.250 NA
HETATM    6  C13 UNL     1      12.932   5.164  50.159  1.00  0.00     0.149 A 
HETATM    7  N3  UNL     1      12.149   4.456  51.170  1.00  0.00    -0.379 N 
HETATM    8  C14 UNL     1      13.026   3.331  51.466  1.00  0.00     0.059 A 
HETATM    9  C15 UNL     1      12.705   2.421  52.585  1.00  0.00     0.056 A 
HETATM   10  C16 UNL     1      13.370   1.332  53.383  1.00  0.00     0.067 A 
HETATM   11  C17 UNL     1      13.734   2.074  52.420  1.00  0.00     0.118 A 
HETATM   12  C18 UNL     1      14.037   2.851  51.453  1.00  0.00     0.048 A 
HETATM   13 BR1  UNL     1      15.972   3.711  52.052  1.00  0.00    -0.086 Br
HETATM   14  C19 UNL     1      14.070   3.692  50.542  1.00  0.00     0.083 A 
HETATM   15  N4  UNL     1      14.793   0.849  52.917  1.00  0.00    -0.389 N 
HETATM   16  H14 UNL     1      11.210   4.580  51.663  1.00  0.00     0.160 HD
HETATM   17  H17 UNL     1      15.239   0.555  53.806  1.00  0.00     0.156 HD
ENDROOT
BRANCH   1  18
HETATM   18  N1  UNL     1      16.929   0.411  52.089  1.00  0.00    -0.337 N 
HETATM   19  C8  UNL     1      17.436  -0.748  52.683  1.00  0.00     0.242 C 
HETATM   20  O2  UNL     1      16.542  -1.664  52.777  1.00  0.00    -0.269 OA
HETATM   21  H8  UNL     1      17.708   1.136  52.030  1.00  0.00     0.164 HD
BRANCH  19  22
HETATM   22  C7  UNL     1      18.762  -0.996  53.166  1.00  0.00     0.075 C 
HETATM   23  C6  UNL     1      19.816  -0.214  53.015  1.00  0.00     0.017 C 
BRANCH  23  24
HETATM   24  C5  UNL     1      21.184  -0.392  53.471  1.00  0.00    -0.036 A 
HETATM   25  C4  UNL     1      21.434  -1.071  54.671  1.00  0.00     0.014 A 
HETATM   26  C3  UNL     1      22.739  -1.229  55.067  1.00  0.00     0.037 A 
HETATM   27  C2  UNL     1      23.807  -0.753  54.343  1.00  0.00     0.068 A 
HETATM   28  C21 UNL     1      23.571  -0.085  53.164  1.00  0.00     0.037 A 
HETATM   29  C20 UNL     1      22.269   0.081  52.755  1.00  0.00     0.014 A 
BRANCH  27  30
HETATM   30  O1  UNL     1      25.064  -0.994  54.876  1.00  0.00    -0.356 OA
HETATM   31  C1  UNL     1      26.099  -0.087  54.647  1.00  0.00     0.210 C 
ENDBRANCH  27  30
ENDBRANCH  23  24
ENDBRANCH  19  22
ENDBRANCH   1  18
TORSDOF 5
ENDMDL
MODEL 8
REMARK VINA RESULT:      -7.6      1.783      2.183
REMARK  5 active torsions:
REMARK  status: ('A' for Active; 'I' for Inactive)
REMARK    1  A    between atoms: O1_2  and  C2_3 
REMARK    2  A    between atoms: C5_6  and  C6_7 
REMARK    3  A    between atoms: C7_8  and  C8_9 
REMARK       I    between atoms: C8_9  and  N1_11 
REMARK    4  A    between atoms: N1_11  and  C9_12 
REMARK    5  A    between atoms: C18_23  and  C19_25 
ROOT
HETATM    1  C9  UNL     1      22.928   1.390  50.919  1.00  0.00     0.180 C 
HETATM    2  C10 UNL     1      21.729   0.834  50.437  1.00  0.00     0.053 C 
HETATM    3  C11 UNL     1      20.235   1.085  50.532  1.00  0.00     0.023 C 
HETATM    4  C12 UNL     1      19.094   0.590  51.248  1.00  0.00     0.071 A 
HETATM    5  N2  UNL     1      18.386  -0.209  52.168  1.00  0.00    -0.250 NA
HETATM    6  C13 UNL     1      18.596  -0.913  53.180  1.00  0.00     0.149 A 
HETATM    7  N3  UNL     1      19.775  -1.269  53.967  1.00  0.00    -0.379 N 
HETATM    8  C14 UNL     1      20.817  -0.544  53.253  1.00  0.00     0.059 A 
HETATM    9  C15 UNL     1      22.184  -0.478  53.813  1.00  0.00     0.056 A 
HETATM   10  C16 UNL     1      23.460   0.289  53.591  1.00  0.00     0.067 A 
HETATM   11  C17 UNL     1      22.312   0.303  53.050  1.00  0.00     0.118 A 
HETATM   12  C18 UNL     1      21.138   0.266  52.550  1.00  0.00     0.048 A 
HETATM   13 BR1  UNL     1      20.513   2.376  52.512  1.00  0.00    -0.086 Br
HETATM   14  C19 UNL     1      19.959   0.026  52.248  1.00  0.00     0.083 A 
HETATM   15  N4  UNL     1      23.523   1.262  52.357  1.00  0.00    -0.389 N 
HETATM   16  H14 UNL     1      19.992  -1.861  54.829  1.00  0.00     0.160 HD
HETATM   17  H17 UNL     1      24.174   2.002  52.679  1.00  0.00     0.156 HD
ENDROOT
BRANCH   1  18
HETATM   18  N1  UNL     1      23.308   2.711  50.542  1.00  0.00    -0.337 N 
HETATM   19  C8  UNL     1      24.570   3.308  50.468  1.00  0.00     0.242 C 
HETATM   20  O2  UNL     1      25.502   2.490  50.798  1.00  0.00    -0.269 OA
HETATM   21  H8  UNL     1      22.572   3.425  50.254  1.00  0.00     0.164 HD
BRANCH  19  22
HETATM   22  C7  UNL     1      24.901   4.649  50.089  1.00  0.00     0.075 C 
HETATM   23  C6  UNL     1      24.276   5.394  49.195  1.00  0.00     0.017 C 
BRANCH  23  24
HETATM   24  C5  UNL     1      24.546   6.752  48.757  1.00  0.00    -0.036 A 
HETATM   25  C4  UNL     1      24.159   7.158  47.472  1.00  0.00     0.014 A 
HETATM   26  C3  UNL     1      24.422   8.451  47.093  1.00  0.00     0.037 A 
HETATM   27  C2  UNL     1      25.044   9.363  47.915  1.00  0.00     0.068 A 
HETATM   28  C21 UNL     1      25.426   8.973  49.177  1.00  0.00     0.037 A 
HETATM   29  C20 UNL     1      25.170   7.681  49.570  1.00  0.00     0.014 A 
BRANCH  27  30
HETATM   30  O1  UNL     1      25.237  10.630  47.387  1.00  0.00    -0.356 OA
HETATM   31  C1  UNL     1      25.851  11.616  48.158  1.00  0.00     0.210 C 
ENDBRANCH  27  30
ENDBRANCH  23  24
ENDBRANCH  19  22
ENDBRANCH   1  18
TORSDOF 5
ENDMDL
MODEL 9
REMARK VINA RESULT:      -7.6      3.315      9.915
REMARK  5 active torsions:
REMARK  status: ('A' for Active; 'I' for Inactive)
REMARK    1  A    between atoms: O1_2  and  C2_3 
REMARK    2  A    between atoms: C5_6  and  C6_7 
REMARK    3  A    between atoms: C7_8  and  C8_9 
REMARK       I    between atoms: C8_9  and  N1_11 
REMARK    4  A    between atoms: N1_11  and  C9_12 
REMARK    5  A    between atoms: C18_23  and  C19_25 
ROOT
HETATM    1  C9  UNL     1      23.874   3.704  51.207  1.00  0.00     0.180 C 
HETATM    2  C10 UNL     1      23.962   5.022  51.691  1.00  0.00     0.053 C 
HETATM    3  C11 UNL     1      23.566   6.424  51.265  1.00  0.00     0.023 C 
HETATM    4  C12 UNL     1      24.160   7.587  50.671  1.00  0.00     0.071 A 
HETATM    5  N2  UNL     1      25.178   8.375  50.099  1.00  0.00    -0.250 NA
HETATM    6  C13 UNL     1      26.292   8.240  49.546  1.00  0.00     0.149 A 
HETATM    7  N3  UNL     1      27.140   7.104  49.190  1.00  0.00    -0.379 N 
HETATM    8  C14 UNL     1      26.330   5.990  49.664  1.00  0.00     0.059 A 
HETATM    9  C15 UNL     1      26.732   4.602  49.352  1.00  0.00     0.056 A 
HETATM   10  C16 UNL     1      26.147   3.217  49.410  1.00  0.00     0.067 A 
HETATM   11  C17 UNL     1      25.716   4.373  49.704  1.00  0.00     0.118 A 
HETATM   12  C18 UNL     1      25.345   5.564  49.980  1.00  0.00     0.048 A 
HETATM   13 BR1  UNL     1      23.389   5.750  48.989  1.00  0.00    -0.086 Br
HETATM   14  C19 UNL     1      25.242   6.785  50.169  1.00  0.00     0.083 A 
HETATM   15  N4  UNL     1      24.736   3.046  50.085  1.00  0.00    -0.389 N 
HETATM   16  H14 UNL     1      28.087   6.950  48.720  1.00  0.00     0.160 HD
HETATM   17  H17 UNL     1      24.333   2.238  49.575  1.00  0.00     0.156 HD
ENDROOT
BRANCH   1  18
HETATM   18  N1  UNL     1      22.600   3.093  51.019  1.00  0.00    -0.337 N 
HETATM   19  C8  UNL     1      22.191   1.769  51.202  1.00  0.00     0.242 C 
HETATM   20  O2  UNL     1      23.155   1.027  51.610  1.00  0.00    -0.269 OA
HETATM   21  H8  UNL     1      21.767   3.668  50.687  1.00  0.00     0.164 HD
BRANCH  19  22
HETATM   22  C7  UNL     1      20.894   1.199  50.991  1.00  0.00     0.075 C 
HETATM   23  C6  UNL     1      20.134   0.610  51.896  1.00  0.00     0.017 C 
BRANCH  23  24
HETATM   24  C5  UNL     1      18.817   0.011  51.764  1.00  0.00    -0.036 A 
HETATM   25  C4  UNL     1      18.067   0.230  50.601  1.00  0.00     0.014 A 
HETATM   26  C3  UNL     1      16.830  -0.359  50.505  1.00  0.00     0.037 A 
HETATM   27  C2  UNL     1      16.297  -1.151  51.495  1.00  0.00     0.068 A 
HETATM   28  C21 UNL     1      17.026  -1.372  52.640  1.00  0.00     0.037 A 
HETATM   29  C20 UNL     1      18.266  -0.788  52.750  1.00  0.00     0.014 A 
BRANCH  27  30
HETATM   30  O1  UNL     1      15.037  -1.674  51.248  1.00  0.00    -0.356 OA
HETATM   31  C1  UNL     1      14.238  -2.091  52.313  1.00  0.00     0.210 C 
ENDBRANCH  27  30
ENDBRANCH  23  24
ENDBRANCH  19  22
ENDBRANCH   1  18
TORSDOF 5
ENDMDL
