MODEL 1
REMARK VINA RESULT:      -7.8      0.000      0.000
REMARK  5 active torsions:
REMARK  status: ('A' for Active; 'I' for Inactive)
REMARK    1  A    between atoms: O1_2  and  C2_3 
REMARK    2  A    between atoms: C5_6  and  C6_7 
REMARK    3  A    between atoms: C6_7  and  C7_8 
REMARK       I    between atoms: C7_8  and  N1_10 
REMARK    4  A    between atoms: N1_10  and  S1_11 
REMARK    5  A    between atoms: S1_11  and  C8_14 
ROOT
HETATM    1  C7  UNL     1      26.179   2.513  50.874  1.00  0.00     0.235 C 
HETATM    2  O2  UNL     1      27.116   2.755  51.672  1.00  0.00    -0.272 OA
HETATM    3  N1  UNL     1      24.972   2.030  51.401  1.00  0.00    -0.254 N 
HETATM    4  H8  UNL     1      24.272   1.865  50.628  1.00  0.00     0.181 HD
ENDROOT
BRANCH   3   5
HETATM    5  S1  UNL     1      24.663   1.738  53.051  1.00  0.00     0.240 S 
HETATM    6  O3  UNL     1      23.170   1.492  53.221  1.00  0.00    -0.205 OA
HETATM    7  O4  UNL     1      25.092   2.887  53.912  1.00  0.00    -0.205 OA
BRANCH   5   8
HETATM    8  C8  UNL     1      25.459   0.282  53.647  1.00  0.00     0.156 A 
HETATM    9  C9  UNL     1      26.545   0.529  54.598  1.00  0.00    -0.002 A 
HETATM   10  C10 UNL     1      27.849   0.217  54.581  1.00  0.00     0.039 A 
HETATM   11  C11 UNL     1      28.383  -0.514  53.405  1.00  0.00     0.112 A 
HETATM   12  F1  UNL     1      29.644  -0.937  53.171  1.00  0.00    -0.206 F 
HETATM   13  C12 UNL     1      27.453  -0.748  52.520  1.00  0.00     0.017 A 
HETATM   14  C13 UNL     1      26.021  -0.457  52.416  1.00  0.00     0.056 A 
ENDBRANCH   5   8
ENDBRANCH   3   5
BRANCH   1  15
HETATM   15  C6  UNL     1      26.668   2.834  49.519  1.00  0.00     0.142 C 
BRANCH  15  16
HETATM   16  C5  UNL     1      26.731   4.300  49.278  1.00  0.00    -0.049 A 
HETATM   17  C4  UNL     1      27.851   4.797  48.613  1.00  0.00     0.010 A 
HETATM   18  C3  UNL     1      28.029   6.113  48.338  1.00  0.00     0.037 A 
HETATM   19  C2  UNL     1      27.040   6.979  48.748  1.00  0.00     0.068 A 
HETATM   20  C15 UNL     1      25.921   6.508  49.412  1.00  0.00     0.037 A 
HETATM   21  C14 UNL     1      25.742   5.164  49.688  1.00  0.00     0.010 A 
BRANCH  19  22
HETATM   22  O1  UNL     1      26.979   8.343  48.591  1.00  0.00    -0.356 OA
HETATM   23  C1  UNL     1      27.452   9.281  49.543  1.00  0.00     0.210 C 
ENDBRANCH  19  22
ENDBRANCH  15  16
ENDBRANCH   1  15
TORSDOF 5
ENDMDL
MODEL 2
REMARK VINA RESULT:      -7.7      1.651      2.276
REMARK  5 active torsions:
REMARK  status: ('A' for Active; 'I' for Inactive)
REMARK    1  A    between atoms: O1_2  and  C2_3 
REMARK    2  A    between atoms: C5_6  and  C6_7 
REMARK    3  A    between atoms: C6_7  and  C7_8 
REMARK       I    between atoms: C7_8  and  N1_10 
REMARK    4  A    between atoms: N1_10  and  S1_11 
REMARK    5  A    between atoms: S1_11  and  C8_14 
ROOT
HETATM    1  C7  UNL     1      24.902   3.059  51.543  1.00  0.00     0.235 C 
HETATM    2  O2  UNL     1      24.434   2.034  50.990  1.00  0.00    -0.272 OA
HETATM    3  N1  UNL     1      25.676   2.889  52.700  1.00  0.00    -0.254 N 
HETATM    4  H8  UNL     1      26.003   3.824  53.064  1.00  0.00     0.181 HD
ENDROOT
BRANCH   3   5
HETATM    5  S1  UNL     1      26.042   1.395  53.431  1.00  0.00     0.240 S 
HETATM    6  O3  UNL     1      24.753   0.593  53.553  1.00  0.00    -0.205 OA
HETATM    7  O4  UNL     1      26.662   1.571  54.784  1.00  0.00    -0.205 OA
BRANCH   5   8
HETATM    8  C8  UNL     1      27.130   0.406  52.457  1.00  0.00     0.156 A 
HETATM    9  C9  UNL     1      26.709  -0.987  52.300  1.00  0.00    -0.002 A 
HETATM   10  C10 UNL     1      27.296  -2.151  52.615  1.00  0.00     0.039 A 
HETATM   11  C11 UNL     1      28.633  -2.112  53.260  1.00  0.00     0.112 A 
HETATM   12  F1  UNL     1      29.412  -3.141  53.656  1.00  0.00    -0.206 F 
HETATM   13  C12 UNL     1      29.048  -0.887  53.434  1.00  0.00     0.017 A 
HETATM   14  C13 UNL     1      28.508   0.444  53.149  1.00  0.00     0.056 A 
ENDBRANCH   5   8
ENDBRANCH   3   5
BRANCH   1  15
HETATM   15  C6  UNL     1      24.461   4.221  50.747  1.00  0.00     0.142 C 
BRANCH  15  16
HETATM   16  C5  UNL     1      25.567   4.802  49.942  1.00  0.00    -0.049 A 
HETATM   17  C4  UNL     1      25.534   6.173  49.694  1.00  0.00     0.010 A 
HETATM   18  C3  UNL     1      26.480   6.821  48.970  1.00  0.00     0.037 A 
HETATM   19  C2  UNL     1      27.514   6.063  48.466  1.00  0.00     0.068 A 
HETATM   20  C15 UNL     1      27.566   4.700  48.699  1.00  0.00     0.037 A 
HETATM   21  C14 UNL     1      26.599   4.043  49.441  1.00  0.00     0.010 A 
BRANCH  19  22
HETATM   22  O1  UNL     1      28.587   6.473  47.713  1.00  0.00    -0.356 OA
HETATM   23  C1  UNL     1      28.601   7.640  46.908  1.00  0.00     0.210 C 
ENDBRANCH  19  22
ENDBRANCH  15  16
ENDBRANCH   1  15
TORSDOF 5
ENDMDL
MODEL 3
REMARK VINA RESULT:      -7.7      2.841      6.811
REMARK  5 active torsions:
REMARK  status: ('A' for Active; 'I' for Inactive)
REMARK    1  A    between atoms: O1_2  and  C2_3 
REMARK    2  A    between atoms: C5_6  and  C6_7 
REMARK    3  A    between atoms: C6_7  and  C7_8 
REMARK       I    between atoms: C7_8  and  N1_10 
REMARK    4  A    between atoms: N1_10  and  S1_11 
REMARK    5  A    between atoms: S1_11  and  C8_14 
ROOT
HETATM    1  C7  UNL     1      23.244   1.689  51.906  1.00  0.00     0.235 C 
HETATM    2  O2  UNL     1      22.693   1.414  50.813  1.00  0.00    -0.272 OA
HETATM    3  N1  UNL     1      23.600   3.025  52.147  1.00  0.00    -0.254 N 
HETATM    4  H8  UNL     1      24.055   3.118  53.095  1.00  0.00     0.181 HD
ENDROOT
BRANCH   3   5
HETATM    5  S1  UNL     1      23.347   4.322  51.073  1.00  0.00     0.240 S 
HETATM    6  O3  UNL     1      23.899   5.589  51.714  1.00  0.00    -0.205 OA
HETATM    7  O4  UNL     1      21.895   4.506  50.750  1.00  0.00    -0.205 OA
BRANCH   5   8
HETATM    8  C8  UNL     1      24.224   4.132  49.555  1.00  0.00     0.156 A 
HETATM    9  C9  UNL     1      25.450   3.339  49.656  1.00  0.00    -0.002 A 
HETATM   10  C10 UNL     1      26.733   3.620  49.385  1.00  0.00     0.039 A 
HETATM   11  C11 UNL     1      27.067   4.979  48.889  1.00  0.00     0.112 A 
HETATM   12  F1  UNL     1      28.271   5.483  48.546  1.00  0.00    -0.206 F 
HETATM   13  C12 UNL     1      26.004   5.731  48.792  1.00  0.00     0.017 A 
HETATM   14  C13 UNL     1      24.575   5.550  49.061  1.00  0.00     0.056 A 
ENDBRANCH   5   8
ENDBRANCH   3   5
BRANCH   1  15
HETATM   15  C6  UNL     1      23.361   0.428  52.664  1.00  0.00     0.142 C 
BRANCH  15  16
HETATM   16  C5  UNL     1      24.744   0.196  53.157  1.00  0.00    -0.049 A 
HETATM   17  C4  UNL     1      25.784   0.310  52.237  1.00  0.00     0.010 A 
HETATM   18  C3  UNL     1      27.087   0.117  52.561  1.00  0.00     0.037 A 
HETATM   19  C2  UNL     1      27.368  -0.206  53.870  1.00  0.00     0.068 A 
HETATM   20  C15 UNL     1      26.350  -0.326  54.799  1.00  0.00     0.037 A 
HETATM   21  C14 UNL     1      25.022  -0.127  54.465  1.00  0.00     0.010 A 
BRANCH  19  22
HETATM   22  O1  UNL     1      28.591  -0.446  54.448  1.00  0.00    -0.356 OA
HETATM   23  C1  UNL     1      29.752  -0.833  53.734  1.00  0.00     0.210 C 
ENDBRANCH  19  22
ENDBRANCH  15  16
ENDBRANCH   1  15
TORSDOF 5
ENDMDL
MODEL 4
REMARK VINA RESULT:      -7.6      3.984      6.142
REMARK  5 active torsions:
REMARK  status: ('A' for Active; 'I' for Inactive)
REMARK    1  A    between atoms: O1_2  and  C2_3 
REMARK    2  A    between atoms: C5_6  and  C6_7 
REMARK    3  A    between atoms: C6_7  and  C7_8 
REMARK       I    between atoms: C7_8  and  N1_10 
REMARK    4  A    between atoms: N1_10  and  S1_11 
REMARK    5  A    between atoms: S1_11  and  C8_14 
ROOT
HETATM    1  C7  UNL     1      23.622   2.601  52.018  1.00  0.00     0.235 C 
HETATM    2  O2  UNL     1      23.446   2.640  53.260  1.00  0.00    -0.272 OA
HETATM    3  N1  UNL     1      22.511   2.342  51.203  1.00  0.00    -0.254 N 
HETATM    4  H8  UNL     1      22.795   2.333  50.186  1.00  0.00     0.181 HD
ENDROOT
BRANCH   3   5
HETATM    5  S1  UNL     1      20.923   2.070  51.756  1.00  0.00     0.240 S 
HETATM    6  O3  UNL     1      19.987   2.095  50.555  1.00  0.00    -0.205 OA
HETATM    7  O4  UNL     1      20.495   3.100  52.757  1.00  0.00    -0.205 OA
BRANCH   5   8
HETATM    8  C8  UNL     1      20.718   0.479  52.489  1.00  0.00     0.156 A 
HETATM    9  C9  UNL     1      20.572   0.495  53.946  1.00  0.00    -0.002 A 
HETATM   10  C10 UNL     1      21.281  -0.074  54.932  1.00  0.00     0.039 A 
HETATM   11  C11 UNL     1      22.465  -0.890  54.566  1.00  0.00     0.112 A 
HETATM   12  F1  UNL     1      23.316  -1.558  55.374  1.00  0.00    -0.206 F 
HETATM   13  C12 UNL     1      22.646  -0.925  53.274  1.00  0.00     0.017 A 
HETATM   14  C13 UNL     1      21.962  -0.350  52.113  1.00  0.00     0.056 A 
ENDBRANCH   5   8
ENDBRANCH   3   5
BRANCH   1  15
HETATM   15  C6  UNL     1      25.054   2.860  51.775  1.00  0.00     0.142 C 
BRANCH  15  16
HETATM   16  C5  UNL     1      25.920   1.787  52.329  1.00  0.00    -0.049 A 
HETATM   17  C4  UNL     1      26.908   2.160  53.239  1.00  0.00     0.010 A 
HETATM   18  C3  UNL     1      27.763   1.277  53.812  1.00  0.00     0.037 A 
HETATM   19  C2  UNL     1      27.628  -0.048  53.459  1.00  0.00     0.068 A 
HETATM   20  C15 UNL     1      26.656  -0.440  52.556  1.00  0.00     0.037 A 
HETATM   21  C14 UNL     1      25.783   0.464  51.976  1.00  0.00     0.010 A 
BRANCH  19  22
HETATM   22  O1  UNL     1      28.358  -1.128  53.893  1.00  0.00    -0.356 OA
HETATM   23  C1  UNL     1      29.747  -1.298  53.667  1.00  0.00     0.210 C 
ENDBRANCH  19  22
ENDBRANCH  15  16
ENDBRANCH   1  15
TORSDOF 5
ENDMDL
MODEL 5
REMARK VINA RESULT:      -7.5      2.114      2.695
REMARK  5 active torsions:
REMARK  status: ('A' for Active; 'I' for Inactive)
REMARK    1  A    between atoms: O1_2  and  C2_3 
REMARK    2  A    between atoms: C5_6  and  C6_7 
REMARK    3  A    between atoms: C6_7  and  C7_8 
REMARK       I    between atoms: C7_8  and  N1_10 
REMARK    4  A    between atoms: N1_10  and  S1_11 
REMARK    5  A    between atoms: S1_11  and  C8_14 
ROOT
HETATM    1  C7  UNL     1      26.020   2.846  50.571  1.00  0.00     0.235 C 
HETATM    2  O2  UNL     1      24.804   2.565  50.438  1.00  0.00    -0.272 OA
HETATM    3  N1  UNL     1      26.602   2.675  51.835  1.00  0.00    -0.254 N 
HETATM    4  H8  UNL     1      27.621   2.949  51.811  1.00  0.00     0.181 HD
ENDROOT
BRANCH   3   5
HETATM    5  S1  UNL     1      25.794   2.113  53.226  1.00  0.00     0.240 S 
HETATM    6  O3  UNL     1      24.574   2.994  53.458  1.00  0.00    -0.205 OA
HETATM    7  O4  UNL     1      26.679   2.138  54.435  1.00  0.00    -0.205 OA
BRANCH   5   8
HETATM    8  C8  UNL     1      25.173   0.473  53.039  1.00  0.00     0.156 A 
HETATM    9  C9  UNL     1      23.712   0.373  53.035  1.00  0.00    -0.002 A 
HETATM   10  C10 UNL     1      22.849  -0.293  53.816  1.00  0.00     0.039 A 
HETATM   11  C11 UNL     1      23.394  -1.107  54.931  1.00  0.00     0.112 A 
HETATM   12  F1  UNL     1      22.729  -1.861  55.833  1.00  0.00    -0.206 F 
HETATM   13  C12 UNL     1      24.696  -1.041  54.984  1.00  0.00     0.017 A 
HETATM   14  C13 UNL     1      25.735  -0.354  54.212  1.00  0.00     0.056 A 
ENDBRANCH   5   8
ENDBRANCH   3   5
BRANCH   1  15
HETATM   15  C6  UNL     1      26.505   3.306  49.255  1.00  0.00     0.142 C 
BRANCH  15  16
HETATM   16  C5  UNL     1      26.643   4.785  49.195  1.00  0.00    -0.049 A 
HETATM   17  C4  UNL     1      27.733   5.304  48.500  1.00  0.00     0.010 A 
HETATM   18  C3  UNL     1      27.972   6.633  48.377  1.00  0.00     0.037 A 
HETATM   19  C2  UNL     1      27.078   7.491  48.978  1.00  0.00     0.068 A 
HETATM   20  C15 UNL     1      25.989   6.998  49.674  1.00  0.00     0.037 A 
HETATM   21  C14 UNL     1      25.747   5.640  49.796  1.00  0.00     0.010 A 
BRANCH  19  22
HETATM   22  O1  UNL     1      27.091   8.865  48.998  1.00  0.00    -0.356 OA
HETATM   23  C1  UNL     1      28.156   9.647  49.511  1.00  0.00     0.210 C 
ENDBRANCH  19  22
ENDBRANCH  15  16
ENDBRANCH   1  15
TORSDOF 5
ENDMDL
MODEL 6
REMARK VINA RESULT:      -7.5      3.035      7.000
REMARK  5 active torsions:
REMARK  status: ('A' for Active; 'I' for Inactive)
REMARK    1  A    between atoms: O1_2  and  C2_3 
REMARK    2  A    between atoms: C5_6  and  C6_7 
REMARK    3  A    between atoms: C6_7  and  C7_8 
REMARK       I    between atoms: C7_8  and  N1_10 
REMARK    4  A    between atoms: N1_10  and  S1_11 
REMARK    5  A    between atoms: S1_11  and  C8_14 
ROOT
HETATM    1  C7  UNL     1      23.197   2.337  51.470  1.00  0.00     0.235 C 
HETATM    2  O2  UNL     1      23.270   3.188  52.390  1.00  0.00    -0.272 OA
HETATM    3  N1  UNL     1      23.266   2.791  50.145  1.00  0.00    -0.254 N 
HETATM    4  H8  UNL     1      23.189   1.979  49.474  1.00  0.00     0.181 HD
ENDROOT
BRANCH   3   5
HETATM    5  S1  UNL     1      23.441   4.416  49.667  1.00  0.00     0.240 S 
HETATM    6  O3  UNL     1      22.383   5.243  50.384  1.00  0.00    -0.205 OA
HETATM    7  O4  UNL     1      23.299   4.582  48.184  1.00  0.00    -0.205 OA
BRANCH   5   8
HETATM    8  C8  UNL     1      24.992   5.106  50.145  1.00  0.00     0.156 A 
HETATM    9  C9  UNL     1      25.420   6.256  49.346  1.00  0.00    -0.002 A 
HETATM   10  C10 UNL     1      26.507   6.480  48.594  1.00  0.00     0.039 A 
HETATM   11  C11 UNL     1      27.525   5.404  48.491  1.00  0.00     0.112 A 
HETATM   12  F1  UNL     1      28.690   5.405  47.809  1.00  0.00    -0.206 F 
HETATM   13  C12 UNL     1      27.184   4.350  49.179  1.00  0.00     0.017 A 
HETATM   14  C13 UNL     1      26.040   3.981  50.017  1.00  0.00     0.056 A 
ENDBRANCH   5   8
ENDBRANCH   3   5
BRANCH   1  15
HETATM   15  C6  UNL     1      23.049   1.016  52.111  1.00  0.00     0.142 C 
BRANCH  15  16
HETATM   16  C5  UNL     1      24.337   0.508  52.654  1.00  0.00    -0.049 A 
HETATM   17  C4  UNL     1      24.293  -0.235  53.832  1.00  0.00     0.010 A 
HETATM   18  C3  UNL     1      25.397  -0.748  54.429  1.00  0.00     0.037 A 
HETATM   19  C2  UNL     1      26.609  -0.509  53.820  1.00  0.00     0.068 A 
HETATM   20  C15 UNL     1      26.676   0.227  52.650  1.00  0.00     0.037 A 
HETATM   21  C14 UNL     1      25.546   0.748  52.043  1.00  0.00     0.010 A 
BRANCH  19  22
HETATM   22  O1  UNL     1      27.860  -0.916  54.216  1.00  0.00    -0.356 OA
HETATM   23  C1  UNL     1      28.961  -0.045  54.412  1.00  0.00     0.210 C 
ENDBRANCH  19  22
ENDBRANCH  15  16
ENDBRANCH   1  15
TORSDOF 5
ENDMDL
MODEL 7
REMARK VINA RESULT:      -7.5      1.720      2.310
REMARK  5 active torsions:
REMARK  status: ('A' for Active; 'I' for Inactive)
REMARK    1  A    between atoms: O1_2  and  C2_3 
REMARK    2  A    between atoms: C5_6  and  C6_7 
REMARK    3  A    between atoms: C6_7  and  C7_8 
REMARK       I    between atoms: C7_8  and  N1_10 
REMARK    4  A    between atoms: N1_10  and  S1_11 
REMARK    5  A    between atoms: S1_11  and  C8_14 
ROOT
HETATM    1  C7  UNL     1      24.763   3.795  50.382  1.00  0.00     0.235 C 
HETATM    2  O2  UNL     1      24.082   2.860  49.897  1.00  0.00    -0.272 OA
HETATM    3  N1  UNL     1      25.385   3.584  51.621  1.00  0.00    -0.254 N 
HETATM    4  H8  UNL     1      25.920   4.445  51.916  1.00  0.00     0.181 HD
ENDROOT
BRANCH   3   5
HETATM    5  S1  UNL     1      25.296   2.151  52.538  1.00  0.00     0.240 S 
HETATM    6  O3  UNL     1      25.627   0.977  51.625  1.00  0.00    -0.205 OA
HETATM    7  O4  UNL     1      23.939   1.958  53.144  1.00  0.00    -0.205 OA
BRANCH   5   8
HETATM    8  C8  UNL     1      26.486   2.097  53.838  1.00  0.00     0.156 A 
HETATM    9  C9  UNL     1      27.873   2.265  53.400  1.00  0.00    -0.002 A 
HETATM   10  C10 UNL     1      28.959   1.486  53.514  1.00  0.00     0.039 A 
HETATM   11  C11 UNL     1      28.815   0.176  54.198  1.00  0.00     0.112 A 
HETATM   12  F1  UNL     1      29.756  -0.762  54.436  1.00  0.00    -0.206 F 
HETATM   13  C12 UNL     1      27.590  -0.028  54.597  1.00  0.00     0.017 A 
HETATM   14  C13 UNL     1      26.335   0.725  54.526  1.00  0.00     0.056 A 
ENDBRANCH   5   8
ENDBRANCH   3   5
BRANCH   1  15
HETATM   15  C6  UNL     1      24.697   4.920  49.430  1.00  0.00     0.142 C 
BRANCH  15  16
HETATM   16  C5  UNL     1      26.045   5.352  48.977  1.00  0.00    -0.049 A 
HETATM   17  C4  UNL     1      26.203   6.684  48.598  1.00  0.00     0.010 A 
HETATM   18  C3  UNL     1      27.380   7.198  48.163  1.00  0.00     0.037 A 
HETATM   19  C2  UNL     1      28.456   6.341  48.102  1.00  0.00     0.068 A 
HETATM   20  C15 UNL     1      28.322   5.014  48.472  1.00  0.00     0.037 A 
HETATM   21  C14 UNL     1      27.119   4.494  48.917  1.00  0.00     0.010 A 
BRANCH  19  22
HETATM   22  O1  UNL     1      29.744   6.611  47.703  1.00  0.00    -0.356 OA
HETATM   23  C1  UNL     1      30.526   7.684  48.198  1.00  0.00     0.210 C 
ENDBRANCH  19  22
ENDBRANCH  15  16
ENDBRANCH   1  15
TORSDOF 5
ENDMDL
MODEL 8
REMARK VINA RESULT:      -7.4      2.254      3.152
REMARK  5 active torsions:
REMARK  status: ('A' for Active; 'I' for Inactive)
REMARK    1  A    between atoms: O1_2  and  C2_3 
REMARK    2  A    between atoms: C5_6  and  C6_7 
REMARK    3  A    between atoms: C6_7  and  C7_8 
REMARK       I    between atoms: C7_8  and  N1_10 
REMARK    4  A    between atoms: N1_10  and  S1_11 
REMARK    5  A    between atoms: S1_11  and  C8_14 
ROOT
HETATM    1  C7  UNL     1      25.953   3.394  50.321  1.00  0.00     0.235 C 
HETATM    2  O2  UNL     1      26.468   2.421  49.718  1.00  0.00    -0.272 OA
HETATM    3  N1  UNL     1      25.899   3.347  51.722  1.00  0.00    -0.254 N 
HETATM    4  H8  UNL     1      25.442   4.220  52.102  1.00  0.00     0.181 HD
ENDROOT
BRANCH   3   5
HETATM    5  S1  UNL     1      26.478   2.070  52.689  1.00  0.00     0.240 S 
HETATM    6  O3  UNL     1      26.284   2.451  54.151  1.00  0.00    -0.205 OA
HETATM    7  O4  UNL     1      27.925   1.780  52.426  1.00  0.00    -0.205 OA
BRANCH   5   8
HETATM    8  C8  UNL     1      25.572   0.575  52.459  1.00  0.00     0.156 A 
HETATM    9  C9  UNL     1      24.122   0.751  52.359  1.00  0.00    -0.002 A 
HETATM   10  C10 UNL     1      23.100   0.268  53.081  1.00  0.00     0.039 A 
HETATM   11  C11 UNL     1      23.408  -0.621  54.228  1.00  0.00     0.112 A 
HETATM   12  F1  UNL     1      22.556  -1.227  55.083  1.00  0.00    -0.206 F 
HETATM   13  C12 UNL     1      24.693  -0.801  54.367  1.00  0.00     0.017 A 
HETATM   14  C13 UNL     1      25.890  -0.331  53.666  1.00  0.00     0.056 A 
ENDBRANCH   5   8
ENDBRANCH   3   5
BRANCH   1  15
HETATM   15  C6  UNL     1      25.527   4.365  49.295  1.00  0.00     0.142 C 
BRANCH  15  16
HETATM   16  C5  UNL     1      26.615   5.311  48.932  1.00  0.00    -0.049 A 
HETATM   17  C4  UNL     1      26.320   6.673  48.955  1.00  0.00     0.010 A 
HETATM   18  C3  UNL     1      27.223   7.635  48.641  1.00  0.00     0.037 A 
HETATM   19  C2  UNL     1      28.486   7.217  48.284  1.00  0.00     0.068 A 
HETATM   20  C15 UNL     1      28.800   5.870  48.253  1.00  0.00     0.037 A 
HETATM   21  C14 UNL     1      27.876   4.892  48.577  1.00  0.00     0.010 A 
BRANCH  19  22
HETATM   22  O1  UNL     1      29.571   7.982  47.928  1.00  0.00    -0.356 OA
HETATM   23  C1  UNL     1      30.880   7.802  48.441  1.00  0.00     0.210 C 
ENDBRANCH  19  22
ENDBRANCH  15  16
ENDBRANCH   1  15
TORSDOF 5
ENDMDL
MODEL 9
REMARK VINA RESULT:      -6.9      4.734      7.732
REMARK  5 active torsions:
REMARK  status: ('A' for Active; 'I' for Inactive)
REMARK    1  A    between atoms: O1_2  and  C2_3 
REMARK    2  A    between atoms: C5_6  and  C6_7 
REMARK    3  A    between atoms: C6_7  and  C7_8 
REMARK       I    between atoms: C7_8  and  N1_10 
REMARK    4  A    between atoms: N1_10  and  S1_11 
REMARK    5  A    between atoms: S1_11  and  C8_14 
ROOT
HETATM    1  C7  UNL     1      28.703   6.650  48.090  1.00  0.00     0.235 C 
HETATM    2  O2  UNL     1      29.077   7.158  47.005  1.00  0.00    -0.272 OA
HETATM    3  N1  UNL     1      29.688   6.174  48.968  1.00  0.00    -0.254 N 
HETATM    4  H8  UNL     1      29.243   5.771  49.836  1.00  0.00     0.181 HD
ENDROOT
BRANCH   3   5
HETATM    5  S1  UNL     1      31.368   6.223  48.687  1.00  0.00     0.240 S 
HETATM    6  O3  UNL     1      32.056   5.383  49.754  1.00  0.00    -0.205 OA
HETATM    7  O4  UNL     1      31.899   7.624  48.721  1.00  0.00    -0.205 OA
BRANCH   5   8
HETATM    8  C8  UNL     1      31.823   5.504  47.143  1.00  0.00     0.156 A 
HETATM    9  C9  UNL     1      31.820   4.040  47.130  1.00  0.00    -0.002 A 
HETATM   10  C10 UNL     1      32.777   3.136  46.873  1.00  0.00     0.039 A 
HETATM   11  C11 UNL     1      34.137   3.627  46.535  1.00  0.00     0.112 A 
HETATM   12  F1  UNL     1      35.243   2.915  46.235  1.00  0.00    -0.206 F 
HETATM   13  C12 UNL     1      34.194   4.931  46.546  1.00  0.00     0.017 A 
HETATM   14  C13 UNL     1      33.242   6.011  46.815  1.00  0.00     0.056 A 
ENDBRANCH   5   8
ENDBRANCH   3   5
BRANCH   1  15
HETATM   15  C6  UNL     1      27.229   6.712  48.115  1.00  0.00     0.142 C 
BRANCH  15  16
HETATM   16  C5  UNL     1      26.634   5.605  48.908  1.00  0.00    -0.049 A 
HETATM   17  C4  UNL     1      25.511   5.895  49.680  1.00  0.00     0.010 A 
HETATM   18  C3  UNL     1      24.880   4.974  50.450  1.00  0.00     0.037 A 
HETATM   19  C2  UNL     1      25.396   3.697  50.451  1.00  0.00     0.068 A 
HETATM   20  C15 UNL     1      26.511   3.387  49.693  1.00  0.00     0.037 A 
HETATM   21  C14 UNL     1      27.150   4.329  48.907  1.00  0.00     0.010 A 
BRANCH  19  22
HETATM   22  O1  UNL     1      24.946   2.593  51.136  1.00  0.00    -0.356 OA
HETATM   23  C1  UNL     1      24.106   2.646  52.276  1.00  0.00     0.210 C 
ENDBRANCH  19  22
ENDBRANCH  15  16
ENDBRANCH   1  15
TORSDOF 5
ENDMDL
