MODEL 1
REMARK VINA RESULT:      -7.1      0.000      0.000
REMARK  8 active torsions:
REMARK  status: ('A' for Active; 'I' for Inactive)
REMARK    1  A    between atoms: C12_13  and  O1_14 
REMARK    2  A    between atoms: O1_14  and  C13_15 
REMARK    3  A    between atoms: C13_15  and  C14_16 
REMARK    4  A    between atoms: C14_16  and  O2_17 
REMARK    5  A    between atoms: C16_19  and  O3_20 
REMARK    6  A    between atoms: O3_20  and  C17_21 
REMARK    7  A    between atoms: C17_21  and  C18_22 
REMARK    8  A    between atoms: C18_22  and  O4_23 
ROOT
HETATM    1  C1  UNL     1      20.041   2.838  52.297  1.00  0.00     0.017 C 
HETATM    2  C2  UNL     1      20.825   1.990  52.747  1.00  0.00    -0.080 C 
HETATM    3  C3  UNL     1      21.747   0.974  53.260  1.00  0.00     0.021 C 
HETATM    4  C4  UNL     1      21.103   0.210  54.113  1.00  0.00     0.011 C 
HETATM    5  C5  UNL     1      21.850  -0.874  54.745  1.00  0.00     0.148 C 
HETATM    6  N1  UNL     1      22.997  -1.195  53.869  1.00  0.00    -0.388 N 
HETATM    7  C6  UNL     1      23.840  -0.204  53.217  1.00  0.00     0.033 C 
HETATM    8  C7  UNL     1      25.113  -0.526  53.291  1.00  0.00     0.033 C 
HETATM    9  C8  UNL     1      26.513  -0.264  53.004  1.00  0.00    -0.063 C 
HETATM   10  C9  UNL     1      27.802  -0.840  53.301  1.00  0.00     0.048 C 
HETATM   11  C10 UNL     1      26.758   0.839  52.238  1.00  0.00    -0.011 C 
HETATM   12  C11 UNL     1      26.234   1.978  51.484  1.00  0.00     0.062 C 
HETATM   13  C12 UNL     1      25.112   2.583  51.078  1.00  0.00     0.147 C 
HETATM   14  C16 UNL     1      23.577   2.656  51.002  1.00  0.00     0.256 C 
HETATM   15  N2  UNL     1      23.057   1.359  51.405  1.00  0.00    -0.380 N 
HETATM   16  C20 UNL     1      23.170   0.997  52.744  1.00  0.00     0.170 C 
HETATM   17  H5  UNL     1      23.238  -2.223  53.696  1.00  0.00     0.159 HD
HETATM   18  H27 UNL     1      22.195   1.109  50.886  1.00  0.00     0.157 HD
ENDROOT
BRANCH  14  19
HETATM   19  O3  UNL     1      23.222   2.840  49.673  1.00  0.00    -0.362 OA
BRANCH  19  20
HETATM   20  C17 UNL     1      22.520   4.030  49.554  1.00  0.00     0.196 C 
BRANCH  20  21
HETATM   21  C18 UNL     1      23.360   5.080  48.861  1.00  0.00     0.193 C 
BRANCH  21  22
HETATM   22  O4  UNL     1      23.190   6.280  49.539  1.00  0.00    -0.394 OA
HETATM   23  C19 UNL     1      24.120   6.315  50.586  1.00  0.00     0.201 C 
ENDBRANCH  21  22
ENDBRANCH  20  21
ENDBRANCH  19  20
ENDBRANCH  14  19
BRANCH  13  24
HETATM   24  O1  UNL     1      26.126   3.380  50.576  1.00  0.00    -0.369 OA
BRANCH  24  25
HETATM   25  C13 UNL     1      26.693   3.374  49.312  1.00  0.00     0.195 C 
BRANCH  25  26
HETATM   26  C14 UNL     1      27.144   4.783  48.891  1.00  0.00     0.193 C 
BRANCH  26  27
HETATM   27  O2  UNL     1      28.466   4.788  48.513  1.00  0.00    -0.394 OA
HETATM   28  C15 UNL     1      28.955   6.018  48.113  1.00  0.00     0.201 C 
ENDBRANCH  26  27
ENDBRANCH  25  26
ENDBRANCH  24  25
ENDBRANCH  13  24
TORSDOF 8
ENDMDL
MODEL 2
REMARK VINA RESULT:      -7.0      2.609      5.876
REMARK  8 active torsions:
REMARK  status: ('A' for Active; 'I' for Inactive)
REMARK    1  A    between atoms: C12_13  and  O1_14 
REMARK    2  A    between atoms: O1_14  and  C13_15 
REMARK    3  A    between atoms: C13_15  and  C14_16 
REMARK    4  A    between atoms: C14_16  and  O2_17 
REMARK    5  A    between atoms: C16_19  and  O3_20 
REMARK    6  A    between atoms: O3_20  and  C17_21 
REMARK    7  A    between atoms: C17_21  and  C18_22 
REMARK    8  A    between atoms: C18_22  and  O4_23 
ROOT
HETATM    1  C1  UNL     1      19.994   0.620  50.676  1.00  0.00     0.017 C 
HETATM    2  C2  UNL     1      20.716   1.417  50.060  1.00  0.00    -0.080 C 
HETATM    3  C3  UNL     1      21.564   2.376  49.348  1.00  0.00     0.021 C 
HETATM    4  C4  UNL     1      20.874   2.899  48.359  1.00  0.00     0.011 C 
HETATM    5  C5  UNL     1      21.543   3.887  47.518  1.00  0.00     0.148 C 
HETATM    6  N1  UNL     1      22.651   4.467  48.306  1.00  0.00    -0.388 N 
HETATM    7  C6  UNL     1      23.560   3.697  49.143  1.00  0.00     0.033 C 
HETATM    8  C7  UNL     1      24.805   4.095  49.000  1.00  0.00     0.033 C 
HETATM    9  C8  UNL     1      26.217   4.006  49.329  1.00  0.00    -0.063 C 
HETATM   10  C9  UNL     1      27.462   4.608  48.916  1.00  0.00     0.048 C 
HETATM   11  C10 UNL     1      26.537   3.104  50.302  1.00  0.00    -0.011 C 
HETATM   12  C11 UNL     1      26.093   2.104  51.274  1.00  0.00     0.062 C 
HETATM   13  C12 UNL     1      25.015   1.509  51.799  1.00  0.00     0.147 C 
HETATM   14  C16 UNL     1      23.489   1.334  51.894  1.00  0.00     0.256 C 
HETATM   15  N2  UNL     1      22.877   2.478  51.237  1.00  0.00    -0.380 N 
HETATM   16  C20 UNL     1      22.978   2.569  49.853  1.00  0.00     0.170 C 
HETATM   17  H5  UNL     1      22.811   5.524  48.266  1.00  0.00     0.159 HD
HETATM   18  H27 UNL     1      21.992   2.760  51.698  1.00  0.00     0.157 HD
ENDROOT
BRANCH  14  19
HETATM   19  O3  UNL     1      23.134   1.396  53.234  1.00  0.00    -0.362 OA
BRANCH  19  20
HETATM   20  C17 UNL     1      22.057   0.551  53.454  1.00  0.00     0.196 C 
BRANCH  20  21
HETATM   21  C18 UNL     1      22.468  -0.895  53.280  1.00  0.00     0.193 C 
BRANCH  21  22
HETATM   22  O4  UNL     1      22.029  -1.601  54.392  1.00  0.00    -0.394 OA
HETATM   23  C19 UNL     1      22.984  -1.444  55.403  1.00  0.00     0.201 C 
ENDBRANCH  21  22
ENDBRANCH  20  21
ENDBRANCH  19  20
ENDBRANCH  14  19
BRANCH  13  24
HETATM   24  O1  UNL     1      26.081   0.911  52.449  1.00  0.00    -0.369 OA
BRANCH  24  25
HETATM   25  C13 UNL     1      26.080  -0.181  53.300  1.00  0.00     0.195 C 
BRANCH  25  26
HETATM   26  C14 UNL     1      26.504   0.215  54.724  1.00  0.00     0.193 C 
BRANCH  26  27
HETATM   27  O2  UNL     1      27.710  -0.354  55.059  1.00  0.00    -0.394 OA
HETATM   28  C15 UNL     1      28.824   0.372  54.682  1.00  0.00     0.201 C 
ENDBRANCH  26  27
ENDBRANCH  25  26
ENDBRANCH  24  25
ENDBRANCH  13  24
TORSDOF 8
ENDMDL
MODEL 3
REMARK VINA RESULT:      -7.0      2.160      5.304
REMARK  8 active torsions:
REMARK  status: ('A' for Active; 'I' for Inactive)
REMARK    1  A    between atoms: C12_13  and  O1_14 
REMARK    2  A    between atoms: O1_14  and  C13_15 
REMARK    3  A    between atoms: C13_15  and  C14_16 
REMARK    4  A    between atoms: C14_16  and  O2_17 
REMARK    5  A    between atoms: C16_19  and  O3_20 
REMARK    6  A    between atoms: O3_20  and  C17_21 
REMARK    7  A    between atoms: C17_21  and  C18_22 
REMARK    8  A    between atoms: C18_22  and  O4_23 
ROOT
HETATM    1  C1  UNL     1      26.609   3.647  49.527  1.00  0.00     0.017 C 
HETATM    2  C2  UNL     1      26.418   2.910  50.504  1.00  0.00    -0.080 C 
HETATM    3  C3  UNL     1      26.183   2.058  51.672  1.00  0.00     0.021 C 
HETATM    4  C4  UNL     1      27.311   1.924  52.333  1.00  0.00     0.011 C 
HETATM    5  C5  UNL     1      27.292   1.103  53.540  1.00  0.00     0.148 C 
HETATM    6  N1  UNL     1      25.900   1.067  54.034  1.00  0.00    -0.388 N 
HETATM    7  C6  UNL     1      24.728   0.892  53.188  1.00  0.00     0.033 C 
HETATM    8  C7  UNL     1      23.864   0.058  53.723  1.00  0.00     0.033 C 
HETATM    9  C8  UNL     1      22.601  -0.659  53.697  1.00  0.00    -0.063 C 
HETATM   10  C9  UNL     1      21.899  -1.640  54.489  1.00  0.00     0.048 C 
HETATM   11  C10 UNL     1      21.788  -0.377  52.637  1.00  0.00    -0.011 C 
HETATM   12  C11 UNL     1      21.554   0.386  51.411  1.00  0.00     0.062 C 
HETATM   13  C12 UNL     1      22.055   1.338  50.615  1.00  0.00     0.147 C 
HETATM   14  C16 UNL     1      23.143   2.374  50.281  1.00  0.00     0.256 C 
HETATM   15  N2  UNL     1      23.945   2.567  51.479  1.00  0.00    -0.380 N 
HETATM   16  C20 UNL     1      24.779   1.529  51.882  1.00  0.00     0.170 C 
HETATM   17  H5  UNL     1      25.725   1.172  55.084  1.00  0.00     0.159 HD
HETATM   18  H27 UNL     1      24.277   3.545  51.568  1.00  0.00     0.157 HD
ENDROOT
BRANCH  14  19
HETATM   19  O3  UNL     1      22.515   3.582  50.013  1.00  0.00    -0.362 OA
BRANCH  19  20
HETATM   20  C17 UNL     1      22.144   4.173  51.212  1.00  0.00     0.196 C 
BRANCH  20  21
HETATM   21  C18 UNL     1      22.527   5.637  51.228  1.00  0.00     0.193 C 
BRANCH  21  22
HETATM   22  O4  UNL     1      23.832   5.733  51.694  1.00  0.00    -0.394 OA
HETATM   23  C19 UNL     1      24.533   6.582  50.830  1.00  0.00     0.201 C 
ENDBRANCH  21  22
ENDBRANCH  20  21
ENDBRANCH  19  20
ENDBRANCH  14  19
BRANCH  13  24
HETATM   24  O1  UNL     1      20.877   0.965  49.993  1.00  0.00    -0.369 OA
BRANCH  24  25
HETATM   25  C13 UNL     1      19.581   1.369  50.267  1.00  0.00     0.195 C 
BRANCH  25  26
HETATM   26  C14 UNL     1      19.190   2.605  49.440  1.00  0.00     0.193 C 
BRANCH  26  27
HETATM   27  O2  UNL     1      18.735   3.619  50.249  1.00  0.00    -0.394 OA
HETATM   28  C15 UNL     1      18.550   3.273  51.574  1.00  0.00     0.201 C 
ENDBRANCH  26  27
ENDBRANCH  25  26
ENDBRANCH  24  25
ENDBRANCH  13  24
TORSDOF 8
ENDMDL
MODEL 4
REMARK VINA RESULT:      -6.8      2.018      4.581
REMARK  8 active torsions:
REMARK  status: ('A' for Active; 'I' for Inactive)
REMARK    1  A    between atoms: C12_13  and  O1_14 
REMARK    2  A    between atoms: O1_14  and  C13_15 
REMARK    3  A    between atoms: C13_15  and  C14_16 
REMARK    4  A    between atoms: C14_16  and  O2_17 
REMARK    5  A    between atoms: C16_19  and  O3_20 
REMARK    6  A    between atoms: O3_20  and  C17_21 
REMARK    7  A    between atoms: C17_21  and  C18_22 
REMARK    8  A    between atoms: C18_22  and  O4_23 
ROOT
HETATM    1  C1  UNL     1      23.243   6.122  51.118  1.00  0.00     0.017 C 
HETATM    2  C2  UNL     1      22.531   5.149  51.402  1.00  0.00    -0.080 C 
HETATM    3  C3  UNL     1      21.693   3.989  51.715  1.00  0.00     0.021 C 
HETATM    4  C4  UNL     1      20.435   4.308  51.514  1.00  0.00     0.011 C 
HETATM    5  C5  UNL     1      19.429   3.282  51.772  1.00  0.00     0.148 C 
HETATM    6  N1  UNL     1      20.096   1.967  51.671  1.00  0.00    -0.388 N 
HETATM    7  C6  UNL     1      21.404   1.660  52.232  1.00  0.00     0.033 C 
HETATM    8  C7  UNL     1      21.417   0.483  52.817  1.00  0.00     0.033 C 
HETATM    9  C8  UNL     1      22.102  -0.573  53.542  1.00  0.00    -0.063 C 
HETATM   10  C9  UNL     1      21.791  -1.845  54.148  1.00  0.00     0.048 C 
HETATM   11  C10 UNL     1      23.435  -0.367  53.756  1.00  0.00    -0.011 C 
HETATM   12  C11 UNL     1      24.614   0.478  53.570  1.00  0.00     0.062 C 
HETATM   13  C12 UNL     1      25.060   1.604  53.001  1.00  0.00     0.147 C 
HETATM   14  C16 UNL     1      24.827   2.858  52.140  1.00  0.00     0.256 C 
HETATM   15  N2  UNL     1      23.566   2.677  51.438  1.00  0.00    -0.380 N 
HETATM   16  C20 UNL     1      22.391   2.727  52.180  1.00  0.00     0.170 C 
HETATM   17  H5  UNL     1      19.594   1.175  51.156  1.00  0.00     0.159 HD
HETATM   18  H27 UNL     1      23.585   3.104  50.493  1.00  0.00     0.157 HD
ENDROOT
BRANCH  14  19
HETATM   19  O3  UNL     1      25.825   2.908  51.177  1.00  0.00    -0.362 OA
BRANCH  19  20
HETATM   20  C17 UNL     1      25.257   3.244  49.957  1.00  0.00     0.196 C 
BRANCH  20  21
HETATM   21  C18 UNL     1      25.992   4.408  49.329  1.00  0.00     0.193 C 
BRANCH  21  22
HETATM   22  O4  UNL     1      27.342   4.087  49.284  1.00  0.00    -0.394 OA
HETATM   23  C19 UNL     1      27.986   5.055  48.505  1.00  0.00     0.201 C 
ENDBRANCH  21  22
ENDBRANCH  20  21
ENDBRANCH  19  20
ENDBRANCH  14  19
BRANCH  13  24
HETATM   24  O1  UNL     1      26.169   1.093  53.652  1.00  0.00    -0.369 OA
BRANCH  24  25
HETATM   25  C13 UNL     1      27.502   1.155  53.281  1.00  0.00     0.195 C 
BRANCH  25  26
HETATM   26  C14 UNL     1      28.429   0.772  54.446  1.00  0.00     0.193 C 
BRANCH  26  27
HETATM   27  O2  UNL     1      28.591  -0.591  54.524  1.00  0.00    -0.394 OA
HETATM   28  C15 UNL     1      29.072  -1.189  53.374  1.00  0.00     0.201 C 
ENDBRANCH  26  27
ENDBRANCH  25  26
ENDBRANCH  24  25
ENDBRANCH  13  24
TORSDOF 8
ENDMDL
MODEL 5
REMARK VINA RESULT:      -6.1      2.331      5.988
REMARK  8 active torsions:
REMARK  status: ('A' for Active; 'I' for Inactive)
REMARK    1  A    between atoms: C12_13  and  O1_14 
REMARK    2  A    between atoms: O1_14  and  C13_15 
REMARK    3  A    between atoms: C13_15  and  C14_16 
REMARK    4  A    between atoms: C14_16  and  O2_17 
REMARK    5  A    between atoms: C16_19  and  O3_20 
REMARK    6  A    between atoms: O3_20  and  C17_21 
REMARK    7  A    between atoms: C17_21  and  C18_22 
REMARK    8  A    between atoms: C18_22  and  O4_23 
ROOT
HETATM    1  C1  UNL     1      25.960   4.613  49.557  1.00  0.00     0.017 C 
HETATM    2  C2  UNL     1      25.745   3.635  50.287  1.00  0.00    -0.080 C 
HETATM    3  C3  UNL     1      25.496   2.493  51.169  1.00  0.00     0.021 C 
HETATM    4  C4  UNL     1      26.582   1.756  51.225  1.00  0.00     0.011 C 
HETATM    5  C5  UNL     1      26.542   0.557  52.058  1.00  0.00     0.148 C 
HETATM    6  N1  UNL     1      25.480   0.751  53.067  1.00  0.00    -0.388 N 
HETATM    7  C6  UNL     1      24.168   1.315  52.788  1.00  0.00     0.033 C 
HETATM    8  C7  UNL     1      23.213   0.646  53.396  1.00  0.00     0.033 C 
HETATM    9  C8  UNL     1      21.813   0.433  53.720  1.00  0.00    -0.063 C 
HETATM   10  C9  UNL     1      21.004  -0.519  54.442  1.00  0.00     0.048 C 
HETATM   11  C10 UNL     1      20.949   1.366  53.224  1.00  0.00    -0.011 C 
HETATM   12  C11 UNL     1      20.742   2.601  52.467  1.00  0.00     0.062 C 
HETATM   13  C12 UNL     1      21.367   3.592  51.820  1.00  0.00     0.147 C 
HETATM   14  C16 UNL     1      22.658   4.281  51.345  1.00  0.00     0.256 C 
HETATM   15  N2  UNL     1      23.764   3.700  52.091  1.00  0.00    -0.380 N 
HETATM   16  C20 UNL     1      24.126   2.387  51.807  1.00  0.00     0.170 C 
HETATM   17  H5  UNL     1      25.674   0.459  54.078  1.00  0.00     0.159 HD
HETATM   18  H27 UNL     1      24.506   4.397  52.287  1.00  0.00     0.157 HD
ENDROOT
BRANCH  14  19
HETATM   19  O3  UNL     1      22.586   5.619  51.702  1.00  0.00    -0.362 OA
BRANCH  19  20
HETATM   20  C17 UNL     1      22.720   6.398  50.563  1.00  0.00     0.196 C 
BRANCH  20  21
HETATM   21  C18 UNL     1      23.669   7.549  50.810  1.00  0.00     0.193 C 
BRANCH  21  22
HETATM   22  O4  UNL     1      24.202   7.934  49.587  1.00  0.00    -0.394 OA
HETATM   23  C19 UNL     1      23.423   7.354  48.579  1.00  0.00     0.201 C 
ENDBRANCH  21  22
ENDBRANCH  20  21
ENDBRANCH  19  20
ENDBRANCH  14  19
BRANCH  13  24
HETATM   24  O1  UNL     1      20.024   3.895  51.684  1.00  0.00    -0.369 OA
BRANCH  24  25
HETATM   25  C13 UNL     1      19.015   3.140  51.109  1.00  0.00     0.195 C 
BRANCH  25  26
HETATM   26  C14 UNL     1      17.698   3.929  51.028  1.00  0.00     0.193 C 
BRANCH  26  27
HETATM   27  O2  UNL     1      17.048   3.934  52.240  1.00  0.00    -0.394 OA
HETATM   28  C15 UNL     1      15.668   3.910  52.164  1.00  0.00     0.201 C 
ENDBRANCH  26  27
ENDBRANCH  25  26
ENDBRANCH  24  25
ENDBRANCH  13  24
TORSDOF 8
ENDMDL
MODEL 6
REMARK VINA RESULT:      -6.0      2.492      5.594
REMARK  8 active torsions:
REMARK  status: ('A' for Active; 'I' for Inactive)
REMARK    1  A    between atoms: C12_13  and  O1_14 
REMARK    2  A    between atoms: O1_14  and  C13_15 
REMARK    3  A    between atoms: C13_15  and  C14_16 
REMARK    4  A    between atoms: C14_16  and  O2_17 
REMARK    5  A    between atoms: C16_19  and  O3_20 
REMARK    6  A    between atoms: O3_20  and  C17_21 
REMARK    7  A    between atoms: C17_21  and  C18_22 
REMARK    8  A    between atoms: C18_22  and  O4_23 
ROOT
HETATM    1  C1  UNL     1      25.309   1.648  51.769  1.00  0.00     0.017 C 
HETATM    2  C2  UNL     1      24.466   0.988  52.391  1.00  0.00    -0.080 C 
HETATM    3  C3  UNL     1      23.464   0.227  53.141  1.00  0.00     0.021 C 
HETATM    4  C4  UNL     1      24.064  -0.424  54.111  1.00  0.00     0.011 C 
HETATM    5  C5  UNL     1      23.235  -1.251  54.983  1.00  0.00     0.148 C 
HETATM    6  N1  UNL     1      21.853  -0.732  54.909  1.00  0.00    -0.388 N 
HETATM    7  C6  UNL     1      21.188  -0.326  53.679  1.00  0.00     0.033 C 
HETATM    8  C7  UNL     1      19.946  -0.755  53.635  1.00  0.00     0.033 C 
HETATM    9  C8  UNL     1      18.658  -0.864  52.973  1.00  0.00    -0.063 C 
HETATM   10  C9  UNL     1      17.387  -1.514  53.183  1.00  0.00     0.048 C 
HETATM   11  C10 UNL     1      18.545  -0.182  51.796  1.00  0.00    -0.011 C 
HETATM   12  C11 UNL     1      19.152   0.702  50.800  1.00  0.00     0.062 C 
HETATM   13  C12 UNL     1      20.249   1.411  50.507  1.00  0.00     0.147 C 
HETATM   14  C16 UNL     1      21.660   1.910  50.863  1.00  0.00     0.256 C 
HETATM   15  N2  UNL     1      21.872   1.650  52.278  1.00  0.00    -0.380 N 
HETATM   16  C20 UNL     1      22.023   0.329  52.685  1.00  0.00     0.170 C 
HETATM   17  H5  UNL     1      21.289  -0.645  55.813  1.00  0.00     0.159 HD
HETATM   18  H27 UNL     1      22.452   2.385  52.723  1.00  0.00     0.157 HD
ENDROOT
BRANCH  14  19
HETATM   19  O3  UNL     1      21.681   3.288  50.695  1.00  0.00    -0.362 OA
BRANCH  19  20
HETATM   20  C17 UNL     1      22.172   3.875  51.852  1.00  0.00     0.196 C 
BRANCH  20  21
HETATM   21  C18 UNL     1      22.974   5.115  51.523  1.00  0.00     0.193 C 
BRANCH  21  22
HETATM   22  O4  UNL     1      23.538   4.939  50.266  1.00  0.00    -0.394 OA
HETATM   23  C19 UNL     1      24.917   5.149  50.382  1.00  0.00     0.201 C 
ENDBRANCH  21  22
ENDBRANCH  20  21
ENDBRANCH  19  20
ENDBRANCH  14  19
BRANCH  13  24
HETATM   24  O1  UNL     1      19.412   1.622  49.426  1.00  0.00    -0.369 OA
BRANCH  24  25
HETATM   25  C13 UNL     1      18.543   2.675  49.190  1.00  0.00     0.195 C 
BRANCH  25  26
HETATM   26  C14 UNL     1      19.179   3.735  48.275  1.00  0.00     0.193 C 
BRANCH  26  27
HETATM   27  O2  UNL     1      18.683   4.988  48.548  1.00  0.00    -0.394 OA
HETATM   28  C15 UNL     1      19.337   5.670  49.557  1.00  0.00     0.201 C 
ENDBRANCH  26  27
ENDBRANCH  25  26
ENDBRANCH  24  25
ENDBRANCH  13  24
TORSDOF 8
ENDMDL
MODEL 7
REMARK VINA RESULT:      -5.8      2.498      6.167
REMARK  8 active torsions:
REMARK  status: ('A' for Active; 'I' for Inactive)
REMARK    1  A    between atoms: C12_13  and  O1_14 
REMARK    2  A    between atoms: O1_14  and  C13_15 
REMARK    3  A    between atoms: C13_15  and  C14_16 
REMARK    4  A    between atoms: C14_16  and  O2_17 
REMARK    5  A    between atoms: C16_19  and  O3_20 
REMARK    6  A    between atoms: O3_20  and  C17_21 
REMARK    7  A    between atoms: C17_21  and  C18_22 
REMARK    8  A    between atoms: C18_22  and  O4_23 
ROOT
HETATM    1  C1  UNL     1      23.959   5.888  51.537  1.00  0.00     0.017 C 
HETATM    2  C2  UNL     1      22.846   5.503  51.154  1.00  0.00    -0.080 C 
HETATM    3  C3  UNL     1      21.539   5.041  50.678  1.00  0.00     0.021 C 
HETATM    4  C4  UNL     1      20.860   6.074  50.234  1.00  0.00     0.011 C 
HETATM    5  C5  UNL     1      19.519   5.827  49.713  1.00  0.00     0.148 C 
HETATM    6  N1  UNL     1      19.455   4.409  49.303  1.00  0.00    -0.388 N 
HETATM    7  C6  UNL     1      19.998   3.300  50.074  1.00  0.00     0.033 C 
HETATM    8  C7  UNL     1      19.174   2.275  50.096  1.00  0.00     0.033 C 
HETATM    9  C8  UNL     1      18.832   0.923  50.503  1.00  0.00    -0.063 C 
HETATM   10  C9  UNL     1      17.716   0.014  50.401  1.00  0.00     0.048 C 
HETATM   11  C10 UNL     1      19.801   0.257  51.197  1.00  0.00    -0.011 C 
HETATM   12  C11 UNL     1      21.150   0.248  51.762  1.00  0.00     0.062 C 
HETATM   13  C12 UNL     1      22.280   0.956  51.879  1.00  0.00     0.147 C 
HETATM   14  C16 UNL     1      23.113   2.215  51.581  1.00  0.00     0.256 C 
HETATM   15  N2  UNL     1      22.451   2.932  50.504  1.00  0.00    -0.380 N 
HETATM   16  C20 UNL     1      21.241   3.560  50.782  1.00  0.00     0.170 C 
HETATM   17  H5  UNL     1      18.976   4.163  48.378  1.00  0.00     0.159 HD
HETATM   18  H27 UNL     1      23.130   3.403  49.878  1.00  0.00     0.157 HD
ENDROOT
BRANCH  14  19
HETATM   19  O3  UNL     1      24.348   1.807  51.099  1.00  0.00    -0.362 OA
BRANCH  19  20
HETATM   20  C17 UNL     1      25.347   2.438  51.825  1.00  0.00     0.196 C 
BRANCH  20  21
HETATM   21  C18 UNL     1      26.493   2.839  50.922  1.00  0.00     0.193 C 
BRANCH  21  22
HETATM   22  O4  UNL     1      25.953   3.382  49.763  1.00  0.00    -0.394 OA
HETATM   23  C19 UNL     1      26.927   4.202  49.182  1.00  0.00     0.201 C 
ENDBRANCH  21  22
ENDBRANCH  20  21
ENDBRANCH  19  20
ENDBRANCH  14  19
BRANCH  13  24
HETATM   24  O1  UNL     1      22.538  -0.208  52.581  1.00  0.00    -0.369 OA
BRANCH  24  25
HETATM   25  C13 UNL     1      22.879  -0.363  53.915  1.00  0.00     0.195 C 
BRANCH  25  26
HETATM   26  C14 UNL     1      24.405  -0.415  54.102  1.00  0.00     0.193 C 
BRANCH  26  27
HETATM   27  O2  UNL     1      25.029  -0.873  52.966  1.00  0.00    -0.394 OA
HETATM   28  C15 UNL     1      26.399  -1.027  53.072  1.00  0.00     0.201 C 
ENDBRANCH  26  27
ENDBRANCH  25  26
ENDBRANCH  24  25
ENDBRANCH  13  24
TORSDOF 8
ENDMDL
MODEL 8
REMARK VINA RESULT:      -5.8      2.857      4.027
REMARK  8 active torsions:
REMARK  status: ('A' for Active; 'I' for Inactive)
REMARK    1  A    between atoms: C12_13  and  O1_14 
REMARK    2  A    between atoms: O1_14  and  C13_15 
REMARK    3  A    between atoms: C13_15  and  C14_16 
REMARK    4  A    between atoms: C14_16  and  O2_17 
REMARK    5  A    between atoms: C16_19  and  O3_20 
REMARK    6  A    between atoms: O3_20  and  C17_21 
REMARK    7  A    between atoms: C17_21  and  C18_22 
REMARK    8  A    between atoms: C18_22  and  O4_23 
ROOT
HETATM    1  C1  UNL     1      17.549   1.588  49.743  1.00  0.00     0.017 C 
HETATM    2  C2  UNL     1      17.895   0.916  50.724  1.00  0.00    -0.080 C 
HETATM    3  C3  UNL     1      18.310   0.102  51.870  1.00  0.00     0.021 C 
HETATM    4  C4  UNL     1      17.248  -0.475  52.386  1.00  0.00     0.011 C 
HETATM    5  C5  UNL     1      17.447  -1.336  53.548  1.00  0.00     0.148 C 
HETATM    6  N1  UNL     1      18.854  -1.789  53.533  1.00  0.00    -0.388 N 
HETATM    7  C6  UNL     1      19.994  -0.934  53.235  1.00  0.00     0.033 C 
HETATM    8  C7  UNL     1      20.995  -1.157  54.057  1.00  0.00     0.033 C 
HETATM    9  C8  UNL     1      22.346  -0.892  54.522  1.00  0.00    -0.063 C 
HETATM   10  C9  UNL     1      23.221  -1.309  55.591  1.00  0.00     0.048 C 
HETATM   11  C10 UNL     1      23.053   0.011  53.783  1.00  0.00    -0.011 C 
HETATM   12  C11 UNL     1      23.112   0.910  52.630  1.00  0.00     0.062 C 
HETATM   13  C12 UNL     1      22.439   1.339  51.556  1.00  0.00     0.147 C 
HETATM   14  C16 UNL     1      21.197   1.306  50.648  1.00  0.00     0.256 C 
HETATM   15  N2  UNL     1      20.438   0.113  50.989  1.00  0.00    -0.380 N 
HETATM   16  C20 UNL     1      19.784   0.082  52.216  1.00  0.00     0.170 C 
HETATM   17  H5  UNL     1      19.065  -2.814  53.757  1.00  0.00     0.159 HD
HETATM   18  H27 UNL     1      19.973  -0.300  50.159  1.00  0.00     0.157 HD
ENDROOT
BRANCH  14  19
HETATM   19  O3  UNL     1      21.629   1.152  49.338  1.00  0.00    -0.362 OA
BRANCH  19  20
HETATM   20  C17 UNL     1      20.808   1.894  48.503  1.00  0.00     0.196 C 
BRANCH  20  21
HETATM   21  C18 UNL     1      21.511   3.152  48.043  1.00  0.00     0.193 C 
BRANCH  21  22
HETATM   22  O4  UNL     1      20.850   3.623  46.915  1.00  0.00    -0.394 OA
HETATM   23  C19 UNL     1      21.794   3.754  45.890  1.00  0.00     0.201 C 
ENDBRANCH  21  22
ENDBRANCH  20  21
ENDBRANCH  19  20
ENDBRANCH  14  19
BRANCH  13  24
HETATM   24  O1  UNL     1      23.625   2.051  51.517  1.00  0.00    -0.369 OA
BRANCH  24  25
HETATM   25  C13 UNL     1      23.900   3.248  50.878  1.00  0.00     0.195 C 
BRANCH  25  26
HETATM   26  C14 UNL     1      23.041   4.395  51.436  1.00  0.00     0.193 C 
BRANCH  26  27
HETATM   27  O2  UNL     1      23.797   5.523  51.649  1.00  0.00    -0.394 OA
HETATM   28  C15 UNL     1      24.554   5.933  50.567  1.00  0.00     0.201 C 
ENDBRANCH  26  27
ENDBRANCH  25  26
ENDBRANCH  24  25
ENDBRANCH  13  24
TORSDOF 8
ENDMDL
MODEL 9
REMARK VINA RESULT:      -5.7      3.057      6.116
REMARK  8 active torsions:
REMARK  status: ('A' for Active; 'I' for Inactive)
REMARK    1  A    between atoms: C12_13  and  O1_14 
REMARK    2  A    between atoms: O1_14  and  C13_15 
REMARK    3  A    between atoms: C13_15  and  C14_16 
REMARK    4  A    between atoms: C14_16  and  O2_17 
REMARK    5  A    between atoms: C16_19  and  O3_20 
REMARK    6  A    between atoms: O3_20  and  C17_21 
REMARK    7  A    between atoms: C17_21  and  C18_22 
REMARK    8  A    between atoms: C18_22  and  O4_23 
ROOT
HETATM    1  C1  UNL     1      23.177   5.528  48.003  1.00  0.00     0.017 C 
HETATM    2  C2  UNL     1      23.771   4.769  48.781  1.00  0.00    -0.080 C 
HETATM    3  C3  UNL     1      24.472   3.889  49.718  1.00  0.00     0.021 C 
HETATM    4  C4  UNL     1      25.765   3.984  49.503  1.00  0.00     0.011 C 
HETATM    5  C5  UNL     1      26.650   3.179  50.339  1.00  0.00     0.148 C 
HETATM    6  N1  UNL     1      25.922   2.865  51.586  1.00  0.00    -0.388 N 
HETATM    7  C6  UNL     1      24.526   2.459  51.648  1.00  0.00     0.033 C 
HETATM    8  C7  UNL     1      24.346   1.469  52.495  1.00  0.00     0.033 C 
HETATM    9  C8  UNL     1      23.489   0.515  53.177  1.00  0.00    -0.063 C 
HETATM   10  C9  UNL     1      23.619  -0.586  54.101  1.00  0.00     0.048 C 
HETATM   11  C10 UNL     1      22.156   0.627  52.906  1.00  0.00    -0.011 C 
HETATM   12  C11 UNL     1      21.077   1.325  52.207  1.00  0.00     0.062 C 
HETATM   13  C12 UNL     1      20.799   2.357  51.401  1.00  0.00     0.147 C 
HETATM   14  C16 UNL     1      21.244   3.589  50.594  1.00  0.00     0.256 C 
HETATM   15  N2  UNL     1      22.585   3.940  51.037  1.00  0.00    -0.380 N 
HETATM   16  C20 UNL     1      23.631   3.091  50.692  1.00  0.00     0.170 C 
HETATM   17  H5  UNL     1      26.445   2.936  52.517  1.00  0.00     0.159 HD
HETATM   18  H27 UNL     1      22.741   4.965  51.021  1.00  0.00     0.157 HD
ENDROOT
BRANCH  14  19
HETATM   19  O3  UNL     1      20.414   4.647  50.934  1.00  0.00    -0.362 OA
BRANCH  19  20
HETATM   20  C17 UNL     1      21.140   5.827  50.876  1.00  0.00     0.196 C 
BRANCH  20  21
HETATM   21  C18 UNL     1      20.465   6.826  49.962  1.00  0.00     0.193 C 
BRANCH  21  22
HETATM   22  O4  UNL     1      20.834   8.100  50.375  1.00  0.00    -0.394 OA
HETATM   23  C19 UNL     1      19.942   9.012  49.797  1.00  0.00     0.201 C 
ENDBRANCH  21  22
ENDBRANCH  20  21
ENDBRANCH  19  20
ENDBRANCH  14  19
BRANCH  13  24
HETATM   24  O1  UNL     1      19.571   1.755  51.613  1.00  0.00    -0.369 OA
BRANCH  24  25
HETATM   25  C13 UNL     1      18.555   1.506  50.706  1.00  0.00     0.195 C 
BRANCH  25  26
HETATM   26  C14 UNL     1      17.544   2.664  50.661  1.00  0.00     0.193 C 
BRANCH  26  27
HETATM   27  O2  UNL     1      17.405   3.249  51.899  1.00  0.00    -0.394 OA
HETATM   28  C15 UNL     1      16.428   4.223  51.978  1.00  0.00     0.201 C 
ENDBRANCH  26  27
ENDBRANCH  25  26
ENDBRANCH  24  25
ENDBRANCH  13  24
TORSDOF 8
ENDMDL
