MODEL 1
REMARK VINA RESULT:      -8.4      0.000      0.000
REMARK  4 active torsions:
REMARK  status: ('A' for Active; 'I' for Inactive)
REMARK    1  A    between atoms: O1_2  and  C2_3 
REMARK    2  A    between atoms: C5_6  and  C6_7 
REMARK    3  A    between atoms: C11_14  and  O2_15 
REMARK    4  A    between atoms: C13_17  and  O3_18 
ROOT
HETATM    1  C6  UNL     1      25.273   4.346  50.089  1.00  0.00     0.080 C 
HETATM    2  C7  UNL     1      24.315   4.890  50.800  1.00  0.00     0.057 C 
HETATM    3  C8  UNL     1      23.250   4.256  51.547  1.00  0.00     0.128 C 
HETATM    4  N1  UNL     1      22.731   3.138  51.850  1.00  0.00    -0.223 NA
HETATM    5  S1  UNL     1      23.369   1.647  51.256  1.00  0.00     0.011 SA
HETATM    6  C9  UNL     1      24.669   1.031  52.293  1.00  0.00     0.035 A 
HETATM    7  C10 UNL     1      24.526   0.251  53.415  1.00  0.00     0.060 A 
HETATM    8  C11 UNL     1      25.586  -0.197  54.166  1.00  0.00     0.102 A 
HETATM    9  C13 UNL     1      26.855   0.179  53.735  1.00  0.00     0.102 A 
HETATM   10  C15 UNL     1      27.002   0.962  52.609  1.00  0.00     0.050 A 
HETATM   11  C16 UNL     1      25.913   1.412  51.854  1.00  0.00    -0.013 A 
HETATM   12  C17 UNL     1      26.258   2.260  50.682  1.00  0.00     0.215 C 
HETATM   13  O4  UNL     1      25.135   2.961  50.159  1.00  0.00    -0.346 OA
ENDROOT
BRANCH   1  14
HETATM   14  C5  UNL     1      26.285   5.099  49.376  1.00  0.00    -0.003 A 
HETATM   15  C4  UNL     1      27.452   4.521  48.937  1.00  0.00     0.017 A 
HETATM   16  C3  UNL     1      28.423   5.242  48.269  1.00  0.00     0.037 A 
HETATM   17  C2  UNL     1      28.242   6.605  48.018  1.00  0.00     0.068 A 
HETATM   18  C19 UNL     1      27.073   7.181  48.460  1.00  0.00     0.037 A 
HETATM   19  C18 UNL     1      26.126   6.433  49.122  1.00  0.00     0.017 A 
BRANCH  17  20
HETATM   20  O1  UNL     1      29.289   7.224  47.338  1.00  0.00    -0.356 OA
HETATM   21  C1  UNL     1      30.579   6.693  47.436  1.00  0.00     0.210 C 
ENDBRANCH  17  20
ENDBRANCH   1  14
BRANCH   9  22
HETATM   22  O3  UNL     1      27.917  -0.273  54.493  1.00  0.00    -0.353 OA
HETATM   23  C14 UNL     1      29.219  -0.509  54.018  1.00  0.00     0.210 C 
ENDBRANCH   9  22
BRANCH   8  24
HETATM   24  O2  UNL     1      25.426  -0.980  55.292  1.00  0.00    -0.353 OA
HETATM   25  C12 UNL     1      24.114  -1.344  55.667  1.00  0.00     0.210 C 
ENDBRANCH   8  24
TORSDOF 4
ENDMDL
MODEL 2
REMARK VINA RESULT:      -8.2      0.810      1.241
REMARK  4 active torsions:
REMARK  status: ('A' for Active; 'I' for Inactive)
REMARK    1  A    between atoms: O1_2  and  C2_3 
REMARK    2  A    between atoms: C5_6  and  C6_7 
REMARK    3  A    between atoms: C11_14  and  O2_15 
REMARK    4  A    between atoms: C13_17  and  O3_18 
ROOT
HETATM    1  C6  UNL     1      24.652   4.511  50.484  1.00  0.00     0.080 C 
HETATM    2  C7  UNL     1      23.611   4.907  51.177  1.00  0.00     0.057 C 
HETATM    3  C8  UNL     1      22.575   4.120  51.809  1.00  0.00     0.128 C 
HETATM    4  N1  UNL     1      22.150   2.938  51.996  1.00  0.00    -0.223 NA
HETATM    5  S1  UNL     1      22.956   1.565  51.329  1.00  0.00     0.011 SA
HETATM    6  C9  UNL     1      24.254   0.987  52.391  1.00  0.00     0.035 A 
HETATM    7  C10 UNL     1      24.128   0.110  53.440  1.00  0.00     0.060 A 
HETATM    8  C11 UNL     1      25.186  -0.300  54.215  1.00  0.00     0.102 A 
HETATM    9  C13 UNL     1      26.434   0.223  53.889  1.00  0.00     0.102 A 
HETATM   10  C15 UNL     1      26.563   1.105  52.837  1.00  0.00     0.050 A 
HETATM   11  C16 UNL     1      25.476   1.514  52.055  1.00  0.00    -0.013 A 
HETATM   12  C17 UNL     1      25.799   2.482  50.973  1.00  0.00     0.215 C 
HETATM   13  O4  UNL     1      24.643   3.118  50.440  1.00  0.00    -0.346 OA
ENDROOT
BRANCH   1  14
HETATM   14  C5  UNL     1      25.623   5.408  49.891  1.00  0.00    -0.003 A 
HETATM   15  C4  UNL     1      25.616   6.759  50.137  1.00  0.00     0.017 A 
HETATM   16  C3  UNL     1      26.534   7.616  49.561  1.00  0.00     0.037 A 
HETATM   17  C2  UNL     1      27.513   7.123  48.695  1.00  0.00     0.068 A 
HETATM   18  C19 UNL     1      27.518   5.769  48.449  1.00  0.00     0.037 A 
HETATM   19  C18 UNL     1      26.588   4.942  49.041  1.00  0.00     0.017 A 
BRANCH  17  20
HETATM   20  O1  UNL     1      28.381   8.081  48.176  1.00  0.00    -0.356 OA
HETATM   21  C1  UNL     1      29.761   7.876  48.266  1.00  0.00     0.210 C 
ENDBRANCH  17  20
ENDBRANCH   1  14
BRANCH   9  22
HETATM   22  O3  UNL     1      27.494  -0.190  54.672  1.00  0.00    -0.353 OA
HETATM   23  C14 UNL     1      28.800   0.327  54.620  1.00  0.00     0.210 C 
ENDBRANCH   9  22
BRANCH   8  24
HETATM   24  O2  UNL     1      25.044  -1.183  55.268  1.00  0.00    -0.353 OA
HETATM   25  C12 UNL     1      23.736  -1.504  55.692  1.00  0.00     0.210 C 
ENDBRANCH   8  24
TORSDOF 4
ENDMDL
MODEL 3
REMARK VINA RESULT:      -8.0      2.771      7.522
REMARK  4 active torsions:
REMARK  status: ('A' for Active; 'I' for Inactive)
REMARK    1  A    between atoms: O1_2  and  C2_3 
REMARK    2  A    between atoms: C5_6  and  C6_7 
REMARK    3  A    between atoms: C11_14  and  O2_15 
REMARK    4  A    between atoms: C13_17  and  O3_18 
ROOT
HETATM    1  C6  UNL     1      23.348   1.735  51.886  1.00  0.00     0.080 C 
HETATM    2  C7  UNL     1      22.654   1.370  50.834  1.00  0.00     0.057 C 
HETATM    3  C8  UNL     1      21.495   1.997  50.235  1.00  0.00     0.128 C 
HETATM    4  N1  UNL     1      20.676   2.960  50.342  1.00  0.00    -0.223 NA
HETATM    5  S1  UNL     1      20.781   4.104  51.632  1.00  0.00     0.011 SA
HETATM    6  C9  UNL     1      21.890   5.432  51.241  1.00  0.00     0.035 A 
HETATM    7  C10 UNL     1      21.584   6.584  50.557  1.00  0.00     0.060 A 
HETATM    8  C11 UNL     1      22.500   7.576  50.300  1.00  0.00     0.102 A 
HETATM    9  C13 UNL     1      23.792   7.367  50.773  1.00  0.00     0.102 A 
HETATM   10  C15 UNL     1      24.101   6.211  51.459  1.00  0.00     0.050 A 
HETATM   11  C16 UNL     1      23.159   5.208  51.714  1.00  0.00    -0.013 A 
HETATM   12  C17 UNL     1      23.673   4.025  52.454  1.00  0.00     0.215 C 
HETATM   13  O4  UNL     1      22.791   2.910  52.390  1.00  0.00    -0.346 OA
ENDROOT
BRANCH   1  14
HETATM   14  C5  UNL     1      24.495   1.011  52.394  1.00  0.00    -0.003 A 
HETATM   15  C4  UNL     1      25.746   1.143  51.842  1.00  0.00     0.017 A 
HETATM   16  C3  UNL     1      26.837   0.443  52.319  1.00  0.00     0.037 A 
HETATM   17  C2  UNL     1      26.696  -0.437  53.395  1.00  0.00     0.068 A 
HETATM   18  C19 UNL     1      25.442  -0.568  53.946  1.00  0.00     0.037 A 
HETATM   19  C18 UNL     1      24.375   0.146  53.447  1.00  0.00     0.017 A 
BRANCH  17  20
HETATM   20  O1  UNL     1      27.865  -1.086  53.786  1.00  0.00    -0.356 OA
HETATM   21  C1  UNL     1      29.003  -0.329  54.082  1.00  0.00     0.210 C 
ENDBRANCH  17  20
ENDBRANCH   1  14
BRANCH   9  22
HETATM   22  O3  UNL     1      24.709   8.366  50.511  1.00  0.00    -0.353 OA
HETATM   23  C14 UNL     1      26.035   8.170  50.088  1.00  0.00     0.210 C 
ENDBRANCH   9  22
BRANCH   8  24
HETATM   24  O2  UNL     1      22.178   8.729  49.610  1.00  0.00    -0.353 OA
HETATM   25  C12 UNL     1      20.812   9.022  49.409  1.00  0.00     0.210 C 
ENDBRANCH   8  24
TORSDOF 4
ENDMDL
MODEL 4
REMARK VINA RESULT:      -7.9      4.115      7.034
REMARK  4 active torsions:
REMARK  status: ('A' for Active; 'I' for Inactive)
REMARK    1  A    between atoms: O1_2  and  C2_3 
REMARK    2  A    between atoms: C5_6  and  C6_7 
REMARK    3  A    between atoms: C11_14  and  O2_15 
REMARK    4  A    between atoms: C13_17  and  O3_18 
ROOT
HETATM    1  C6  UNL     1      24.424   2.382  52.437  1.00  0.00     0.080 C 
HETATM    2  C7  UNL     1      24.163   3.518  53.037  1.00  0.00     0.057 C 
HETATM    3  C8  UNL     1      23.161   4.514  52.723  1.00  0.00     0.128 C 
HETATM    4  N1  UNL     1      22.234   4.821  51.912  1.00  0.00    -0.223 NA
HETATM    5  S1  UNL     1      21.826   3.810  50.572  1.00  0.00     0.011 SA
HETATM    6  C9  UNL     1      20.656   2.557  51.030  1.00  0.00     0.035 A 
HETATM    7  C10 UNL     1      19.288   2.679  51.053  1.00  0.00     0.060 A 
HETATM    8  C11 UNL     1      18.443   1.657  51.412  1.00  0.00     0.102 A 
HETATM    9  C13 UNL     1      19.042   0.450  51.762  1.00  0.00     0.102 A 
HETATM   10  C15 UNL     1      20.416   0.325  51.741  1.00  0.00     0.050 A 
HETATM   11  C16 UNL     1      21.265   1.375  51.373  1.00  0.00    -0.013 A 
HETATM   12  C17 UNL     1      22.719   1.066  51.423  1.00  0.00     0.215 C 
HETATM   13  O4  UNL     1      23.532   2.233  51.377  1.00  0.00    -0.346 OA
ENDROOT
BRANCH   1  14
HETATM   14  C5  UNL     1      25.469   1.467  52.849  1.00  0.00    -0.003 A 
HETATM   15  C4  UNL     1      26.139   0.671  51.952  1.00  0.00     0.017 A 
HETATM   16  C3  UNL     1      27.126  -0.212  52.347  1.00  0.00     0.037 A 
HETATM   17  C2  UNL     1      27.477  -0.321  53.695  1.00  0.00     0.068 A 
HETATM   18  C19 UNL     1      26.805   0.477  54.591  1.00  0.00     0.037 A 
HETATM   19  C18 UNL     1      25.826   1.347  54.164  1.00  0.00     0.017 A 
BRANCH  17  20
HETATM   20  O1  UNL     1      28.484  -1.244  53.970  1.00  0.00    -0.356 OA
HETATM   21  C1  UNL     1      29.790  -0.980  53.544  1.00  0.00     0.210 C 
ENDBRANCH  17  20
ENDBRANCH   1  14
BRANCH   9  22
HETATM   22  O3  UNL     1      18.189  -0.575  52.123  1.00  0.00    -0.353 OA
HETATM   23  C14 UNL     1      18.259  -1.316  53.315  1.00  0.00     0.210 C 
ENDBRANCH   9  22
BRANCH   8  24
HETATM   24  O2  UNL     1      17.069   1.794  51.431  1.00  0.00    -0.353 OA
HETATM   25  C12 UNL     1      16.534   3.101  51.451  1.00  0.00     0.210 C 
ENDBRANCH   8  24
TORSDOF 4
ENDMDL
MODEL 5
REMARK VINA RESULT:      -7.7      1.419      1.967
REMARK  4 active torsions:
REMARK  status: ('A' for Active; 'I' for Inactive)
REMARK    1  A    between atoms: O1_2  and  C2_3 
REMARK    2  A    between atoms: C5_6  and  C6_7 
REMARK    3  A    between atoms: C11_14  and  O2_15 
REMARK    4  A    between atoms: C13_17  and  O3_18 
ROOT
HETATM    1  C6  UNL     1      26.017   5.673  49.295  1.00  0.00     0.080 C 
HETATM    2  C7  UNL     1      25.328   6.412  50.131  1.00  0.00     0.057 C 
HETATM    3  C8  UNL     1      24.148   6.075  50.898  1.00  0.00     0.128 C 
HETATM    4  N1  UNL     1      23.301   5.159  51.134  1.00  0.00    -0.223 NA
HETATM    5  S1  UNL     1      23.379   3.623  50.350  1.00  0.00     0.011 SA
HETATM    6  C9  UNL     1      24.446   2.500  51.213  1.00  0.00     0.035 A 
HETATM    7  C10 UNL     1      24.103   1.683  52.263  1.00  0.00     0.060 A 
HETATM    8  C11 UNL     1      24.987   0.829  52.878  1.00  0.00     0.102 A 
HETATM    9  C13 UNL     1      26.288   0.820  52.382  1.00  0.00     0.102 A 
HETATM   10  C15 UNL     1      26.635   1.639  51.329  1.00  0.00     0.050 A 
HETATM   11  C16 UNL     1      25.724   2.504  50.712  1.00  0.00    -0.013 A 
HETATM   12  C17 UNL     1      26.278   3.326  49.602  1.00  0.00     0.215 C 
HETATM   13  O4  UNL     1      25.429   4.410  49.243  1.00  0.00    -0.346 OA
ENDROOT
BRANCH   1  14
HETATM   14  C5  UNL     1      27.188   6.133  48.578  1.00  0.00    -0.003 A 
HETATM   15  C4  UNL     1      27.194   7.308  47.865  1.00  0.00     0.017 A 
HETATM   16  C3  UNL     1      28.306   7.740  47.170  1.00  0.00     0.037 A 
HETATM   17  C2  UNL     1      29.479   6.980  47.172  1.00  0.00     0.068 A 
HETATM   18  C19 UNL     1      29.471   5.804  47.886  1.00  0.00     0.037 A 
HETATM   19  C18 UNL     1      28.344   5.402  48.568  1.00  0.00     0.017 A 
BRANCH  17  20
HETATM   20  O1  UNL     1      30.533   7.518  46.435  1.00  0.00    -0.356 OA
HETATM   21  C1  UNL     1      31.672   7.975  47.104  1.00  0.00     0.210 C 
ENDBRANCH  17  20
ENDBRANCH   1  14
BRANCH   9  22
HETATM   22  O3  UNL     1      27.173  -0.039  53.004  1.00  0.00    -0.353 OA
HETATM   23  C14 UNL     1      28.433   0.314  53.516  1.00  0.00     0.210 C 
ENDBRANCH   9  22
BRANCH   8  24
HETATM   24  O2  UNL     1      24.628   0.014  53.933  1.00  0.00    -0.353 OA
HETATM   25  C12 UNL     1      23.432  -0.728  53.821  1.00  0.00     0.210 C 
ENDBRANCH   8  24
TORSDOF 4
ENDMDL
MODEL 6
REMARK VINA RESULT:      -7.2      2.278      3.402
REMARK  4 active torsions:
REMARK  status: ('A' for Active; 'I' for Inactive)
REMARK    1  A    between atoms: O1_2  and  C2_3 
REMARK    2  A    between atoms: C5_6  and  C6_7 
REMARK    3  A    between atoms: C11_14  and  O2_15 
REMARK    4  A    between atoms: C13_17  and  O3_18 
ROOT
HETATM    1  C6  UNL     1      27.329   6.599  48.600  1.00  0.00     0.080 C 
HETATM    2  C7  UNL     1      26.832   7.549  49.355  1.00  0.00     0.057 C 
HETATM    3  C8  UNL     1      25.562   7.605  50.046  1.00  0.00     0.128 C 
HETATM    4  N1  UNL     1      24.476   6.982  50.253  1.00  0.00    -0.223 NA
HETATM    5  S1  UNL     1      24.156   5.445  49.534  1.00  0.00     0.011 SA
HETATM    6  C9  UNL     1      24.803   4.116  50.515  1.00  0.00     0.035 A 
HETATM    7  C10 UNL     1      24.178   3.491  51.567  1.00  0.00     0.060 A 
HETATM    8  C11 UNL     1      24.741   2.457  52.276  1.00  0.00     0.102 A 
HETATM    9  C13 UNL     1      26.011   2.051  51.877  1.00  0.00     0.102 A 
HETATM   10  C15 UNL     1      26.642   2.677  50.822  1.00  0.00     0.050 A 
HETATM   11  C16 UNL     1      26.056   3.729  50.109  1.00  0.00    -0.013 A 
HETATM   12  C17 UNL     1      26.887   4.295  49.013  1.00  0.00     0.215 C 
HETATM   13  O4  UNL     1      26.408   5.554  48.552  1.00  0.00    -0.346 OA
ENDROOT
BRANCH   1  14
HETATM   14  C5  UNL     1      28.624   6.667  47.954  1.00  0.00    -0.003 A 
HETATM   15  C4  UNL     1      29.655   5.826  48.293  1.00  0.00     0.017 A 
HETATM   16  C3  UNL     1      30.894   5.899  47.686  1.00  0.00     0.037 A 
HETATM   17  C2  UNL     1      31.136   6.850  46.691  1.00  0.00     0.068 A 
HETATM   18  C19 UNL     1      30.102   7.692  46.353  1.00  0.00     0.037 A 
HETATM   19  C18 UNL     1      28.879   7.591  46.978  1.00  0.00     0.017 A 
BRANCH  17  20
HETATM   20  O1  UNL     1      32.422   6.829  46.154  1.00  0.00    -0.356 OA
HETATM   21  C1  UNL     1      33.503   7.228  46.946  1.00  0.00     0.210 C 
ENDBRANCH  17  20
ENDBRANCH   1  14
BRANCH   9  22
HETATM   22  O3  UNL     1      26.574   1.013  52.594  1.00  0.00    -0.353 OA
HETATM   23  C14 UNL     1      26.696  -0.316  52.151  1.00  0.00     0.210 C 
ENDBRANCH   9  22
BRANCH   8  24
HETATM   24  O2  UNL     1      24.101   1.839  53.331  1.00  0.00    -0.353 OA
HETATM   25  C12 UNL     1      22.945   1.078  53.052  1.00  0.00     0.210 C 
ENDBRANCH   8  24
TORSDOF 4
ENDMDL
MODEL 7
REMARK VINA RESULT:      -7.1      3.253      5.951
REMARK  4 active torsions:
REMARK  status: ('A' for Active; 'I' for Inactive)
REMARK    1  A    between atoms: O1_2  and  C2_3 
REMARK    2  A    between atoms: C5_6  and  C6_7 
REMARK    3  A    between atoms: C11_14  and  O2_15 
REMARK    4  A    between atoms: C13_17  and  O3_18 
ROOT
HETATM    1  C6  UNL     1      29.789   7.098  48.235  1.00  0.00     0.080 C 
HETATM    2  C7  UNL     1      29.532   8.205  48.888  1.00  0.00     0.057 C 
HETATM    3  C8  UNL     1      28.260   8.848  49.143  1.00  0.00     0.128 C 
HETATM    4  N1  UNL     1      27.011   8.777  48.930  1.00  0.00    -0.223 NA
HETATM    5  S1  UNL     1      26.319   7.503  47.992  1.00  0.00     0.011 SA
HETATM    6  C9  UNL     1      25.967   6.076  48.984  1.00  0.00     0.035 A 
HETATM    7  C10 UNL     1      24.827   5.842  49.713  1.00  0.00     0.060 A 
HETATM    8  C11 UNL     1      24.622   4.703  50.453  1.00  0.00     0.102 A 
HETATM    9  C13 UNL     1      25.646   3.760  50.438  1.00  0.00     0.102 A 
HETATM   10  C15 UNL     1      26.793   3.993  49.708  1.00  0.00     0.050 A 
HETATM   11  C16 UNL     1      26.988   5.158  48.958  1.00  0.00    -0.013 A 
HETATM   12  C17 UNL     1      28.291   5.247  48.246  1.00  0.00     0.215 C 
HETATM   13  O4  UNL     1      28.581   6.563  47.790  1.00  0.00    -0.346 OA
ENDROOT
BRANCH   1  14
HETATM   14  C5  UNL     1      31.120   6.558  48.043  1.00  0.00    -0.003 A 
HETATM   15  C4  UNL     1      31.583   6.179  46.806  1.00  0.00     0.017 A 
HETATM   16  C3  UNL     1      32.847   5.652  46.625  1.00  0.00     0.037 A 
HETATM   17  C2  UNL     1      33.705   5.485  47.715  1.00  0.00     0.068 A 
HETATM   18  C19 UNL     1      33.239   5.865  48.952  1.00  0.00     0.037 A 
HETATM   19  C18 UNL     1      31.973   6.388  49.098  1.00  0.00     0.017 A 
BRANCH  17  20
HETATM   20  O1  UNL     1      34.952   4.944  47.408  1.00  0.00    -0.356 OA
HETATM   21  C1  UNL     1      35.040   3.605  47.014  1.00  0.00     0.210 C 
ENDBRANCH  17  20
ENDBRANCH   1  14
BRANCH   9  22
HETATM   22  O3  UNL     1      25.437   2.617  51.185  1.00  0.00    -0.353 OA
HETATM   23  C14 UNL     1      26.431   1.708  51.586  1.00  0.00     0.210 C 
ENDBRANCH   9  22
BRANCH   8  24
HETATM   24  O2  UNL     1      23.470   4.482  51.182  1.00  0.00    -0.353 OA
HETATM   25  C12 UNL     1      22.518   5.522  51.250  1.00  0.00     0.210 C 
ENDBRANCH   8  24
TORSDOF 4
ENDMDL
MODEL 8
REMARK VINA RESULT:      -7.0      2.173      2.779
REMARK  4 active torsions:
REMARK  status: ('A' for Active; 'I' for Inactive)
REMARK    1  A    between atoms: O1_2  and  C2_3 
REMARK    2  A    between atoms: C5_6  and  C6_7 
REMARK    3  A    between atoms: C11_14  and  O2_15 
REMARK    4  A    between atoms: C13_17  and  O3_18 
ROOT
HETATM    1  C6  UNL     1      25.117   6.335  49.190  1.00  0.00     0.080 C 
HETATM    2  C7  UNL     1      23.893   6.759  49.397  1.00  0.00     0.057 C 
HETATM    3  C8  UNL     1      22.651   6.017  49.394  1.00  0.00     0.128 C 
HETATM    4  N1  UNL     1      22.139   4.869  49.214  1.00  0.00    -0.223 NA
HETATM    5  S1  UNL     1      23.102   3.498  48.796  1.00  0.00     0.011 SA
HETATM    6  C9  UNL     1      23.755   2.694  50.236  1.00  0.00     0.035 A 
HETATM    7  C10 UNL     1      23.132   1.731  50.993  1.00  0.00     0.060 A 
HETATM    8  C11 UNL     1      23.708   1.145  52.095  1.00  0.00     0.102 A 
HETATM    9  C13 UNL     1      24.990   1.575  52.428  1.00  0.00     0.102 A 
HETATM   10  C15 UNL     1      25.617   2.542  51.669  1.00  0.00     0.050 A 
HETATM   11  C16 UNL     1      25.018   3.130  50.549  1.00  0.00    -0.013 A 
HETATM   12  C17 UNL     1      25.834   4.166  49.861  1.00  0.00     0.215 C 
HETATM   13  O4  UNL     1      25.071   4.961  48.962  1.00  0.00    -0.346 OA
ENDROOT
BRANCH   1  14
HETATM   14  C5  UNL     1      26.288   7.189  49.214  1.00  0.00    -0.003 A 
HETATM   15  C4  UNL     1      27.382   6.950  48.419  1.00  0.00     0.017 A 
HETATM   16  C3  UNL     1      28.504   7.756  48.451  1.00  0.00     0.037 A 
HETATM   17  C2  UNL     1      28.557   8.857  49.311  1.00  0.00     0.068 A 
HETATM   18  C19 UNL     1      27.460   9.094  50.106  1.00  0.00     0.037 A 
HETATM   19  C18 UNL     1      26.357   8.270  50.049  1.00  0.00     0.017 A 
BRANCH  17  20
HETATM   20  O1  UNL     1      29.738   9.594  49.255  1.00  0.00    -0.356 OA
HETATM   21  C1  UNL     1      30.965   8.922  49.252  1.00  0.00     0.210 C 
ENDBRANCH  17  20
ENDBRANCH   1  14
BRANCH   9  22
HETATM   22  O3  UNL     1      25.565   0.985  53.536  1.00  0.00    -0.353 OA
HETATM   23  C14 UNL     1      26.831   1.292  54.063  1.00  0.00     0.210 C 
ENDBRANCH   9  22
BRANCH   8  24
HETATM   24  O2  UNL     1      23.070   0.180  52.847  1.00  0.00    -0.353 OA
HETATM   25  C12 UNL     1      21.746  -0.166  52.498  1.00  0.00     0.210 C 
ENDBRANCH   8  24
TORSDOF 4
ENDMDL
MODEL 9
REMARK VINA RESULT:      -6.9      5.094      8.805
REMARK  4 active torsions:
REMARK  status: ('A' for Active; 'I' for Inactive)
REMARK    1  A    between atoms: O1_2  and  C2_3 
REMARK    2  A    between atoms: C5_6  and  C6_7 
REMARK    3  A    between atoms: C11_14  and  O2_15 
REMARK    4  A    between atoms: C13_17  and  O3_18 
ROOT
HETATM    1  C6  UNL     1      27.952   7.089  48.065  1.00  0.00     0.080 C 
HETATM    2  C7  UNL     1      27.731   7.723  46.939  1.00  0.00     0.057 C 
HETATM    3  C8  UNL     1      28.665   8.409  46.072  1.00  0.00     0.128 C 
HETATM    4  N1  UNL     1      29.881   8.741  45.928  1.00  0.00    -0.223 NA
HETATM    5  S1  UNL     1      31.082   8.330  47.099  1.00  0.00     0.011 SA
HETATM    6  C9  UNL     1      31.759   6.718  46.806  1.00  0.00     0.035 A 
HETATM    7  C10 UNL     1      32.803   6.404  45.971  1.00  0.00     0.060 A 
HETATM    8  C11 UNL     1      33.280   5.126  45.802  1.00  0.00     0.102 A 
HETATM    9  C13 UNL     1      32.645   4.125  46.532  1.00  0.00     0.102 A 
HETATM   10  C15 UNL     1      31.596   4.437  47.371  1.00  0.00     0.050 A 
HETATM   11  C16 UNL     1      31.121   5.744  47.534  1.00  0.00    -0.013 A 
HETATM   12  C17 UNL     1      29.972   5.892  48.466  1.00  0.00     0.215 C 
HETATM   13  O4  UNL     1      29.318   7.149  48.340  1.00  0.00    -0.346 OA
ENDROOT
BRANCH   1  14
HETATM   14  C5  UNL     1      26.920   6.443  48.851  1.00  0.00    -0.003 A 
HETATM   15  C4  UNL     1      26.743   5.081  48.847  1.00  0.00     0.017 A 
HETATM   16  C3  UNL     1      25.751   4.467  49.586  1.00  0.00     0.037 A 
HETATM   17  C2  UNL     1      24.883   5.228  50.373  1.00  0.00     0.068 A 
HETATM   18  C19 UNL     1      25.062   6.592  50.375  1.00  0.00     0.037 A 
HETATM   19  C18 UNL     1      26.062   7.173  49.627  1.00  0.00     0.017 A 
BRANCH  17  20
HETATM   20  O1  UNL     1      23.924   4.498  51.071  1.00  0.00    -0.356 OA
HETATM   21  C1  UNL     1      22.576   4.853  50.958  1.00  0.00     0.210 C 
ENDBRANCH  17  20
ENDBRANCH   1  14
BRANCH   9  22
HETATM   22  O3  UNL     1      33.127   2.842  46.359  1.00  0.00    -0.353 OA
HETATM   23  C14 UNL     1      32.718   1.710  47.084  1.00  0.00     0.210 C 
ENDBRANCH   9  22
BRANCH   8  24
HETATM   24  O2  UNL     1      34.330   4.825  44.958  1.00  0.00    -0.353 OA
HETATM   25  C12 UNL     1      34.065   4.742  43.573  1.00  0.00     0.210 C 
ENDBRANCH   8  24
TORSDOF 4
ENDMDL
