MODEL 1
REMARK VINA RESULT:      -7.9      0.000      0.000
REMARK  5 active torsions:
REMARK  status: ('A' for Active; 'I' for Inactive)
REMARK    1  A    between atoms: O1_1  and  C1_2 
REMARK    2  A    between atoms: C2_3  and  C3_4 
REMARK    3  A    between atoms: C3_4  and  N1_5 
REMARK    4  A    between atoms: C8_12  and  N4_13 
REMARK    5  A    between atoms: N4_13  and  C9_14 
ROOT
HETATM    1  N1  UNL     1      24.726  -0.401  53.584  1.00  0.00    -0.298 N 
HETATM    2  C4  UNL     1      25.257   0.463  52.555  1.00  0.00     0.190 A 
HETATM    3  C5  UNL     1      26.520   1.098  53.009  1.00  0.00     0.037 A 
HETATM    4  C6  UNL     1      27.047   0.843  54.256  1.00  0.00     0.089 A 
HETATM    5  N2  UNL     1      28.184   1.422  54.645  1.00  0.00    -0.240 NA
HETATM    6  C7  UNL     1      28.818   2.264  53.806  1.00  0.00     0.236 A 
HETATM    7  N3  UNL     1      28.286   2.495  52.600  1.00  0.00    -0.224 NA
HETATM    8  C8  UNL     1      27.169   1.971  52.126  1.00  0.00     0.139 A 
HETATM    9  C15 UNL     1      26.403  -0.057  55.200  1.00  0.00     0.170 A 
HETATM   10  N5  UNL     1      25.298  -0.634  54.847  1.00  0.00    -0.187 NA
ENDROOT
BRANCH   8  11
HETATM   11  N4  UNL     1      26.623   2.228  50.847  1.00  0.00    -0.340 N 
HETATM   12  H9  UNL     1      26.432   1.374  50.240  1.00  0.00     0.167 HD
BRANCH  11  13
HETATM   13  C9  UNL     1      26.300   3.472  50.276  1.00  0.00     0.035 A 
HETATM   14  C10 UNL     1      26.976   4.130  49.299  1.00  0.00     0.029 A 
HETATM   15  C11 UNL     1      26.642   5.349  48.753  1.00  0.00     0.004 A 
HETATM   16  C12 UNL     1      25.517   5.963  49.241  1.00  0.00     0.019 A 
HETATM   17  C13 UNL     1      24.777   5.371  50.227  1.00  0.00     0.013 A 
HETATM   18 BR1  UNL     1      23.233   6.251  50.875  1.00  0.00    -0.051 Br
HETATM   19  C14 UNL     1      25.173   4.164  50.715  1.00  0.00     0.048 A 
ENDBRANCH  11  13
ENDBRANCH   8  11
BRANCH   1  20
HETATM   20  C3  UNL     1      23.476  -1.086  53.252  1.00  0.00     0.174 C 
BRANCH  20  21
HETATM   21  C2  UNL     1      22.310  -0.338  53.790  1.00  0.00     0.018 C 
HETATM   22  C1  UNL     1      21.475  -0.471  54.824  1.00  0.00     0.129 C 
BRANCH  22  23
HETATM   23  O1  UNL     1      20.428   0.419  55.095  1.00  0.00    -0.373 OA
HETATM   24  H1  UNL     1      19.895   0.328  55.948  1.00  0.00     0.216 HD
ENDBRANCH  22  23
ENDBRANCH  20  21
ENDBRANCH   1  20
TORSDOF 5
ENDMDL
MODEL 2
REMARK VINA RESULT:      -7.6      2.810      4.944
REMARK  5 active torsions:
REMARK  status: ('A' for Active; 'I' for Inactive)
REMARK    1  A    between atoms: O1_1  and  C1_2 
REMARK    2  A    between atoms: C2_3  and  C3_4 
REMARK    3  A    between atoms: C3_4  and  N1_5 
REMARK    4  A    between atoms: C8_12  and  N4_13 
REMARK    5  A    between atoms: N4_13  and  C9_14 
ROOT
HETATM    1  N1  UNL     1      25.500  -0.397  54.455  1.00  0.00    -0.298 N 
HETATM    2  C4  UNL     1      24.651   0.110  53.402  1.00  0.00     0.190 A 
HETATM    3  C5  UNL     1      23.240  -0.294  53.631  1.00  0.00     0.037 A 
HETATM    4  C6  UNL     1      22.875  -1.049  54.724  1.00  0.00     0.089 A 
HETATM    5  N2  UNL     1      21.602  -1.401  54.913  1.00  0.00    -0.240 NA
HETATM    6  C7  UNL     1      20.670  -1.012  54.022  1.00  0.00     0.236 A 
HETATM    7  N3  UNL     1      21.049  -0.278  52.969  1.00  0.00    -0.224 NA
HETATM    8  C8  UNL     1      22.280   0.118  52.697  1.00  0.00     0.139 A 
HETATM    9  C15 UNL     1      23.842  -1.496  55.715  1.00  0.00     0.170 A 
HETATM   10  N5  UNL     1      25.084  -1.167  55.556  1.00  0.00    -0.187 NA
ENDROOT
BRANCH   8  11
HETATM   11  N4  UNL     1      22.662   0.894  51.578  1.00  0.00    -0.340 N 
HETATM   12  H9  UNL     1      22.750   0.372  50.654  1.00  0.00     0.167 HD
BRANCH  11  13
HETATM   13  C9  UNL     1      22.939   2.272  51.532  1.00  0.00     0.035 A 
HETATM   14  C10 UNL     1      22.283   3.267  52.185  1.00  0.00     0.029 A 
HETATM   15  C11 UNL     1      22.571   4.611  52.127  1.00  0.00     0.004 A 
HETATM   16  C12 UNL     1      23.622   4.990  51.333  1.00  0.00     0.019 A 
HETATM   17  C13 UNL     1      24.339   4.053  50.639  1.00  0.00     0.013 A 
HETATM   18 BR1  UNL     1      25.781   4.616  49.552  1.00  0.00    -0.051 Br
HETATM   19  C14 UNL     1      23.991   2.742  50.748  1.00  0.00     0.048 A 
ENDBRANCH  11  13
ENDBRANCH   8  11
BRANCH   1  20
HETATM   20  C3  UNL     1      26.920  -0.063  54.339  1.00  0.00     0.174 C 
BRANCH  20  21
HETATM   21  C2  UNL     1      27.138   0.927  53.252  1.00  0.00     0.018 C 
HETATM   22  C1  UNL     1      27.713   2.127  53.145  1.00  0.00     0.129 C 
BRANCH  22  23
HETATM   23  O1  UNL     1      27.771   2.856  51.949  1.00  0.00    -0.373 OA
HETATM   24  H1  UNL     1      27.432   3.807  51.920  1.00  0.00     0.216 HD
ENDBRANCH  22  23
ENDBRANCH  20  21
ENDBRANCH   1  20
TORSDOF 5
ENDMDL
MODEL 3
REMARK VINA RESULT:      -7.4      2.776      4.453
REMARK  5 active torsions:
REMARK  status: ('A' for Active; 'I' for Inactive)
REMARK    1  A    between atoms: O1_1  and  C1_2 
REMARK    2  A    between atoms: C2_3  and  C3_4 
REMARK    3  A    between atoms: C3_4  and  N1_5 
REMARK    4  A    between atoms: C8_12  and  N4_13 
REMARK    5  A    between atoms: N4_13  and  C9_14 
ROOT
HETATM    1  N1  UNL     1      26.558  -0.269  53.268  1.00  0.00    -0.298 N 
HETATM    2  C4  UNL     1      25.946   0.650  52.336  1.00  0.00     0.190 A 
HETATM    3  C5  UNL     1      24.487   0.757  52.592  1.00  0.00     0.037 A 
HETATM    4  C6  UNL     1      23.878   0.044  53.602  1.00  0.00     0.089 A 
HETATM    5  N2  UNL     1      22.566   0.153  53.817  1.00  0.00    -0.240 NA
HETATM    6  C7  UNL     1      21.835   0.971  53.035  1.00  0.00     0.236 A 
HETATM    7  N3  UNL     1      22.449   1.654  52.061  1.00  0.00    -0.224 NA
HETATM    8  C8  UNL     1      23.738   1.611  51.772  1.00  0.00     0.139 A 
HETATM    9  C15 UNL     1      24.621  -0.853  54.474  1.00  0.00     0.170 A 
HETATM   10  N5  UNL     1      25.897  -0.978  54.287  1.00  0.00    -0.187 NA
ENDROOT
BRANCH   8  11
HETATM   11  N4  UNL     1      24.369   2.341  50.738  1.00  0.00    -0.340 N 
HETATM   12  H9  UNL     1      24.749   1.768  49.926  1.00  0.00     0.167 HD
BRANCH  11  13
HETATM   13  C9  UNL     1      24.556   3.732  50.649  1.00  0.00     0.035 A 
HETATM   14  C10 UNL     1      23.862   4.700  51.301  1.00  0.00     0.029 A 
HETATM   15  C11 UNL     1      24.062   6.058  51.200  1.00  0.00     0.004 A 
HETATM   16  C12 UNL     1      25.058   6.481  50.357  1.00  0.00     0.019 A 
HETATM   17  C13 UNL     1      25.806   5.573  49.660  1.00  0.00     0.013 A 
HETATM   18 BR1  UNL     1      27.170   6.196  48.506  1.00  0.00    -0.051 Br
HETATM   19  C14 UNL     1      25.547   4.246  49.814  1.00  0.00     0.048 A 
ENDBRANCH  11  13
ENDBRANCH   8  11
BRANCH   1  20
HETATM   20  C3  UNL     1      28.001  -0.459  53.114  1.00  0.00     0.174 C 
BRANCH  20  21
HETATM   21  C2  UNL     1      28.749   0.493  53.977  1.00  0.00     0.018 C 
HETATM   22  C1  UNL     1      29.070   1.788  53.928  1.00  0.00     0.129 C 
BRANCH  22  23
HETATM   23  O1  UNL     1      29.812   2.442  54.921  1.00  0.00    -0.373 OA
HETATM   24  H1  UNL     1      30.007   3.429  54.839  1.00  0.00     0.216 HD
ENDBRANCH  22  23
ENDBRANCH  20  21
ENDBRANCH   1  20
TORSDOF 5
ENDMDL
MODEL 4
REMARK VINA RESULT:      -7.4      2.963      6.145
REMARK  5 active torsions:
REMARK  status: ('A' for Active; 'I' for Inactive)
REMARK    1  A    between atoms: O1_1  and  C1_2 
REMARK    2  A    between atoms: C2_3  and  C3_4 
REMARK    3  A    between atoms: C3_4  and  N1_5 
REMARK    4  A    between atoms: C8_12  and  N4_13 
REMARK    5  A    between atoms: N4_13  and  C9_14 
ROOT
HETATM    1  N1  UNL     1      26.462   2.180  51.201  1.00  0.00    -0.298 N 
HETATM    2  C4  UNL     1      25.541   1.184  51.700  1.00  0.00     0.190 A 
HETATM    3  C5  UNL     1      25.960   0.716  53.046  1.00  0.00     0.037 A 
HETATM    4  C6  UNL     1      27.085   1.215  53.664  1.00  0.00     0.089 A 
HETATM    5  N2  UNL     1      27.445   0.782  54.874  1.00  0.00    -0.240 NA
HETATM    6  C7  UNL     1      26.697  -0.152  55.491  1.00  0.00     0.236 A 
HETATM    7  N3  UNL     1      25.607  -0.620  54.870  1.00  0.00    -0.224 NA
HETATM    8  C8  UNL     1      25.172  -0.255  53.677  1.00  0.00     0.139 A 
HETATM    9  C15 UNL     1      27.929   2.224  53.042  1.00  0.00     0.170 A 
HETATM   10  N5  UNL     1      27.602   2.662  51.868  1.00  0.00    -0.187 NA
ENDROOT
BRANCH   8  11
HETATM   11  N4  UNL     1      24.017  -0.762  53.037  1.00  0.00    -0.340 N 
HETATM   12  H9  UNL     1      24.176  -1.553  52.342  1.00  0.00     0.167 HD
BRANCH  11  13
HETATM   13  C9  UNL     1      22.682  -0.352  53.205  1.00  0.00     0.035 A 
HETATM   14  C10 UNL     1      21.988  -0.263  54.369  1.00  0.00     0.029 A 
HETATM   15  C11 UNL     1      20.680   0.143  54.512  1.00  0.00     0.004 A 
HETATM   16  C12 UNL     1      20.007   0.491  53.369  1.00  0.00     0.019 A 
HETATM   17  C13 UNL     1      20.630   0.431  52.152  1.00  0.00     0.013 A 
HETATM   18 BR1  UNL     1      19.667   0.919  50.599  1.00  0.00    -0.051 Br
HETATM   19  C14 UNL     1      21.926   0.020  52.094  1.00  0.00     0.048 A 
ENDBRANCH  11  13
ENDBRANCH   8  11
BRANCH   1  20
HETATM   20  C3  UNL     1      26.153   2.720  49.876  1.00  0.00     0.174 C 
BRANCH  20  21
HETATM   21  C2  UNL     1      26.713   4.088  49.725  1.00  0.00     0.018 C 
HETATM   22  C1  UNL     1      27.464   4.726  48.823  1.00  0.00     0.129 C 
BRANCH  22  23
HETATM   23  O1  UNL     1      27.854   6.066  48.947  1.00  0.00    -0.373 OA
HETATM   24  H1  UNL     1      28.821   6.325  48.821  1.00  0.00     0.216 HD
ENDBRANCH  22  23
ENDBRANCH  20  21
ENDBRANCH   1  20
TORSDOF 5
ENDMDL
MODEL 5
REMARK VINA RESULT:      -7.3      2.701      4.061
REMARK  5 active torsions:
REMARK  status: ('A' for Active; 'I' for Inactive)
REMARK    1  A    between atoms: O1_1  and  C1_2 
REMARK    2  A    between atoms: C2_3  and  C3_4 
REMARK    3  A    between atoms: C3_4  and  N1_5 
REMARK    4  A    between atoms: C8_12  and  N4_13 
REMARK    5  A    between atoms: N4_13  and  C9_14 
ROOT
HETATM    1  N1  UNL     1      27.164   0.683  53.171  1.00  0.00    -0.298 N 
HETATM    2  C4  UNL     1      27.031   1.492  51.981  1.00  0.00     0.190 A 
HETATM    3  C5  UNL     1      25.599   1.734  51.674  1.00  0.00     0.037 A 
HETATM    4  C6  UNL     1      24.595   1.222  52.466  1.00  0.00     0.089 A 
HETATM    5  N2  UNL     1      23.314   1.451  52.173  1.00  0.00    -0.240 NA
HETATM    6  C7  UNL     1      23.005   2.190  51.091  1.00  0.00     0.236 A 
HETATM    7  N3  UNL     1      23.998   2.678  50.337  1.00  0.00    -0.224 NA
HETATM    8  C8  UNL     1      25.292   2.505  50.545  1.00  0.00     0.139 A 
HETATM    9  C15 UNL     1      24.873   0.416  53.645  1.00  0.00     0.170 A 
HETATM   10  N5  UNL     1      26.108   0.180  53.953  1.00  0.00    -0.187 NA
ENDROOT
BRANCH   8  11
HETATM   11  N4  UNL     1      26.328   3.029  49.736  1.00  0.00    -0.340 N 
HETATM   12  H9  UNL     1      27.013   2.320  49.335  1.00  0.00     0.167 HD
BRANCH  11  13
HETATM   13  C9  UNL     1      26.566   4.373  49.395  1.00  0.00     0.035 A 
HETATM   14  C10 UNL     1      27.591   4.866  48.654  1.00  0.00     0.029 A 
HETATM   15  C11 UNL     1      27.806   6.186  48.330  1.00  0.00     0.004 A 
HETATM   16  C12 UNL     1      26.897   7.099  48.801  1.00  0.00     0.019 A 
HETATM   17  C13 UNL     1      25.832   6.689  49.557  1.00  0.00     0.013 A 
HETATM   18 BR1  UNL     1      24.601   7.979  50.189  1.00  0.00    -0.051 Br
HETATM   19  C14 UNL     1      25.690   5.365  49.834  1.00  0.00     0.048 A 
ENDBRANCH  11  13
ENDBRANCH   8  11
BRANCH   1  20
HETATM   20  C3  UNL     1      28.536   0.375  53.578  1.00  0.00     0.174 C 
BRANCH  20  21
HETATM   21  C2  UNL     1      28.744  -1.095  53.647  1.00  0.00     0.018 C 
HETATM   22  C1  UNL     1      28.286  -2.164  52.991  1.00  0.00     0.129 C 
BRANCH  22  23
HETATM   23  O1  UNL     1      28.671  -3.479  53.285  1.00  0.00    -0.373 OA
HETATM   24  H1  UNL     1      29.647  -3.702  53.415  1.00  0.00     0.216 HD
ENDBRANCH  22  23
ENDBRANCH  20  21
ENDBRANCH   1  20
TORSDOF 5
ENDMDL
MODEL 6
REMARK VINA RESULT:      -7.3      3.217      4.670
REMARK  5 active torsions:
REMARK  status: ('A' for Active; 'I' for Inactive)
REMARK    1  A    between atoms: O1_1  and  C1_2 
REMARK    2  A    between atoms: C2_3  and  C3_4 
REMARK    3  A    between atoms: C3_4  and  N1_5 
REMARK    4  A    between atoms: C8_12  and  N4_13 
REMARK    5  A    between atoms: N4_13  and  C9_14 
ROOT
HETATM    1  N1  UNL     1      26.820   0.926  52.831  1.00  0.00    -0.298 N 
HETATM    2  C4  UNL     1      26.870   1.764  51.656  1.00  0.00     0.190 A 
HETATM    3  C5  UNL     1      25.499   2.119  51.210  1.00  0.00     0.037 A 
HETATM    4  C6  UNL     1      24.384   1.670  51.882  1.00  0.00     0.089 A 
HETATM    5  N2  UNL     1      23.160   2.000  51.467  1.00  0.00    -0.240 NA
HETATM    6  C7  UNL     1      23.020   2.781  50.379  1.00  0.00     0.236 A 
HETATM    7  N3  UNL     1      24.119   3.206  49.743  1.00  0.00    -0.224 NA
HETATM    8  C8  UNL     1      25.368   2.932  50.077  1.00  0.00     0.139 A 
HETATM    9  C15 UNL     1      24.479   0.824  53.062  1.00  0.00     0.170 A 
HETATM   10  N5  UNL     1      25.655   0.489  53.488  1.00  0.00    -0.187 NA
ENDROOT
BRANCH   8  11
HETATM   11  N4  UNL     1      26.517   3.391  49.392  1.00  0.00    -0.340 N 
HETATM   12  H9  UNL     1      27.257   2.657  49.174  1.00  0.00     0.167 HD
BRANCH  11  13
HETATM   13  C9  UNL     1      26.805   4.699  48.960  1.00  0.00     0.035 A 
HETATM   14  C10 UNL     1      25.952   5.755  48.907  1.00  0.00     0.029 A 
HETATM   15  C11 UNL     1      26.254   7.028  48.481  1.00  0.00     0.004 A 
HETATM   16  C12 UNL     1      27.541   7.259  48.068  1.00  0.00     0.019 A 
HETATM   17  C13 UNL     1      28.466   6.251  48.088  1.00  0.00     0.013 A 
HETATM   18 BR1  UNL     1      30.231   6.608  47.508  1.00  0.00    -0.051 Br
HETATM   19  C14 UNL     1      28.089   5.018  48.523  1.00  0.00     0.048 A 
ENDBRANCH  11  13
ENDBRANCH   8  11
BRANCH   1  20
HETATM   20  C3  UNL     1      28.116   0.508  53.367  1.00  0.00     0.174 C 
BRANCH  20  21
HETATM   21  C2  UNL     1      28.172  -0.971  53.509  1.00  0.00     0.018 C 
HETATM   22  C1  UNL     1      28.977  -1.948  53.085  1.00  0.00     0.129 C 
BRANCH  22  23
HETATM   23  O1  UNL     1      28.777  -3.303  53.384  1.00  0.00    -0.373 OA
HETATM   24  H1  UNL     1      29.568  -3.906  53.549  1.00  0.00     0.216 HD
ENDBRANCH  22  23
ENDBRANCH  20  21
ENDBRANCH   1  20
TORSDOF 5
ENDMDL
MODEL 7
REMARK VINA RESULT:      -7.0      2.406      3.402
REMARK  5 active torsions:
REMARK  status: ('A' for Active; 'I' for Inactive)
REMARK    1  A    between atoms: O1_1  and  C1_2 
REMARK    2  A    between atoms: C2_3  and  C3_4 
REMARK    3  A    between atoms: C3_4  and  N1_5 
REMARK    4  A    between atoms: C8_12  and  N4_13 
REMARK    5  A    between atoms: N4_13  and  C9_14 
ROOT
HETATM    1  N1  UNL     1      21.389  -0.682  53.938  1.00  0.00    -0.298 N 
HETATM    2  C4  UNL     1      22.248   0.063  53.047  1.00  0.00     0.190 A 
HETATM    3  C5  UNL     1      23.666  -0.050  53.474  1.00  0.00     0.037 A 
HETATM    4  C6  UNL     1      24.028  -0.785  54.581  1.00  0.00     0.089 A 
HETATM    5  N2  UNL     1      25.307  -0.875  54.948  1.00  0.00    -0.240 NA
HETATM    6  C7  UNL     1      26.249  -0.239  54.226  1.00  0.00     0.236 A 
HETATM    7  N3  UNL     1      25.872   0.469  53.154  1.00  0.00    -0.224 NA
HETATM    8  C8  UNL     1      24.635   0.617  52.714  1.00  0.00     0.139 A 
HETATM    9  C15 UNL     1      23.052  -1.492  55.396  1.00  0.00     0.170 A 
HETATM   10  N5  UNL     1      21.803  -1.422  55.060  1.00  0.00    -0.187 NA
ENDROOT
BRANCH   8  11
HETATM   11  N4  UNL     1      24.256   1.370  51.577  1.00  0.00    -0.340 N 
HETATM   12  H9  UNL     1      23.971   0.810  50.719  1.00  0.00     0.167 HD
BRANCH  11  13
HETATM   13  C9  UNL     1      24.209   2.769  51.441  1.00  0.00     0.035 A 
HETATM   14  C10 UNL     1      23.425   3.638  52.130  1.00  0.00     0.029 A 
HETATM   15  C11 UNL     1      23.394   5.006  51.981  1.00  0.00     0.004 A 
HETATM   16  C12 UNL     1      24.236   5.550  51.046  1.00  0.00     0.019 A 
HETATM   17  C13 UNL     1      25.061   4.748  50.306  1.00  0.00     0.013 A 
HETATM   18 BR1  UNL     1      26.207   5.538  49.025  1.00  0.00    -0.051 Br
HETATM   19  C14 UNL     1      25.032   3.404  50.512  1.00  0.00     0.048 A 
ENDBRANCH  11  13
ENDBRANCH   8  11
BRANCH   1  20
HETATM   20  C3  UNL     1      19.961  -0.646  53.618  1.00  0.00     0.174 C 
BRANCH  20  21
HETATM   21  C2  UNL     1      19.744  -0.101  52.252  1.00  0.00     0.018 C 
HETATM   22  C1  UNL     1      18.754   0.527  51.613  1.00  0.00     0.129 C 
BRANCH  22  23
HETATM   23  O1  UNL     1      18.832   0.938  50.276  1.00  0.00    -0.373 OA
HETATM   24  H1  UNL     1      19.238   0.328  49.582  1.00  0.00     0.216 HD
ENDBRANCH  22  23
ENDBRANCH  20  21
ENDBRANCH   1  20
TORSDOF 5
ENDMDL
MODEL 8
REMARK VINA RESULT:      -6.9      2.049      2.383
REMARK  5 active torsions:
REMARK  status: ('A' for Active; 'I' for Inactive)
REMARK    1  A    between atoms: O1_1  and  C1_2 
REMARK    2  A    between atoms: C2_3  and  C3_4 
REMARK    3  A    between atoms: C3_4  and  N1_5 
REMARK    4  A    between atoms: C8_12  and  N4_13 
REMARK    5  A    between atoms: N4_13  and  C9_14 
ROOT
HETATM    1  N1  UNL     1      22.541   0.381  52.544  1.00  0.00    -0.298 N 
HETATM    2  C4  UNL     1      23.314   1.294  51.734  1.00  0.00     0.190 A 
HETATM    3  C5  UNL     1      24.739   1.280  52.149  1.00  0.00     0.037 A 
HETATM    4  C6  UNL     1      25.183   0.476  53.176  1.00  0.00     0.089 A 
HETATM    5  N2  UNL     1      26.468   0.476  53.534  1.00  0.00    -0.240 NA
HETATM    6  C7  UNL     1      27.335   1.274  52.881  1.00  0.00     0.236 A 
HETATM    7  N3  UNL     1      26.880   2.046  51.887  1.00  0.00    -0.224 NA
HETATM    8  C8  UNL     1      25.631   2.114  51.462  1.00  0.00     0.139 A 
HETATM    9  C15 UNL     1      24.289  -0.404  53.913  1.00  0.00     0.170 A 
HETATM   10  N5  UNL     1      23.036  -0.425  53.585  1.00  0.00    -0.187 NA
ENDROOT
BRANCH   8  11
HETATM   11  N4  UNL     1      25.169   2.937  50.408  1.00  0.00    -0.340 N 
HETATM   12  H9  UNL     1      24.236   2.663  49.975  1.00  0.00     0.167 HD
BRANCH  11  13
HETATM   13  C9  UNL     1      25.789   4.075  49.862  1.00  0.00     0.035 A 
HETATM   14  C10 UNL     1      26.941   4.121  49.144  1.00  0.00     0.029 A 
HETATM   15  C11 UNL     1      27.532   5.247  48.617  1.00  0.00     0.004 A 
HETATM   16  C12 UNL     1      26.898   6.444  48.836  1.00  0.00     0.019 A 
HETATM   17  C13 UNL     1      25.731   6.489  49.549  1.00  0.00     0.013 A 
HETATM   18 BR1  UNL     1      24.888   8.160  49.829  1.00  0.00    -0.051 Br
HETATM   19  C14 UNL     1      25.211   5.331  50.038  1.00  0.00     0.048 A 
ENDBRANCH  11  13
ENDBRANCH   8  11
BRANCH   1  20
HETATM   20  C3  UNL     1      21.114   0.306  52.228  1.00  0.00     0.174 C 
BRANCH  20  21
HETATM   21  C2  UNL     1      20.473   1.639  52.383  1.00  0.00     0.018 C 
HETATM   22  C1  UNL     1      19.395   2.251  51.888  1.00  0.00     0.129 C 
BRANCH  22  23
HETATM   23  O1  UNL     1      19.023   3.560  52.224  1.00  0.00    -0.373 OA
HETATM   24  H1  UNL     1      18.214   3.982  51.793  1.00  0.00     0.216 HD
ENDBRANCH  22  23
ENDBRANCH  20  21
ENDBRANCH   1  20
TORSDOF 5
ENDMDL
MODEL 9
REMARK VINA RESULT:      -6.8      4.307      7.715
REMARK  5 active torsions:
REMARK  status: ('A' for Active; 'I' for Inactive)
REMARK    1  A    between atoms: O1_1  and  C1_2 
REMARK    2  A    between atoms: C2_3  and  C3_4 
REMARK    3  A    between atoms: C3_4  and  N1_5 
REMARK    4  A    between atoms: C8_12  and  N4_13 
REMARK    5  A    between atoms: N4_13  and  C9_14 
ROOT
HETATM    1  N1  UNL     1      26.395   5.095  49.402  1.00  0.00    -0.298 N 
HETATM    2  C4  UNL     1      25.728   3.924  49.921  1.00  0.00     0.190 A 
HETATM    3  C5  UNL     1      24.516   4.311  50.687  1.00  0.00     0.037 A 
HETATM    4  C6  UNL     1      24.148   5.631  50.834  1.00  0.00     0.089 A 
HETATM    5  N2  UNL     1      23.055   5.959  51.525  1.00  0.00    -0.240 NA
HETATM    6  C7  UNL     1      22.309   4.986  52.083  1.00  0.00     0.236 A 
HETATM    7  N3  UNL     1      22.687   3.712  51.925  1.00  0.00    -0.224 NA
HETATM    8  C8  UNL     1      23.749   3.290  51.262  1.00  0.00     0.139 A 
HETATM    9  C15 UNL     1      24.918   6.720  50.253  1.00  0.00     0.170 A 
HETATM   10  N5  UNL     1      25.983   6.429  49.575  1.00  0.00    -0.187 NA
ENDROOT
BRANCH   8  11
HETATM   11  N4  UNL     1      24.132   1.937  51.106  1.00  0.00    -0.340 N 
HETATM   12  H9  UNL     1      24.128   1.561  50.111  1.00  0.00     0.167 HD
BRANCH  11  13
HETATM   13  C9  UNL     1      24.520   1.026  52.105  1.00  0.00     0.035 A 
HETATM   14  C10 UNL     1      23.719   0.403  53.008  1.00  0.00     0.029 A 
HETATM   15  C11 UNL     1      24.119  -0.487  53.978  1.00  0.00     0.004 A 
HETATM   16  C12 UNL     1      25.458  -0.776  54.045  1.00  0.00     0.019 A 
HETATM   17  C13 UNL     1      26.337  -0.193  53.174  1.00  0.00     0.013 A 
HETATM   18 BR1  UNL     1      28.177  -0.616  53.299  1.00  0.00    -0.051 Br
HETATM   19  C14 UNL     1      25.863   0.678  52.242  1.00  0.00     0.048 A 
ENDBRANCH  11  13
ENDBRANCH   8  11
BRANCH   1  20
HETATM   20  C3  UNL     1      27.609   4.840  48.625  1.00  0.00     0.174 C 
BRANCH  20  21
HETATM   21  C2  UNL     1      28.296   6.116  48.293  1.00  0.00     0.018 C 
HETATM   22  C1  UNL     1      29.524   6.476  47.911  1.00  0.00     0.129 C 
BRANCH  22  23
HETATM   23  O1  UNL     1      29.900   7.803  47.661  1.00  0.00    -0.373 OA
HETATM   24  H1  UNL     1      30.843   8.014  47.370  1.00  0.00     0.216 HD
ENDBRANCH  22  23
ENDBRANCH  20  21
ENDBRANCH   1  20
TORSDOF 5
ENDMDL
